MODEL 1
REMARK VINA RESULT:     -11.8      0.000      0.000
REMARK  Name = 24963046
REMARK  6 active torsions:
REMARK  status: ('A' for Active; 'I' for Inactive)
REMARK    1  A    between atoms: N_1  and  C_27
REMARK    2  A    between atoms: C_4  and  C_16
REMARK    3  A    between atoms: C_13  and  C_22
REMARK    4  A    between atoms: N_21  and  C_24
REMARK    5  A    between atoms: C_27  and  C_28
REMARK    6  A    between atoms: C_28  and  N_30
REMARK                            x       y       z     vdW  Elec       q    Type
REMARK                         _______ _______ _______ _____ _____    ______ ____
ROOT
ATOM      1  N   UNL     1      34.243 -23.717 -16.670  0.00  0.00    -0.270 N 
ATOM      2  N   UNL     1      35.285 -22.246 -18.137  0.00  0.00    -0.338 NA
ATOM      3  N   UNL     1      32.887 -22.472 -18.080  0.00  0.00    -0.170 NA
ATOM      4  C   UNL     1      34.995 -19.390 -21.159  0.00  0.00    -0.000 C 
ATOM      5  C   UNL     1      33.841 -19.968 -20.639  0.00  0.00    +0.004 C 
ATOM      6  C   UNL     1      33.935 -20.932 -19.620  0.00  0.00    +0.050 C 
ATOM      7  C   UNL     1      34.132 -22.769 -17.674  0.00  0.00    +0.145 C 
ATOM      8  C   UNL     1      36.237 -19.772 -20.663  0.00  0.00    +0.003 C 
ATOM      9  C   UNL     1      35.184 -21.325 -19.111  0.00  0.00    +0.146 C 
ATOM     10  C   UNL     1      36.322 -20.731 -19.650  0.00  0.00    +0.033 C 
ATOM     11  C   UNL     1      32.821 -21.547 -19.057  0.00  0.00    +0.114 C 
ATOM     12  H   UNL     1      33.416 -24.115 -16.313  0.00  0.00    +0.159 HD
ENDROOT
BRANCH   4  16
ATOM     13  C   UNL     1      34.588 -16.094 -22.858  0.00  0.00    +0.053 C 
ATOM     14  C   UNL     1      34.680 -17.067 -21.863  0.00  0.00    +0.004 C 
ATOM     15  C   UNL     1      34.720 -16.454 -24.199  0.00  0.00    +0.004 C 
ATOM     16  C   UNL     1      34.903 -18.400 -22.209  0.00  0.00    -0.004 C 
ATOM     17  C   UNL     1      35.035 -18.759 -23.551  0.00  0.00    -0.022 C 
ATOM     18  C   UNL     1      34.944 -17.786 -24.546  0.00  0.00    -0.004 C 
ATOM     19  C   UNL     1      35.275 -20.177 -23.960  0.00  0.00    +0.031 C 
BRANCH  13  22
ATOM     20  O   UNL     1      34.944 -13.787 -23.099  0.00  0.00    -0.270 OA
ATOM     21  N   UNL     1      33.466 -14.459 -21.446  0.00  0.00    -0.302 N 
ATOM     22  C   UNL     1      34.356 -14.704 -22.499  0.00  0.00    +0.246 C 
ATOM     23  H   UNL     1      33.032 -15.229 -21.011  0.00  0.00    +0.150 HD
BRANCH  21  24
ATOM     24  C   UNL     1      33.154 -13.140 -20.966  0.00  0.00    +0.072 C 
ATOM     25  C   UNL     1      31.997 -12.365 -21.522  0.00  0.00    +0.021 C 
ATOM     26  C   UNL     1      31.944 -12.890 -20.117  0.00  0.00    +0.021 C 
ENDBRANCH  21  24
ENDBRANCH  13  22
ENDBRANCH   4  16
BRANCH   1  27
ATOM     27  C   UNL     1      35.503 -24.153 -16.116  0.00  0.00    +0.075 C 
BRANCH  27  28
ATOM     28  C   UNL     1      35.419 -24.159 -14.595  0.00  0.00    -0.055 C 
BRANCH  28  30
ATOM     29  O   UNL     1      38.762 -26.663 -14.179  0.00  0.00    -0.358 OA
ATOM     30  N   UNL     1      36.386 -25.102 -14.036  0.00  0.00    +0.391 N 
ATOM     31  C   UNL     1      37.717 -24.485 -13.938  0.00  0.00    -0.045 C 
ATOM     32  C   UNL     1      36.455 -26.323 -14.849  0.00  0.00    -0.045 C 
ATOM     33  C   UNL     1      38.712 -25.490 -13.364  0.00  0.00    +0.119 C 
ATOM     34  C   UNL     1      37.479 -27.285 -14.253  0.00  0.00    +0.119 C 
ATOM     35  H   UNL     1      36.073 -25.351 -13.097  0.00  0.00    -0.079 HD
ENDBRANCH  28  30
ENDBRANCH  27  28
ENDBRANCH   1  27
TORSDOF 6
ENDMDL
MODEL 2
REMARK VINA RESULT:     -11.3      3.383     11.665
REMARK  Name = 24963046
REMARK  6 active torsions:
REMARK  status: ('A' for Active; 'I' for Inactive)
REMARK    1  A    between atoms: N_1  and  C_27
REMARK    2  A    between atoms: C_4  and  C_16
REMARK    3  A    between atoms: C_13  and  C_22
REMARK    4  A    between atoms: N_21  and  C_24
REMARK    5  A    between atoms: C_27  and  C_28
REMARK    6  A    between atoms: C_28  and  N_30
REMARK                            x       y       z     vdW  Elec       q    Type
REMARK                         _______ _______ _______ _____ _____    ______ ____
ROOT
ATOM      1  N   UNL     1      33.698 -13.185 -25.565  0.00  0.00    -0.270 N 
ATOM      2  N   UNL     1      34.131 -14.314 -23.580  0.00  0.00    -0.338 NA
ATOM      3  N   UNL     1      34.235 -15.437 -25.710  0.00  0.00    -0.170 NA
ATOM      4  C   UNL     1      35.149 -17.845 -21.612  0.00  0.00    -0.000 C 
ATOM      5  C   UNL     1      35.036 -17.833 -22.999  0.00  0.00    +0.004 C 
ATOM      6  C   UNL     1      34.692 -16.644 -23.666  0.00  0.00    +0.050 C 
ATOM      7  C   UNL     1      34.036 -14.366 -24.924  0.00  0.00    +0.145 C 
ATOM      8  C   UNL     1      34.921 -16.675 -20.895  0.00  0.00    +0.003 C 
ATOM      9  C   UNL     1      34.460 -15.456 -22.952  0.00  0.00    +0.146 C 
ATOM     10  C   UNL     1      34.581 -15.497 -21.566  0.00  0.00    +0.033 C 
ATOM     11  C   UNL     1      34.563 -16.565 -25.049  0.00  0.00    +0.114 C 
ATOM     12  H   UNL     1      33.622 -13.195 -26.547  0.00  0.00    +0.159 HD
ENDROOT
BRANCH   4  16
ATOM     13  C   UNL     1      34.800 -21.045 -19.726  0.00  0.00    +0.053 C 
ATOM     14  C   UNL     1      34.484 -19.863 -20.395  0.00  0.00    +0.004 C 
ATOM     15  C   UNL     1      36.132 -21.431 -19.583  0.00  0.00    +0.004 C 
ATOM     16  C   UNL     1      35.500 -19.066 -20.921  0.00  0.00    -0.004 C 
ATOM     17  C   UNL     1      36.834 -19.452 -20.778  0.00  0.00    -0.022 C 
ATOM     18  C   UNL     1      37.149 -20.635 -20.109  0.00  0.00    -0.004 C 
ATOM     19  C   UNL     1      37.951 -18.625 -21.329  0.00  0.00    +0.031 C 
BRANCH  13  22
ATOM     20  O   UNL     1      32.655 -21.996 -19.774  0.00  0.00    -0.270 OA
ATOM     21  N   UNL     1      33.994 -22.506 -17.952  0.00  0.00    -0.302 N 
ATOM     22  C   UNL     1      33.740 -21.876 -19.177  0.00  0.00    +0.246 C 
ATOM     23  H   UNL     1      34.873 -22.370 -17.530  0.00  0.00    +0.150 HD
BRANCH  21  24
ATOM     24  C   UNL     1      33.036 -23.339 -17.279  0.00  0.00    +0.072 C 
ATOM     25  C   UNL     1      32.993 -23.421 -15.782  0.00  0.00    +0.021 C 
ATOM     26  C   UNL     1      31.881 -22.744 -16.530  0.00  0.00    +0.021 C 
ENDBRANCH  21  24
ENDBRANCH  13  22
ENDBRANCH   4  16
BRANCH   1  27
ATOM     27  C   UNL     1      33.450 -11.942 -24.875  0.00  0.00    +0.075 C 
BRANCH  27  28
ATOM     28  C   UNL     1      34.761 -11.188 -24.690  0.00  0.00    -0.055 C 
BRANCH  28  30
ATOM     29  O   UNL     1      33.595  -7.577 -22.896  0.00  0.00    -0.358 OA
ATOM     30  N   UNL     1      34.597 -10.113 -23.714  0.00  0.00    +0.391 N 
ATOM     31  C   UNL     1      33.177  -9.917 -23.389  0.00  0.00    -0.045 C 
ATOM     32  C   UNL     1      35.177  -8.860 -24.215  0.00  0.00    -0.045 C 
ATOM     33  C   UNL     1      33.029  -8.783 -22.379  0.00  0.00    +0.119 C 
ATOM     34  C   UNL     1      34.983  -7.751 -23.184  0.00  0.00    +0.119 C 
ATOM     35  H   UNL     1      35.091 -10.386 -22.864  0.00  0.00    -0.079 HD
ENDBRANCH  28  30
ENDBRANCH  27  28
ENDBRANCH   1  27
TORSDOF 6
ENDMDL
MODEL 3
REMARK VINA RESULT:     -10.9      1.930     11.102
REMARK  Name = 24963046
REMARK  6 active torsions:
REMARK  status: ('A' for Active; 'I' for Inactive)
REMARK    1  A    between atoms: N_1  and  C_27
REMARK    2  A    between atoms: C_4  and  C_16
REMARK    3  A    between atoms: C_13  and  C_22
REMARK    4  A    between atoms: N_21  and  C_24
REMARK    5  A    between atoms: C_27  and  C_28
REMARK    6  A    between atoms: C_28  and  N_30
REMARK                            x       y       z     vdW  Elec       q    Type
REMARK                         _______ _______ _______ _____ _____    ______ ____
ROOT
ATOM      1  N   UNL     1      35.905 -19.045 -22.312  0.00  0.00    -0.270 N 
ATOM      2  N   UNL     1      34.621 -20.283 -20.822  0.00  0.00    -0.338 NA
ATOM      3  N   UNL     1      36.988 -19.979 -20.486  0.00  0.00    -0.170 NA
ATOM      4  C   UNL     1      34.371 -22.569 -17.345  0.00  0.00    -0.000 C 
ATOM      5  C   UNL     1      35.597 -22.045 -17.743  0.00  0.00    +0.004 C 
ATOM      6  C   UNL     1      35.686 -21.274 -18.915  0.00  0.00    +0.050 C 
ATOM      7  C   UNL     1      35.837 -19.803 -21.155  0.00  0.00    +0.145 C 
ATOM      8  C   UNL     1      33.238 -22.323 -18.114  0.00  0.00    +0.003 C 
ATOM      9  C   UNL     1      34.548 -21.019 -19.699  0.00  0.00    +0.146 C 
ATOM     10  C   UNL     1      33.334 -21.555 -19.277  0.00  0.00    +0.033 C 
ATOM     11  C   UNL     1      36.880 -20.721 -19.367  0.00  0.00    +0.114 C 
ATOM     12  H   UNL     1      36.780 -18.682 -22.579  0.00  0.00    +0.159 HD
ENDROOT
BRANCH   4  16
ATOM     13  C   UNL     1      35.358 -24.744 -14.479  0.00  0.00    +0.053 C 
ATOM     14  C   UNL     1      35.426 -23.973 -15.640  0.00  0.00    +0.004 C 
ATOM     15  C   UNL     1      34.140 -24.905 -13.820  0.00  0.00    +0.004 C 
ATOM     16  C   UNL     1      34.276 -23.364 -16.141  0.00  0.00    -0.004 C 
ATOM     17  C   UNL     1      33.057 -23.526 -15.480  0.00  0.00    -0.022 C 
ATOM     18  C   UNL     1      32.989 -24.296 -14.319  0.00  0.00    -0.004 C 
ATOM     19  C   UNL     1      31.803 -22.888 -15.987  0.00  0.00    +0.031 C 
BRANCH  13  22
ATOM     20  O   UNL     1      36.602 -25.777 -12.778  0.00  0.00    -0.270 OA
ATOM     21  N   UNL     1      37.647 -25.499 -14.828  0.00  0.00    -0.302 N 
ATOM     22  C   UNL     1      36.557 -25.379 -13.956  0.00  0.00    +0.246 C 
ATOM     23  H   UNL     1      37.547 -25.165 -15.749  0.00  0.00    +0.150 HD
BRANCH  21  24
ATOM     24  C   UNL     1      38.902 -26.085 -14.446  0.00  0.00    +0.072 C 
ATOM     25  C   UNL     1      40.205 -25.451 -14.835  0.00  0.00    +0.021 C 
ATOM     26  C   UNL     1      39.768 -25.450 -13.399  0.00  0.00    +0.021 C 
ENDBRANCH  21  24
ENDBRANCH  13  22
ENDBRANCH   4  16
BRANCH   1  27
ATOM     27  C   UNL     1      34.765 -18.757 -23.150  0.00  0.00    +0.075 C 
BRANCH  27  28
ATOM     28  C   UNL     1      35.040 -17.507 -23.977  0.00  0.00    -0.055 C 
BRANCH  28  30
ATOM     29  O   UNL     1      34.127 -13.615 -22.698  0.00  0.00    -0.358 OA
ATOM     30  N   UNL     1      34.323 -16.361 -23.420  0.00  0.00    +0.391 N 
ATOM     31  C   UNL     1      34.152 -15.311 -24.434  0.00  0.00    -0.045 C 
ATOM     32  C   UNL     1      35.030 -15.822 -22.250  0.00  0.00    -0.045 C 
ATOM     33  C   UNL     1      33.414 -14.122 -23.827  0.00  0.00    +0.119 C 
ATOM     34  C   UNL     1      34.269 -14.622 -21.694  0.00  0.00    +0.119 C 
ATOM     35  H   UNL     1      33.401 -16.683 -23.126  0.00  0.00    -0.079 HD
ENDBRANCH  28  30
ENDBRANCH  27  28
ENDBRANCH   1  27
TORSDOF 6
ENDMDL
MODEL 4
REMARK VINA RESULT:     -10.8      2.358      3.335
REMARK  Name = 24963046
REMARK  6 active torsions:
REMARK  status: ('A' for Active; 'I' for Inactive)
REMARK    1  A    between atoms: N_1  and  C_27
REMARK    2  A    between atoms: C_4  and  C_16
REMARK    3  A    between atoms: C_13  and  C_22
REMARK    4  A    between atoms: N_21  and  C_24
REMARK    5  A    between atoms: C_27  and  C_28
REMARK    6  A    between atoms: C_28  and  N_30
REMARK                            x       y       z     vdW  Elec       q    Type
REMARK                         _______ _______ _______ _____ _____    ______ ____
ROOT
ATOM      1  N   UNL     1      35.646 -23.578 -16.163  0.00  0.00    -0.270 N 
ATOM      2  N   UNL     1      34.563 -22.381 -17.835  0.00  0.00    -0.338 NA
ATOM      3  N   UNL     1      36.940 -22.182 -17.489  0.00  0.00    -0.170 NA
ATOM      4  C   UNL     1      34.744 -19.662 -20.989  0.00  0.00    -0.000 C 
ATOM      5  C   UNL     1      35.905 -20.005 -20.303  0.00  0.00    +0.004 C 
ATOM      6  C   UNL     1      35.848 -20.921 -19.239  0.00  0.00    +0.050 C 
ATOM      7  C   UNL     1      35.721 -22.673 -17.209  0.00  0.00    +0.145 C 
ATOM      8  C   UNL     1      33.532 -20.232 -20.615  0.00  0.00    +0.003 C 
ATOM      9  C   UNL     1      34.629 -21.503 -18.851  0.00  0.00    +0.146 C 
ATOM     10  C   UNL     1      33.484 -21.143 -19.556  0.00  0.00    +0.033 C 
ATOM     11  C   UNL     1      36.970 -21.306 -18.513  0.00  0.00    +0.114 C 
ATOM     12  H   UNL     1      36.477 -23.809 -15.688  0.00  0.00    +0.159 HD
ENDROOT
BRANCH   4  16
ATOM     13  C   UNL     1      34.650 -16.436 -22.861  0.00  0.00    +0.053 C 
ATOM     14  C   UNL     1      34.602 -17.363 -21.820  0.00  0.00    +0.004 C 
ATOM     15  C   UNL     1      34.895 -16.863 -24.165  0.00  0.00    +0.004 C 
ATOM     16  C   UNL     1      34.798 -18.719 -22.084  0.00  0.00    -0.004 C 
ATOM     17  C   UNL     1      35.043 -19.146 -23.390  0.00  0.00    -0.022 C 
ATOM     18  C   UNL     1      35.092 -18.218 -24.430  0.00  0.00    -0.004 C 
ATOM     19  C   UNL     1      35.260 -20.590 -23.712  0.00  0.00    +0.031 C 
BRANCH  13  22
ATOM     20  O   UNL     1      35.008 -14.154 -23.275  0.00  0.00    -0.270 OA
ATOM     21  N   UNL     1      33.610 -14.697 -21.509  0.00  0.00    -0.302 N 
ATOM     22  C   UNL     1      34.445 -15.022 -22.586  0.00  0.00    +0.246 C 
ATOM     23  H   UNL     1      33.194 -15.431 -21.002  0.00  0.00    +0.150 HD
BRANCH  21  24
ATOM     24  C   UNL     1      33.332 -13.346 -21.106  0.00  0.00    +0.072 C 
ATOM     25  C   UNL     1      32.193 -12.575 -21.705  0.00  0.00    +0.021 C 
ATOM     26  C   UNL     1      32.129 -13.017 -20.273  0.00  0.00    +0.021 C 
ENDBRANCH  21  24
ENDBRANCH  13  22
ENDBRANCH   4  16
BRANCH   1  27
ATOM     27  C   UNL     1      34.418 -24.201 -15.730  0.00  0.00    +0.075 C 
BRANCH  27  28
ATOM     28  C   UNL     1      34.260 -24.029 -14.224  0.00  0.00    -0.055 C 
BRANCH  28  30
ATOM     29  O   UNL     1      30.063 -24.066 -14.262  0.00  0.00    -0.358 OA
ATOM     30  N   UNL     1      32.866 -23.743 -13.889  0.00  0.00    +0.391 N 
ATOM     31  C   UNL     1      32.171 -24.967 -13.464  0.00  0.00    -0.045 C 
ATOM     32  C   UNL     1      32.168 -23.137 -15.031  0.00  0.00    -0.045 C 
ATOM     33  C   UNL     1      30.717 -24.646 -13.131  0.00  0.00    +0.119 C 
ATOM     34  C   UNL     1      30.714 -22.859 -14.660  0.00  0.00    +0.119 C 
ATOM     35  H   UNL     1      32.862 -23.080 -13.113  0.00  0.00    -0.079 HD
ENDBRANCH  28  30
ENDBRANCH  27  28
ENDBRANCH   1  27
TORSDOF 6
ENDMDL
MODEL 5
REMARK VINA RESULT:     -10.7      4.130     12.652
REMARK  Name = 24963046
REMARK  6 active torsions:
REMARK  status: ('A' for Active; 'I' for Inactive)
REMARK    1  A    between atoms: N_1  and  C_27
REMARK    2  A    between atoms: C_4  and  C_16
REMARK    3  A    between atoms: C_13  and  C_22
REMARK    4  A    between atoms: N_21  and  C_24
REMARK    5  A    between atoms: C_27  and  C_28
REMARK    6  A    between atoms: C_28  and  N_30
REMARK                            x       y       z     vdW  Elec       q    Type
REMARK                         _______ _______ _______ _____ _____    ______ ____
ROOT
ATOM      1  N   UNL     1      31.486  -9.361 -20.818  0.00  0.00    -0.270 N 
ATOM      2  N   UNL     1      32.660 -10.875 -22.135  0.00  0.00    -0.338 NA
ATOM      3  N   UNL     1      31.588 -11.560 -20.088  0.00  0.00    -0.170 NA
ATOM      4  C   UNL     1      34.018 -14.762 -22.784  0.00  0.00    -0.000 C 
ATOM      5  C   UNL     1      33.260 -14.473 -21.653  0.00  0.00    +0.004 C 
ATOM      6  C   UNL     1      32.800 -13.163 -21.431  0.00  0.00    +0.050 C 
ATOM      7  C   UNL     1      31.931 -10.657 -21.021  0.00  0.00    +0.145 C 
ATOM      8  C   UNL     1      34.315 -13.748 -23.689  0.00  0.00    +0.003 C 
ATOM      9  C   UNL     1      33.094 -12.131 -22.337  0.00  0.00    +0.146 C 
ATOM     10  C   UNL     1      33.854 -12.448 -23.460  0.00  0.00    +0.033 C 
ATOM     11  C   UNL     1      32.039 -12.808 -20.322  0.00  0.00    +0.114 C 
ATOM     12  H   UNL     1      30.951  -9.174 -20.013  0.00  0.00    +0.159 HD
ENDROOT
BRANCH   4  16
ATOM     13  C   UNL     1      35.344 -18.186 -22.126  0.00  0.00    +0.053 C 
ATOM     14  C   UNL     1      34.882 -16.885 -21.926  0.00  0.00    +0.004 C 
ATOM     15  C   UNL     1      35.417 -18.709 -23.416  0.00  0.00    +0.004 C 
ATOM     16  C   UNL     1      34.494 -16.107 -23.016  0.00  0.00    -0.004 C 
ATOM     17  C   UNL     1      34.567 -16.632 -24.308  0.00  0.00    -0.022 C 
ATOM     18  C   UNL     1      35.028 -17.933 -24.508  0.00  0.00    -0.004 C 
ATOM     19  C   UNL     1      34.159 -15.828 -25.501  0.00  0.00    +0.031 C 
BRANCH  13  22
ATOM     20  O   UNL     1      36.847 -18.810 -20.435  0.00  0.00    -0.270 OA
ATOM     21  N   UNL     1      34.862 -19.997 -20.571  0.00  0.00    -0.302 N 
ATOM     22  C   UNL     1      35.749 -18.998 -20.989  0.00  0.00    +0.246 C 
ATOM     23  H   UNL     1      34.008 -20.095 -21.052  0.00  0.00    +0.150 HD
BRANCH  21  24
ATOM     24  C   UNL     1      35.135 -20.889 -19.478  0.00  0.00    +0.072 C 
ATOM     25  C   UNL     1      34.114 -21.885 -19.014  0.00  0.00    +0.021 C 
ATOM     26  C   UNL     1      35.360 -22.353 -19.708  0.00  0.00    +0.021 C 
ENDBRANCH  21  24
ENDBRANCH  13  22
ENDBRANCH   4  16
BRANCH   1  27
ATOM     27  C   UNL     1      31.762  -8.269 -21.721  0.00  0.00    +0.075 C 
BRANCH  27  28
ATOM     28  C   UNL     1      33.020  -7.537 -21.270  0.00  0.00    -0.055 C 
BRANCH  28  30
ATOM     29  O   UNL     1      33.878  -5.908 -25.042  0.00  0.00    -0.358 OA
ATOM     30  N   UNL     1      33.481  -6.627 -22.317  0.00  0.00    +0.391 N 
ATOM     31  C   UNL     1      32.361  -6.204 -23.170  0.00  0.00    -0.045 C 
ATOM     32  C   UNL     1      34.527  -7.257 -23.133  0.00  0.00    -0.045 C 
ATOM     33  C   UNL     1      32.868  -5.265 -24.261  0.00  0.00    +0.119 C 
ATOM     34  C   UNL     1      34.984  -6.293 -24.224  0.00  0.00    +0.119 C 
ATOM     35  H   UNL     1      33.874  -5.802 -21.862  0.00  0.00    -0.079 HD
ENDBRANCH  28  30
ENDBRANCH  27  28
ENDBRANCH   1  27
TORSDOF 6
ENDMDL
MODEL 6
REMARK VINA RESULT:     -10.6      3.134     10.195
REMARK  Name = 24963046
REMARK  6 active torsions:
REMARK  status: ('A' for Active; 'I' for Inactive)
REMARK    1  A    between atoms: N_1  and  C_27
REMARK    2  A    between atoms: C_4  and  C_16
REMARK    3  A    between atoms: C_13  and  C_22
REMARK    4  A    between atoms: N_21  and  C_24
REMARK    5  A    between atoms: C_27  and  C_28
REMARK    6  A    between atoms: C_28  and  N_30
REMARK                            x       y       z     vdW  Elec       q    Type
REMARK                         _______ _______ _______ _____ _____    ______ ____
ROOT
ATOM      1  N   UNL     1      36.019 -17.872 -23.446  0.00  0.00    -0.270 N 
ATOM      2  N   UNL     1      34.602 -19.026 -22.009  0.00  0.00    -0.338 NA
ATOM      3  N   UNL     1      36.995 -19.075 -21.719  0.00  0.00    -0.170 NA
ATOM      4  C   UNL     1      34.100 -21.501 -18.693  0.00  0.00    -0.000 C 
ATOM      5  C   UNL     1      35.380 -21.123 -19.087  0.00  0.00    +0.004 C 
ATOM      6  C   UNL     1      35.553 -20.288 -20.205  0.00  0.00    +0.050 C 
ATOM      7  C   UNL     1      35.867 -18.695 -22.342  0.00  0.00    +0.145 C 
ATOM      8  C   UNL     1      32.999 -21.047 -19.411  0.00  0.00    +0.003 C 
ATOM      9  C   UNL     1      34.449 -19.824 -20.938  0.00  0.00    +0.146 C 
ATOM     10  C   UNL     1      33.180 -20.218 -20.521  0.00  0.00    +0.033 C 
ATOM     11  C   UNL     1      36.804 -19.874 -20.651  0.00  0.00    +0.114 C 
ATOM     12  H   UNL     1      36.932 -17.614 -23.711  0.00  0.00    +0.159 HD
ENDROOT
BRANCH   4  16
ATOM     13  C   UNL     1      32.425 -23.571 -16.080  0.00  0.00    +0.053 C 
ATOM     14  C   UNL     1      32.625 -22.743 -17.184  0.00  0.00    +0.004 C 
ATOM     15  C   UNL     1      33.516 -24.017 -15.336  0.00  0.00    +0.004 C 
ATOM     16  C   UNL     1      33.917 -22.360 -17.544  0.00  0.00    -0.004 C 
ATOM     17  C   UNL     1      35.009 -22.806 -16.798  0.00  0.00    -0.022 C 
ATOM     18  C   UNL     1      34.809 -23.635 -15.694  0.00  0.00    -0.004 C 
ATOM     19  C   UNL     1      36.409 -22.417 -17.153  0.00  0.00    +0.031 C 
BRANCH  13  22
ATOM     20  O   UNL     1      30.893 -24.851 -14.845  0.00  0.00    -0.270 OA
ATOM     21  N   UNL     1      30.018 -23.338 -16.366  0.00  0.00    -0.302 N 
ATOM     22  C   UNL     1      31.077 -23.971 -15.705  0.00  0.00    +0.246 C 
ATOM     23  H   UNL     1      30.230 -22.649 -17.037  0.00  0.00    +0.150 HD
BRANCH  21  24
ATOM     24  C   UNL     1      28.636 -23.644 -16.116  0.00  0.00    +0.072 C 
ATOM     25  C   UNL     1      27.748 -22.682 -15.382  0.00  0.00    +0.021 C 
ATOM     26  C   UNL     1      27.539 -22.930 -16.847  0.00  0.00    +0.021 C 
ENDBRANCH  21  24
ENDBRANCH  13  22
ENDBRANCH   4  16
BRANCH   1  27
ATOM     27  C   UNL     1      34.915 -17.371 -24.229  0.00  0.00    +0.075 C 
BRANCH  27  28
ATOM     28  C   UNL     1      34.930 -15.847 -24.220  0.00  0.00    -0.055 C 
BRANCH  28  30
ATOM     29  O   UNL     1      33.243 -13.527 -21.156  0.00  0.00    -0.358 OA
ATOM     30  N   UNL     1      33.993 -15.336 -23.222  0.00  0.00    +0.391 N 
ATOM     31  C   UNL     1      33.627 -13.943 -23.516  0.00  0.00    -0.045 C 
ATOM     32  C   UNL     1      34.564 -15.433 -21.871  0.00  0.00    -0.045 C 
ATOM     33  C   UNL     1      32.658 -13.428 -22.456  0.00  0.00    +0.119 C 
ATOM     34  C   UNL     1      33.572 -14.883 -20.850  0.00  0.00    +0.119 C 
ATOM     35  H   UNL     1      33.150 -15.910 -23.263  0.00  0.00    -0.079 HD
ENDBRANCH  28  30
ENDBRANCH  27  28
ENDBRANCH   1  27
TORSDOF 6
ENDMDL
MODEL 7
REMARK VINA RESULT:     -10.0      3.971      7.831
REMARK  Name = 24963046
REMARK  6 active torsions:
REMARK  status: ('A' for Active; 'I' for Inactive)
REMARK    1  A    between atoms: N_1  and  C_27
REMARK    2  A    between atoms: C_4  and  C_16
REMARK    3  A    between atoms: C_13  and  C_22
REMARK    4  A    between atoms: N_21  and  C_24
REMARK    5  A    between atoms: C_27  and  C_28
REMARK    6  A    between atoms: C_28  and  N_30
REMARK                            x       y       z     vdW  Elec       q    Type
REMARK                         _______ _______ _______ _____ _____    ______ ____
ROOT
ATOM      1  N   UNL     1      35.463 -18.394 -23.002  0.00  0.00    -0.270 N 
ATOM      2  N   UNL     1      34.737 -16.466 -21.926  0.00  0.00    -0.338 NA
ATOM      3  N   UNL     1      34.840 -16.597 -24.330  0.00  0.00    -0.170 NA
ATOM      4  C   UNL     1      33.322 -12.552 -22.150  0.00  0.00    -0.000 C 
ATOM      5  C   UNL     1      33.603 -13.254 -23.318  0.00  0.00    +0.004 C 
ATOM      6  C   UNL     1      34.081 -14.575 -23.246  0.00  0.00    +0.050 C 
ATOM      7  C   UNL     1      34.993 -17.094 -23.092  0.00  0.00    +0.145 C 
ATOM      8  C   UNL     1      33.515 -13.165 -20.917  0.00  0.00    +0.003 C 
ATOM      9  C   UNL     1      34.281 -15.204 -22.006  0.00  0.00    +0.146 C 
ATOM     10  C   UNL     1      33.990 -14.478 -20.855  0.00  0.00    +0.033 C 
ATOM     11  C   UNL     1      34.381 -15.331 -24.375  0.00  0.00    +0.114 C 
ATOM     12  H   UNL     1      35.657 -18.877 -23.838  0.00  0.00    +0.159 HD
ENDROOT
BRANCH   4  16
ATOM     13  C   UNL     1      33.127  -8.920 -22.984  0.00  0.00    +0.053 C 
ATOM     14  C   UNL     1      33.581 -10.237 -22.904  0.00  0.00    +0.004 C 
ATOM     15  C   UNL     1      31.922  -8.560 -22.381  0.00  0.00    +0.004 C 
ATOM     16  C   UNL     1      32.831 -11.193 -22.220  0.00  0.00    -0.004 C 
ATOM     17  C   UNL     1      31.625 -10.832 -21.616  0.00  0.00    -0.022 C 
ATOM     18  C   UNL     1      31.171  -9.516 -21.697  0.00  0.00    -0.004 C 
ATOM     19  C   UNL     1      30.793 -11.830 -20.874  0.00  0.00    +0.031 C 
BRANCH  13  22
ATOM     20  O   UNL     1      35.068  -8.174 -24.071  0.00  0.00    -0.270 OA
ATOM     21  N   UNL     1      33.305  -6.679 -23.919  0.00  0.00    -0.302 N 
ATOM     22  C   UNL     1      33.909  -7.923 -23.697  0.00  0.00    +0.246 C 
ATOM     23  H   UNL     1      32.383  -6.543 -23.598  0.00  0.00    +0.150 HD
BRANCH  21  24
ATOM     24  C   UNL     1      33.961  -5.591 -24.590  0.00  0.00    +0.072 C 
ATOM     25  C   UNL     1      33.937  -5.473 -26.085  0.00  0.00    +0.021 C 
ATOM     26  C   UNL     1      33.174  -4.494 -25.242  0.00  0.00    +0.021 C 
ENDBRANCH  21  24
ENDBRANCH  13  22
ENDBRANCH   4  16
BRANCH   1  27
ATOM     27  C   UNL     1      35.683 -19.082 -21.752  0.00  0.00    +0.075 C 
BRANCH  27  28
ATOM     28  C   UNL     1      34.395 -19.762 -21.307  0.00  0.00    -0.055 C 
BRANCH  28  30
ATOM     29  O   UNL     1      34.994 -22.682 -18.352  0.00  0.00    -0.358 OA
ATOM     30  N   UNL     1      34.581 -20.403 -20.007  0.00  0.00    +0.391 N 
ATOM     31  C   UNL     1      35.885 -21.078 -19.940  0.00  0.00    -0.045 C 
ATOM     32  C   UNL     1      33.502 -21.364 -19.739  0.00  0.00    -0.045 C 
ATOM     33  C   UNL     1      36.051 -21.749 -18.580  0.00  0.00    +0.119 C 
ATOM     34  C   UNL     1      33.724 -22.027 -18.383  0.00  0.00    +0.119 C 
ATOM     35  H   UNL     1      34.554 -19.674 -19.294  0.00  0.00    -0.079 HD
ENDBRANCH  28  30
ENDBRANCH  27  28
ENDBRANCH   1  27
TORSDOF 6
ENDMDL
MODEL 8
REMARK VINA RESULT:      -9.9      3.275      5.134
REMARK  Name = 24963046
REMARK  6 active torsions:
REMARK  status: ('A' for Active; 'I' for Inactive)
REMARK    1  A    between atoms: N_1  and  C_27
REMARK    2  A    between atoms: C_4  and  C_16
REMARK    3  A    between atoms: C_13  and  C_22
REMARK    4  A    between atoms: N_21  and  C_24
REMARK    5  A    between atoms: C_27  and  C_28
REMARK    6  A    between atoms: C_28  and  N_30
REMARK                            x       y       z     vdW  Elec       q    Type
REMARK                         _______ _______ _______ _____ _____    ______ ____
ROOT
ATOM      1  N   UNL     1      35.683 -20.797 -20.763  0.00  0.00    -0.270 N 
ATOM      2  N   UNL     1      35.202 -18.524 -20.851  0.00  0.00    -0.338 NA
ATOM      3  N   UNL     1      35.366 -19.850 -22.857  0.00  0.00    -0.170 NA
ATOM      4  C   UNL     1      34.364 -15.121 -23.107  0.00  0.00    -0.000 C 
ATOM      5  C   UNL     1      34.582 -16.339 -23.745  0.00  0.00    +0.004 C 
ATOM      6  C   UNL     1      34.865 -17.489 -22.987  0.00  0.00    +0.050 C 
ATOM      7  C   UNL     1      35.405 -19.674 -21.526  0.00  0.00    +0.145 C 
ATOM      8  C   UNL     1      34.427 -15.053 -21.719  0.00  0.00    +0.003 C 
ATOM      9  C   UNL     1      34.932 -17.431 -21.585  0.00  0.00    +0.146 C 
ATOM     10  C   UNL     1      34.709 -16.201 -20.973  0.00  0.00    +0.033 C 
ATOM     11  C   UNL     1      35.093 -18.735 -23.562  0.00  0.00    +0.114 C 
ATOM     12  H   UNL     1      35.834 -21.650 -21.231  0.00  0.00    +0.159 HD
ENDROOT
BRANCH   4  16
ATOM     13  C   UNL     1      33.796 -11.538 -23.975  0.00  0.00    +0.053 C 
ATOM     14  C   UNL     1      34.073 -12.695 -23.247  0.00  0.00    +0.004 C 
ATOM     15  C   UNL     1      33.519 -11.622 -25.339  0.00  0.00    +0.004 C 
ATOM     16  C   UNL     1      34.073 -13.936 -23.882  0.00  0.00    -0.004 C 
ATOM     17  C   UNL     1      33.796 -14.020 -25.248  0.00  0.00    -0.022 C 
ATOM     18  C   UNL     1      33.519 -12.863 -25.976  0.00  0.00    -0.004 C 
ATOM     19  C   UNL     1      33.787 -15.333 -25.964  0.00  0.00    +0.031 C 
BRANCH  13  22
ATOM     20  O   UNL     1      32.964  -9.986 -22.423  0.00  0.00    -0.270 OA
ATOM     21  N   UNL     1      34.751  -9.311 -23.735  0.00  0.00    -0.302 N 
ATOM     22  C   UNL     1      33.795 -10.243 -23.312  0.00  0.00    +0.246 C 
ATOM     23  H   UNL     1      35.381  -9.576 -24.444  0.00  0.00    +0.150 HD
BRANCH  21  24
ATOM     24  C   UNL     1      34.858  -7.986 -23.188  0.00  0.00    +0.072 C 
ATOM     25  C   UNL     1      35.195  -6.811 -24.058  0.00  0.00    +0.021 C 
ATOM     26  C   UNL     1      33.819  -6.943 -23.473  0.00  0.00    +0.021 C 
ENDBRANCH  21  24
ENDBRANCH  13  22
ENDBRANCH   4  16
BRANCH   1  27
ATOM     27  C   UNL     1      35.761 -20.787 -19.322  0.00  0.00    +0.075 C 
BRANCH  27  28
ATOM     28  C   UNL     1      35.012 -21.988 -18.760  0.00  0.00    -0.055 C 
BRANCH  28  30
ATOM     29  O   UNL     1      36.826 -22.615 -15.027  0.00  0.00    -0.358 OA
ATOM     30  N   UNL     1      35.773 -22.599 -17.672  0.00  0.00    +0.391 N 
ATOM     31  C   UNL     1      34.912 -22.837 -16.504  0.00  0.00    -0.045 C 
ATOM     32  C   UNL     1      36.913 -21.753 -17.293  0.00  0.00    -0.045 C 
ATOM     33  C   UNL     1      35.730 -23.463 -15.378  0.00  0.00    +0.119 C 
ATOM     34  C   UNL     1      37.684 -22.406 -16.149  0.00  0.00    +0.119 C 
ATOM     35  H   UNL     1      36.127 -23.496 -18.004  0.00  0.00    -0.079 HD
ENDBRANCH  28  30
ENDBRANCH  27  28
ENDBRANCH   1  27
TORSDOF 6
ENDMDL
MODEL 9
REMARK VINA RESULT:      -9.8      5.467     10.515
REMARK  Name = 24963046
REMARK  6 active torsions:
REMARK  status: ('A' for Active; 'I' for Inactive)
REMARK    1  A    between atoms: N_1  and  C_27
REMARK    2  A    between atoms: C_4  and  C_16
REMARK    3  A    between atoms: C_13  and  C_22
REMARK    4  A    between atoms: N_21  and  C_24
REMARK    5  A    between atoms: C_27  and  C_28
REMARK    6  A    between atoms: C_28  and  N_30
REMARK                            x       y       z     vdW  Elec       q    Type
REMARK                         _______ _______ _______ _____ _____    ______ ____
ROOT
ATOM      1  N   UNL     1      33.906 -15.704 -22.749  0.00  0.00    -0.270 N 
ATOM      2  N   UNL     1      34.163 -13.474 -23.350  0.00  0.00    -0.338 NA
ATOM      3  N   UNL     1      32.609 -14.139 -21.632  0.00  0.00    -0.170 NA
ATOM      4  C   UNL     1      33.096  -9.477 -22.838  0.00  0.00    -0.000 C 
ATOM      5  C   UNL     1      32.492 -10.460 -22.060  0.00  0.00    +0.004 C 
ATOM      6  C   UNL     1      32.849 -11.810 -22.231  0.00  0.00    +0.050 C 
ATOM      7  C   UNL     1      33.542 -14.380 -22.568  0.00  0.00    +0.145 C 
ATOM      8  C   UNL     1      34.054  -9.839 -23.780  0.00  0.00    +0.003 C 
ATOM      9  C   UNL     1      33.814 -12.187 -23.179  0.00  0.00    +0.146 C 
ATOM     10  C   UNL     1      34.403 -11.183 -23.942  0.00  0.00    +0.033 C 
ATOM     11  C   UNL     1      32.283 -12.840 -21.486  0.00  0.00    +0.114 C 
ATOM     12  H   UNL     1      33.468 -16.387 -22.190  0.00  0.00    +0.159 HD
ENDROOT
BRANCH   4  16
ATOM     13  C   UNL     1      32.536  -5.868 -23.600  0.00  0.00    +0.053 C 
ATOM     14  C   UNL     1      32.881  -7.212 -23.741  0.00  0.00    +0.004 C 
ATOM     15  C   UNL     1      32.039  -5.401 -22.383  0.00  0.00    +0.004 C 
ATOM     16  C   UNL     1      32.732  -8.088 -22.667  0.00  0.00    -0.004 C 
ATOM     17  C   UNL     1      32.235  -7.620 -21.450  0.00  0.00    -0.022 C 
ATOM     18  C   UNL     1      31.888  -6.276 -21.308  0.00  0.00    -0.004 C 
ATOM     19  C   UNL     1      32.060  -8.529 -20.275  0.00  0.00    +0.031 C 
BRANCH  13  22
ATOM     20  O   UNL     1      31.989  -3.932 -24.807  0.00  0.00    -0.270 OA
ATOM     21  N   UNL     1      33.644  -5.292 -25.690  0.00  0.00    -0.302 N 
ATOM     22  C   UNL     1      32.692  -4.954 -24.720  0.00  0.00    +0.246 C 
ATOM     23  H   UNL     1      34.169  -6.116 -25.563  0.00  0.00    +0.150 HD
BRANCH  21  24
ATOM     24  C   UNL     1      33.894  -4.497 -26.861  0.00  0.00    +0.072 C 
ATOM     25  C   UNL     1      34.784  -3.291 -26.806  0.00  0.00    +0.021 C 
ATOM     26  C   UNL     1      35.229  -4.520 -27.543  0.00  0.00    +0.021 C 
ENDBRANCH  21  24
ENDBRANCH  13  22
ENDBRANCH   4  16
BRANCH   1  27
ATOM     27  C   UNL     1      34.891 -16.140 -23.710  0.00  0.00    +0.075 C 
BRANCH  27  28
ATOM     28  C   UNL     1      34.973 -17.662 -23.706  0.00  0.00    -0.055 C 
BRANCH  28  30
ATOM     29  O   UNL     1      36.286 -20.081 -20.538  0.00  0.00    -0.358 OA
ATOM     30  N   UNL     1      35.252 -18.153 -22.358  0.00  0.00    +0.391 N 
ATOM     31  C   UNL     1      36.698 -18.316 -22.152  0.00  0.00    -0.045 C 
ATOM     32  C   UNL     1      34.560 -19.425 -22.112  0.00  0.00    -0.045 C 
ATOM     33  C   UNL     1      36.964 -18.841 -20.744  0.00  0.00    +0.119 C 
ATOM     34  C   UNL     1      34.876 -19.922 -20.705  0.00  0.00    +0.119 C 
ATOM     35  H   UNL     1      34.905 -17.459 -21.695  0.00  0.00    -0.079 HD
ENDBRANCH  28  30
ENDBRANCH  27  28
ENDBRANCH   1  27
TORSDOF 6
ENDMDL
