MODEL 1
REMARK VINA RESULT:     -11.4      0.000      0.000
REMARK  Name = 5243
REMARK  7 active torsions:
REMARK  status: ('A' for Active; 'I' for Inactive)
REMARK    1  A    between atoms: C_1  and  C_3
REMARK    2  A    between atoms: C_1  and  C_8
REMARK    3  A    between atoms: C_1  and  C_19
REMARK    4  A    between atoms: C_13  and  O_14
REMARK    5  A    between atoms: O_14  and  S_15
REMARK    6  A    between atoms: C_24  and  O_25
REMARK    7  A    between atoms: O_25  and  S_26
REMARK                            x       y       z     vdW  Elec       q    Type
REMARK                         _______ _______ _______ _____ _____    ______ ____
ROOT
ATOM      1  C   UNL     1      34.895 -23.128 -15.273  0.00  0.00    +0.085 C 
ENDROOT
BRANCH   1   3
ATOM      2  N   UNL     1      33.519 -24.541 -13.869  0.00  0.00    -0.248 NA
ATOM      3  C   UNL     1      33.503 -23.665 -14.868  0.00  0.00    +0.067 C 
ATOM      4  C   UNL     1      32.428 -23.199 -15.558  0.00  0.00    +0.015 C 
ATOM      5  C   UNL     1      31.190 -23.701 -15.169  0.00  0.00    +0.003 C 
ATOM      6  C   UNL     1      32.299 -25.008 -13.520  0.00  0.00    +0.098 C 
ATOM      7  C   UNL     1      31.116 -24.623 -14.131  0.00  0.00    +0.021 C 
ENDBRANCH   1   3
BRANCH   1   8
ATOM      8  C   UNL     1      35.020 -22.661 -16.684  0.00  0.00    -0.013 C 
ATOM      9  C   UNL     1      33.956 -22.826 -17.571  0.00  0.00    -0.000 C 
ATOM     10  C   UNL     1      36.202 -22.060 -17.116  0.00  0.00    -0.000 C 
ATOM     11  C   UNL     1      34.075 -22.390 -18.890  0.00  0.00    +0.040 C 
ATOM     12  C   UNL     1      36.320 -21.623 -18.436  0.00  0.00    +0.040 C 
ATOM     13  C   UNL     1      35.256 -21.788 -19.323  0.00  0.00    +0.176 C 
BRANCH  13  14
ATOM     14  O   UNL     1      35.371 -21.363 -20.610  0.00  0.00    -0.322 OA
BRANCH  14  15
ATOM     15  S   UNL     1      34.998 -19.802 -20.970  0.00  0.00    +0.282 S 
ATOM     16  O   UNL     1      34.937 -19.781 -22.601  0.00  0.00    -0.105 OA
ATOM     17  O   UNL     1      33.668 -19.507 -20.470  0.00  0.00    -0.012 OA
ATOM     18  O   UNL     1      36.123 -18.977 -20.568  0.00  0.00    -0.105 OA
ENDBRANCH  14  15
ENDBRANCH  13  14
ENDBRANCH   1   8
BRANCH   1  19
ATOM     19  C   UNL     1      36.045 -24.029 -14.765  0.00  0.00    -0.013 C 
ATOM     20  C   UNL     1      36.936 -23.491 -13.876  0.00  0.00    -0.000 C 
ATOM     21  C   UNL     1      36.109 -25.313 -15.231  0.00  0.00    -0.000 C 
ATOM     22  C   UNL     1      37.974 -24.303 -13.418  0.00  0.00    +0.040 C 
ATOM     23  C   UNL     1      37.147 -26.125 -14.773  0.00  0.00    +0.040 C 
ATOM     24  C   UNL     1      38.080 -25.620 -13.866  0.00  0.00    +0.176 C 
BRANCH  24  25
ATOM     25  O   UNL     1      39.093 -26.411 -13.419  0.00  0.00    -0.322 OA
BRANCH  25  26
ATOM     26  S   UNL     1      40.627 -26.103 -13.927  0.00  0.00    +0.282 S 
ATOM     27  O   UNL     1      40.528 -26.203 -15.553  0.00  0.00    -0.105 OA
ATOM     28  O   UNL     1      40.972 -24.736 -13.583  0.00  0.00    -0.012 OA
ATOM     29  O   UNL     1      41.467 -27.197 -13.475  0.00  0.00    -0.105 OA
ENDBRANCH  25  26
ENDBRANCH  24  25
ENDBRANCH   1  19
TORSDOF 7
ENDMDL
MODEL 2
REMARK VINA RESULT:     -11.3      2.049      7.506
REMARK  Name = 5243
REMARK  7 active torsions:
REMARK  status: ('A' for Active; 'I' for Inactive)
REMARK    1  A    between atoms: C_1  and  C_3
REMARK    2  A    between atoms: C_1  and  C_8
REMARK    3  A    between atoms: C_1  and  C_19
REMARK    4  A    between atoms: C_13  and  O_14
REMARK    5  A    between atoms: O_14  and  S_15
REMARK    6  A    between atoms: C_24  and  O_25
REMARK    7  A    between atoms: O_25  and  S_26
REMARK                            x       y       z     vdW  Elec       q    Type
REMARK                         _______ _______ _______ _____ _____    ______ ____
ROOT
ATOM      1  C   UNL     1      33.844 -23.370 -16.839  0.00  0.00    +0.085 C 
ENDROOT
BRANCH   1   3
ATOM      2  N   UNL     1      31.432 -23.204 -16.956  0.00  0.00    -0.248 NA
ATOM      3  C   UNL     1      32.484 -23.122 -16.149  0.00  0.00    +0.067 C 
ATOM      4  C   UNL     1      32.499 -22.849 -14.816  0.00  0.00    +0.015 C 
ATOM      5  C   UNL     1      31.259 -22.631 -14.225  0.00  0.00    +0.003 C 
ATOM      6  C   UNL     1      30.245 -22.985 -16.348  0.00  0.00    +0.098 C 
ATOM      7  C   UNL     1      30.106 -22.698 -14.999  0.00  0.00    +0.021 C 
ENDBRANCH   1   3
BRANCH   1   8
ATOM      8  C   UNL     1      35.010 -23.540 -15.924  0.00  0.00    -0.013 C 
ATOM      9  C   UNL     1      35.878 -22.473 -15.694  0.00  0.00    -0.000 C 
ATOM     10  C   UNL     1      35.232 -24.767 -15.299  0.00  0.00    -0.000 C 
ATOM     11  C   UNL     1      36.968 -22.633 -14.840  0.00  0.00    +0.040 C 
ATOM     12  C   UNL     1      36.323 -24.927 -14.443  0.00  0.00    +0.040 C 
ATOM     13  C   UNL     1      37.191 -23.859 -14.214  0.00  0.00    +0.176 C 
BRANCH  13  14
ATOM     14  O   UNL     1      38.255 -24.014 -13.381  0.00  0.00    -0.322 OA
BRANCH  14  15
ATOM     15  S   UNL     1      38.006 -23.980 -11.755  0.00  0.00    +0.282 S 
ATOM     16  O   UNL     1      36.608 -23.153 -11.592  0.00  0.00    -0.105 OA
ATOM     17  O   UNL     1      37.782 -25.334 -11.284  0.00  0.00    -0.012 OA
ATOM     18  O   UNL     1      39.058 -23.172 -11.166  0.00  0.00    -0.105 OA
ENDBRANCH  14  15
ENDBRANCH  13  14
ENDBRANCH   1   8
BRANCH   1  19
ATOM     19  C   UNL     1      34.074 -22.429 -18.044  0.00  0.00    -0.013 C 
ATOM     20  C   UNL     1      35.344 -22.326 -18.545  0.00  0.00    -0.000 C 
ATOM     21  C   UNL     1      32.997 -21.750 -18.545  0.00  0.00    -0.000 C 
ATOM     22  C   UNL     1      35.552 -21.477 -19.631  0.00  0.00    +0.040 C 
ATOM     23  C   UNL     1      33.205 -20.901 -19.632  0.00  0.00    +0.040 C 
ATOM     24  C   UNL     1      34.483 -20.764 -20.175  0.00  0.00    +0.176 C 
BRANCH  24  25
ATOM     25  O   UNL     1      34.687 -19.935 -21.235  0.00  0.00    -0.322 OA
BRANCH  25  26
ATOM     26  S   UNL     1      35.805 -18.736 -21.106  0.00  0.00    +0.282 S 
ATOM     27  O   UNL     1      36.366 -18.560 -22.628  0.00  0.00    -0.105 OA
ATOM     28  O   UNL     1      35.136 -17.505 -20.731  0.00  0.00    -0.012 OA
ATOM     29  O   UNL     1      36.899 -19.241 -20.296  0.00  0.00    -0.105 OA
ENDBRANCH  25  26
ENDBRANCH  24  25
ENDBRANCH   1  19
TORSDOF 7
ENDMDL
MODEL 3
REMARK VINA RESULT:     -11.0      1.509      7.511
REMARK  Name = 5243
REMARK  7 active torsions:
REMARK  status: ('A' for Active; 'I' for Inactive)
REMARK    1  A    between atoms: C_1  and  C_3
REMARK    2  A    between atoms: C_1  and  C_8
REMARK    3  A    between atoms: C_1  and  C_19
REMARK    4  A    between atoms: C_13  and  O_14
REMARK    5  A    between atoms: O_14  and  S_15
REMARK    6  A    between atoms: C_24  and  O_25
REMARK    7  A    between atoms: O_25  and  S_26
REMARK                            x       y       z     vdW  Elec       q    Type
REMARK                         _______ _______ _______ _____ _____    ______ ____
ROOT
ATOM      1  C   UNL     1      33.957 -23.317 -16.964  0.00  0.00    +0.085 C 
ENDROOT
BRANCH   1   3
ATOM      2  N   UNL     1      31.541 -23.166 -16.954  0.00  0.00    -0.248 NA
ATOM      3  C   UNL     1      32.633 -23.081 -16.202  0.00  0.00    +0.067 C 
ATOM      4  C   UNL     1      32.716 -22.816 -14.871  0.00  0.00    +0.015 C 
ATOM      5  C   UNL     1      31.508 -22.608 -14.215  0.00  0.00    +0.003 C 
ATOM      6  C   UNL     1      30.386 -22.958 -16.283  0.00  0.00    +0.098 C 
ATOM      7  C   UNL     1      30.316 -22.679 -14.927  0.00  0.00    +0.021 C 
ENDBRANCH   1   3
BRANCH   1   8
ATOM      8  C   UNL     1      35.166 -23.508 -16.112  0.00  0.00    -0.013 C 
ATOM      9  C   UNL     1      36.176 -22.547 -16.109  0.00  0.00    -0.000 C 
ATOM     10  C   UNL     1      35.286 -24.649 -15.319  0.00  0.00    -0.000 C 
ATOM     11  C   UNL     1      37.307 -22.727 -15.313  0.00  0.00    +0.040 C 
ATOM     12  C   UNL     1      36.417 -24.829 -14.522  0.00  0.00    +0.040 C 
ATOM     13  C   UNL     1      37.428 -23.867 -14.519  0.00  0.00    +0.176 C 
BRANCH  13  14
ATOM     14  O   UNL     1      38.531 -24.042 -13.743  0.00  0.00    -0.322 OA
BRANCH  14  15
ATOM     15  S   UNL     1      39.332 -25.477 -13.808  0.00  0.00    +0.282 S 
ATOM     16  O   UNL     1      40.905 -25.052 -13.708  0.00  0.00    -0.105 OA
ATOM     17  O   UNL     1      39.004 -26.255 -12.628  0.00  0.00    -0.012 OA
ATOM     18  O   UNL     1      39.119 -26.040 -15.129  0.00  0.00    -0.105 OA
ENDBRANCH  14  15
ENDBRANCH  13  14
ENDBRANCH   1   8
BRANCH   1  19
ATOM     19  C   UNL     1      34.129 -22.351 -18.159  0.00  0.00    -0.013 C 
ATOM     20  C   UNL     1      35.383 -22.200 -18.687  0.00  0.00    -0.000 C 
ATOM     21  C   UNL     1      33.020 -21.698 -18.624  0.00  0.00    -0.000 C 
ATOM     22  C   UNL     1      35.540 -21.328 -19.764  0.00  0.00    +0.040 C 
ATOM     23  C   UNL     1      33.177 -20.826 -19.701  0.00  0.00    +0.040 C 
ATOM     24  C   UNL     1      34.436 -20.641 -20.272  0.00  0.00    +0.176 C 
BRANCH  24  25
ATOM     25  O   UNL     1      34.590 -19.790 -21.323  0.00  0.00    -0.322 OA
BRANCH  25  26
ATOM     26  S   UNL     1      35.825 -18.704 -21.295  0.00  0.00    +0.282 S 
ATOM     27  O   UNL     1      35.136 -17.345 -20.712  0.00  0.00    -0.105 OA
ATOM     28  O   UNL     1      36.821 -19.147 -20.337  0.00  0.00    -0.012 OA
ATOM     29  O   UNL     1      36.210 -18.441 -22.669  0.00  0.00    -0.105 OA
ENDBRANCH  25  26
ENDBRANCH  24  25
ENDBRANCH   1  19
TORSDOF 7
ENDMDL
MODEL 4
REMARK VINA RESULT:     -10.7      4.055      6.984
REMARK  Name = 5243
REMARK  7 active torsions:
REMARK  status: ('A' for Active; 'I' for Inactive)
REMARK    1  A    between atoms: C_1  and  C_3
REMARK    2  A    between atoms: C_1  and  C_8
REMARK    3  A    between atoms: C_1  and  C_19
REMARK    4  A    between atoms: C_13  and  O_14
REMARK    5  A    between atoms: O_14  and  S_15
REMARK    6  A    between atoms: C_24  and  O_25
REMARK    7  A    between atoms: O_25  and  S_26
REMARK                            x       y       z     vdW  Elec       q    Type
REMARK                         _______ _______ _______ _____ _____    ______ ____
ROOT
ATOM      1  C   UNL     1      34.762 -22.926 -15.363  0.00  0.00    +0.085 C 
ENDROOT
BRANCH   1   3
ATOM      2  N   UNL     1      36.397 -23.654 -13.733  0.00  0.00    -0.248 NA
ATOM      3  C   UNL     1      35.667 -24.033 -14.777  0.00  0.00    +0.067 C 
ATOM      4  C   UNL     1      35.628 -25.255 -15.374  0.00  0.00    +0.015 C 
ATOM      5  C   UNL     1      36.454 -26.228 -14.823  0.00  0.00    +0.003 C 
ATOM      6  C   UNL     1      37.188 -24.626 -13.225  0.00  0.00    +0.098 C 
ATOM      7  C   UNL     1      37.252 -25.916 -13.728  0.00  0.00    +0.021 C 
ENDBRANCH   1   3
BRANCH   1   8
ATOM      8  C   UNL     1      33.295 -23.185 -15.285  0.00  0.00    -0.013 C 
ATOM      9  C   UNL     1      32.640 -23.130 -14.055  0.00  0.00    -0.000 C 
ATOM     10  C   UNL     1      32.578 -23.483 -16.445  0.00  0.00    -0.000 C 
ATOM     11  C   UNL     1      31.269 -23.373 -13.983  0.00  0.00    +0.040 C 
ATOM     12  C   UNL     1      31.205 -23.726 -16.373  0.00  0.00    +0.040 C 
ATOM     13  C   UNL     1      30.551 -23.671 -15.142  0.00  0.00    +0.176 C 
BRANCH  13  14
ATOM     14  O   UNL     1      29.213 -23.908 -15.071  0.00  0.00    -0.322 OA
BRANCH  14  15
ATOM     15  S   UNL     1      28.222 -23.222 -16.190  0.00  0.00    +0.282 S 
ATOM     16  O   UNL     1      26.907 -22.782 -15.329  0.00  0.00    -0.105 OA
ATOM     17  O   UNL     1      28.848 -22.015 -16.697  0.00  0.00    -0.012 OA
ATOM     18  O   UNL     1      27.809 -24.266 -17.110  0.00  0.00    -0.105 OA
ENDBRANCH  14  15
ENDBRANCH  13  14
ENDBRANCH   1   8
BRANCH   1  19
ATOM     19  C   UNL     1      35.275 -22.404 -16.724  0.00  0.00    -0.013 C 
ATOM     20  C   UNL     1      34.406 -22.405 -17.782  0.00  0.00    -0.000 C 
ATOM     21  C   UNL     1      36.570 -21.969 -16.799  0.00  0.00    -0.000 C 
ATOM     22  C   UNL     1      34.869 -21.934 -19.010  0.00  0.00    +0.040 C 
ATOM     23  C   UNL     1      37.033 -21.498 -18.028  0.00  0.00    +0.040 C 
ATOM     24  C   UNL     1      36.182 -21.480 -19.134  0.00  0.00    +0.176 C 
BRANCH  24  25
ATOM     25  O   UNL     1      36.633 -21.022 -20.333  0.00  0.00    -0.322 OA
BRANCH  25  26
ATOM     26  S   UNL     1      36.548 -19.410 -20.653  0.00  0.00    +0.282 S 
ATOM     27  O   UNL     1      37.003 -19.299 -22.216  0.00  0.00    -0.105 OA
ATOM     28  O   UNL     1      35.164 -18.984 -20.559  0.00  0.00    -0.012 OA
ATOM     29  O   UNL     1      37.564 -18.749 -19.856  0.00  0.00    -0.105 OA
ENDBRANCH  25  26
ENDBRANCH  24  25
ENDBRANCH   1  19
TORSDOF 7
ENDMDL
MODEL 5
REMARK VINA RESULT:     -10.4      4.235      5.854
REMARK  Name = 5243
REMARK  7 active torsions:
REMARK  status: ('A' for Active; 'I' for Inactive)
REMARK    1  A    between atoms: C_1  and  C_3
REMARK    2  A    between atoms: C_1  and  C_8
REMARK    3  A    between atoms: C_1  and  C_19
REMARK    4  A    between atoms: C_13  and  O_14
REMARK    5  A    between atoms: O_14  and  S_15
REMARK    6  A    between atoms: C_24  and  O_25
REMARK    7  A    between atoms: O_25  and  S_26
REMARK                            x       y       z     vdW  Elec       q    Type
REMARK                         _______ _______ _______ _____ _____    ______ ____
ROOT
ATOM      1  C   UNL     1      34.058 -23.309 -16.895  0.00  0.00    +0.085 C 
ENDROOT
BRANCH   1   3
ATOM      2  N   UNL     1      35.793 -22.248 -18.208  0.00  0.00    -0.248 NA
ATOM      3  C   UNL     1      34.479 -22.380 -18.056  0.00  0.00    +0.067 C 
ATOM      4  C   UNL     1      33.488 -21.804 -18.788  0.00  0.00    +0.015 C 
ATOM      5  C   UNL     1      33.900 -20.973 -19.824  0.00  0.00    +0.003 C 
ATOM      6  C   UNL     1      36.156 -21.433 -19.224  0.00  0.00    +0.098 C 
ATOM      7  C   UNL     1      35.258 -20.779 -20.053  0.00  0.00    +0.021 C 
ENDBRANCH   1   3
BRANCH   1   8
ATOM      8  C   UNL     1      32.711 -23.043 -16.313  0.00  0.00    -0.013 C 
ATOM      9  C   UNL     1      32.528 -23.087 -14.931  0.00  0.00    -0.000 C 
ATOM     10  C   UNL     1      31.635 -22.751 -17.151  0.00  0.00    -0.000 C 
ATOM     11  C   UNL     1      31.268 -22.838 -14.388  0.00  0.00    +0.040 C 
ATOM     12  C   UNL     1      30.374 -22.502 -16.607  0.00  0.00    +0.040 C 
ATOM     13  C   UNL     1      30.191 -22.546 -15.225  0.00  0.00    +0.176 C 
BRANCH  13  14
ATOM     14  O   UNL     1      28.962 -22.305 -14.693  0.00  0.00    -0.322 OA
BRANCH  14  15
ATOM     15  S   UNL     1      27.625 -22.693 -15.569  0.00  0.00    +0.282 S 
ATOM     16  O   UNL     1      27.637 -21.618 -16.798  0.00  0.00    -0.105 OA
ATOM     17  O   UNL     1      27.799 -24.018 -16.133  0.00  0.00    -0.012 OA
ATOM     18  O   UNL     1      26.463 -22.400 -14.749  0.00  0.00    -0.105 OA
ENDBRANCH  14  15
ENDBRANCH  13  14
ENDBRANCH   1   8
BRANCH   1  19
ATOM     19  C   UNL     1      35.196 -23.527 -15.871  0.00  0.00    -0.013 C 
ATOM     20  C   UNL     1      35.315 -24.763 -15.296  0.00  0.00    -0.000 C 
ATOM     21  C   UNL     1      36.022 -22.472 -15.595  0.00  0.00    -0.000 C 
ATOM     22  C   UNL     1      36.341 -24.959 -14.371  0.00  0.00    +0.040 C 
ATOM     23  C   UNL     1      37.048 -22.668 -14.670  0.00  0.00    +0.040 C 
ATOM     24  C   UNL     1      37.208 -23.912 -14.058  0.00  0.00    +0.176 C 
BRANCH  24  25
ATOM     25  O   UNL     1      38.208 -24.104 -13.156  0.00  0.00    -0.322 OA
BRANCH  25  26
ATOM     26  S   UNL     1      37.929 -23.759 -11.572  0.00  0.00    +0.282 S 
ATOM     27  O   UNL     1      36.416 -23.149 -11.566  0.00  0.00    -0.105 OA
ATOM     28  O   UNL     1      37.914 -24.998 -10.816  0.00  0.00    -0.012 OA
ATOM     29  O   UNL     1      38.831 -22.689 -11.189  0.00  0.00    -0.105 OA
ENDBRANCH  25  26
ENDBRANCH  24  25
ENDBRANCH   1  19
TORSDOF 7
ENDMDL
MODEL 6
REMARK VINA RESULT:     -10.3      4.235      6.571
REMARK  Name = 5243
REMARK  7 active torsions:
REMARK  status: ('A' for Active; 'I' for Inactive)
REMARK    1  A    between atoms: C_1  and  C_3
REMARK    2  A    between atoms: C_1  and  C_8
REMARK    3  A    between atoms: C_1  and  C_19
REMARK    4  A    between atoms: C_13  and  O_14
REMARK    5  A    between atoms: O_14  and  S_15
REMARK    6  A    between atoms: C_24  and  O_25
REMARK    7  A    between atoms: O_25  and  S_26
REMARK                            x       y       z     vdW  Elec       q    Type
REMARK                         _______ _______ _______ _____ _____    ______ ____
ROOT
ATOM      1  C   UNL     1      34.283 -23.742 -16.303  0.00  0.00    +0.085 C 
ENDROOT
BRANCH   1   3
ATOM      2  N   UNL     1      35.614 -25.281 -14.992  0.00  0.00    -0.248 NA
ATOM      3  C   UNL     1      35.209 -24.020 -15.097  0.00  0.00    +0.067 C 
ATOM      4  C   UNL     1      35.509 -22.972 -14.284  0.00  0.00    +0.015 C 
ATOM      5  C   UNL     1      36.344 -23.256 -13.208  0.00  0.00    +0.003 C 
ATOM      6  C   UNL     1      36.422 -25.519 -13.935  0.00  0.00    +0.098 C 
ATOM      7  C   UNL     1      36.813 -24.551 -13.023  0.00  0.00    +0.021 C 
ENDBRANCH   1   3
BRANCH   1   8
ATOM      8  C   UNL     1      34.850 -22.855 -17.359  0.00  0.00    -0.013 C 
ATOM      9  C   UNL     1      34.135 -22.624 -18.534  0.00  0.00    -0.000 C 
ATOM     10  C   UNL     1      36.096 -22.257 -17.172  0.00  0.00    -0.000 C 
ATOM     11  C   UNL     1      34.666 -21.796 -19.522  0.00  0.00    +0.040 C 
ATOM     12  C   UNL     1      36.628 -21.427 -18.161  0.00  0.00    +0.040 C 
ATOM     13  C   UNL     1      35.912 -21.197 -19.336  0.00  0.00    +0.176 C 
BRANCH  13  14
ATOM     14  O   UNL     1      36.430 -20.389 -20.301  0.00  0.00    -0.322 OA
BRANCH  14  15
ATOM     15  S   UNL     1      35.470 -19.235 -20.973  0.00  0.00    +0.282 S 
ATOM     16  O   UNL     1      35.719 -19.407 -22.577  0.00  0.00    -0.105 OA
ATOM     17  O   UNL     1      34.082 -19.558 -20.699  0.00  0.00    -0.012 OA
ATOM     18  O   UNL     1      36.004 -17.941 -20.588  0.00  0.00    -0.105 OA
ENDBRANCH  14  15
ENDBRANCH  13  14
ENDBRANCH   1   8
BRANCH   1  19
ATOM     19  C   UNL     1      32.833 -23.421 -15.871  0.00  0.00    -0.013 C 
ATOM     20  C   UNL     1      32.448 -23.770 -14.605  0.00  0.00    -0.000 C 
ATOM     21  C   UNL     1      32.013 -22.808 -16.779  0.00  0.00    -0.000 C 
ATOM     22  C   UNL     1      31.140 -23.482 -14.216  0.00  0.00    +0.040 C 
ATOM     23  C   UNL     1      30.705 -22.520 -16.390  0.00  0.00    +0.040 C 
ATOM     24  C   UNL     1      30.268 -22.856 -15.108  0.00  0.00    +0.176 C 
BRANCH  24  25
ATOM     25  O   UNL     1      28.992 -22.576 -14.728  0.00  0.00    -0.322 OA
BRANCH  25  26
ATOM     26  S   UNL     1      27.773 -22.790 -15.811  0.00  0.00    +0.282 S 
ATOM     27  O   UNL     1      26.420 -22.617 -14.915  0.00  0.00    -0.105 OA
ATOM     28  O   UNL     1      27.808 -21.710 -16.780  0.00  0.00    -0.012 OA
ATOM     29  O   UNL     1      27.821 -24.168 -16.262  0.00  0.00    -0.105 OA
ENDBRANCH  25  26
ENDBRANCH  24  25
ENDBRANCH   1  19
TORSDOF 7
ENDMDL
MODEL 7
REMARK VINA RESULT:     -10.2      4.227      6.695
REMARK  Name = 5243
REMARK  7 active torsions:
REMARK  status: ('A' for Active; 'I' for Inactive)
REMARK    1  A    between atoms: C_1  and  C_3
REMARK    2  A    between atoms: C_1  and  C_8
REMARK    3  A    between atoms: C_1  and  C_19
REMARK    4  A    between atoms: C_13  and  O_14
REMARK    5  A    between atoms: O_14  and  S_15
REMARK    6  A    between atoms: C_24  and  O_25
REMARK    7  A    between atoms: O_25  and  S_26
REMARK                            x       y       z     vdW  Elec       q    Type
REMARK                         _______ _______ _______ _____ _____    ______ ____
ROOT
ATOM      1  C   UNL     1      34.156 -23.769 -16.249  0.00  0.00    +0.085 C 
ENDROOT
BRANCH   1   3
ATOM      2  N   UNL     1      35.302 -22.962 -14.275  0.00  0.00    -0.248 NA
ATOM      3  C   UNL     1      35.090 -24.024 -15.045  0.00  0.00    +0.067 C 
ATOM      4  C   UNL     1      35.591 -25.280 -14.897  0.00  0.00    +0.015 C 
ATOM      5  C   UNL     1      36.429 -25.477 -13.804  0.00  0.00    +0.003 C 
ATOM      6  C   UNL     1      36.121 -23.190 -13.224  0.00  0.00    +0.098 C 
ATOM      7  C   UNL     1      36.704 -24.417 -12.947  0.00  0.00    +0.021 C 
ENDBRANCH   1   3
BRANCH   1   8
ATOM      8  C   UNL     1      34.722 -22.919 -17.336  0.00  0.00    -0.013 C 
ATOM      9  C   UNL     1      35.972 -22.321 -17.175  0.00  0.00    -0.000 C 
ATOM     10  C   UNL     1      34.000 -22.722 -18.513  0.00  0.00    -0.000 C 
ATOM     11  C   UNL     1      36.500 -21.526 -18.191  0.00  0.00    +0.040 C 
ATOM     12  C   UNL     1      34.529 -21.926 -19.530  0.00  0.00    +0.040 C 
ATOM     13  C   UNL     1      35.780 -21.328 -19.369  0.00  0.00    +0.176 C 
BRANCH  13  14
ATOM     14  O   UNL     1      36.296 -20.551 -20.360  0.00  0.00    -0.322 OA
BRANCH  14  15
ATOM     15  S   UNL     1      35.366 -19.355 -21.001  0.00  0.00    +0.282 S 
ATOM     16  O   UNL     1      35.551 -19.539 -22.612  0.00  0.00    -0.105 OA
ATOM     17  O   UNL     1      33.976 -19.615 -20.678  0.00  0.00    -0.012 OA
ATOM     18  O   UNL     1      35.971 -18.086 -20.637  0.00  0.00    -0.105 OA
ENDBRANCH  14  15
ENDBRANCH  13  14
ENDBRANCH   1   8
BRANCH   1  19
ATOM     19  C   UNL     1      32.714 -23.419 -15.813  0.00  0.00    -0.013 C 
ATOM     20  C   UNL     1      31.913 -22.766 -16.709  0.00  0.00    -0.000 C 
ATOM     21  C   UNL     1      32.318 -23.781 -14.554  0.00  0.00    -0.000 C 
ATOM     22  C   UNL     1      30.612 -22.450 -16.316  0.00  0.00    +0.040 C 
ATOM     23  C   UNL     1      31.017 -23.465 -14.161  0.00  0.00    +0.040 C 
ATOM     24  C   UNL     1      30.164 -22.800 -15.042  0.00  0.00    +0.176 C 
BRANCH  24  25
ATOM     25  O   UNL     1      28.895 -22.491 -14.658  0.00  0.00    -0.322 OA
BRANCH  25  26
ATOM     26  S   UNL     1      27.652 -22.815 -15.685  0.00  0.00    +0.282 S 
ATOM     27  O   UNL     1      27.791 -21.671 -16.840  0.00  0.00    -0.105 OA
ATOM     28  O   UNL     1      27.877 -24.107 -16.307  0.00  0.00    -0.012 OA
ATOM     29  O   UNL     1      26.414 -22.563 -14.970  0.00  0.00    -0.105 OA
ENDBRANCH  25  26
ENDBRANCH  24  25
ENDBRANCH   1  19
TORSDOF 7
ENDMDL
MODEL 8
REMARK VINA RESULT:     -10.0      0.801      7.386
REMARK  Name = 5243
REMARK  7 active torsions:
REMARK  status: ('A' for Active; 'I' for Inactive)
REMARK    1  A    between atoms: C_1  and  C_3
REMARK    2  A    between atoms: C_1  and  C_8
REMARK    3  A    between atoms: C_1  and  C_19
REMARK    4  A    between atoms: C_13  and  O_14
REMARK    5  A    between atoms: O_14  and  S_15
REMARK    6  A    between atoms: C_24  and  O_25
REMARK    7  A    between atoms: O_25  and  S_26
REMARK                            x       y       z     vdW  Elec       q    Type
REMARK                         _______ _______ _______ _____ _____    ______ ____
ROOT
ATOM      1  C   UNL     1      34.672 -24.102 -16.088  0.00  0.00    +0.085 C 
ENDROOT
BRANCH   1   3
ATOM      2  N   UNL     1      33.683 -23.772 -13.903  0.00  0.00    -0.248 NA
ATOM      3  C   UNL     1      33.492 -23.628 -15.211  0.00  0.00    +0.067 C 
ATOM      4  C   UNL     1      32.402 -23.123 -15.848  0.00  0.00    +0.015 C 
ATOM      5  C   UNL     1      31.358 -22.704 -15.029  0.00  0.00    +0.003 C 
ATOM      6  C   UNL     1      32.648 -23.356 -13.140  0.00  0.00    +0.098 C 
ATOM      7  C   UNL     1      31.475 -22.820 -13.649  0.00  0.00    +0.021 C 
ENDBRANCH   1   3
BRANCH   1   8
ATOM      8  C   UNL     1      35.845 -24.652 -15.349  0.00  0.00    -0.013 C 
ATOM      9  C   UNL     1      36.045 -26.030 -15.283  0.00  0.00    -0.000 C 
ATOM     10  C   UNL     1      36.742 -23.785 -14.723  0.00  0.00    -0.000 C 
ATOM     11  C   UNL     1      37.141 -26.543 -14.590  0.00  0.00    +0.040 C 
ATOM     12  C   UNL     1      37.839 -24.298 -14.031  0.00  0.00    +0.040 C 
ATOM     13  C   UNL     1      38.039 -25.678 -13.965  0.00  0.00    +0.176 C 
BRANCH  13  14
ATOM     14  O   UNL     1      39.109 -26.178 -13.289  0.00  0.00    -0.322 OA
BRANCH  14  15
ATOM     15  S   UNL     1      40.611 -26.008 -13.937  0.00  0.00    +0.282 S 
ATOM     16  O   UNL     1      40.360 -26.136 -15.545  0.00  0.00    -0.105 OA
ATOM     17  O   UNL     1      41.092 -24.667 -13.665  0.00  0.00    -0.012 OA
ATOM     18  O   UNL     1      41.398 -27.158 -13.528  0.00  0.00    -0.105 OA
ENDBRANCH  14  15
ENDBRANCH  13  14
ENDBRANCH   1   8
BRANCH   1  19
ATOM     19  C   UNL     1      35.006 -23.102 -17.219  0.00  0.00    -0.013 C 
ATOM     20  C   UNL     1      36.163 -22.378 -17.115  0.00  0.00    -0.000 C 
ATOM     21  C   UNL     1      34.127 -22.994 -18.262  0.00  0.00    -0.000 C 
ATOM     22  C   UNL     1      36.464 -21.475 -18.135  0.00  0.00    +0.040 C 
ATOM     23  C   UNL     1      34.428 -22.090 -19.281  0.00  0.00    +0.040 C 
ATOM     24  C   UNL     1      35.597 -21.331 -19.218  0.00  0.00    +0.176 C 
BRANCH  24  25
ATOM     25  O   UNL     1      35.891 -20.449 -20.212  0.00  0.00    -0.322 OA
BRANCH  25  26
ATOM     26  S   UNL     1      34.676 -19.557 -20.871  0.00  0.00    +0.282 S 
ATOM     27  O   UNL     1      34.790 -19.864 -22.470  0.00  0.00    -0.105 OA
ATOM     28  O   UNL     1      33.403 -20.077 -20.406  0.00  0.00    -0.012 OA
ATOM     29  O   UNL     1      35.002 -18.157 -20.673  0.00  0.00    -0.105 OA
ENDBRANCH  25  26
ENDBRANCH  24  25
ENDBRANCH   1  19
TORSDOF 7
ENDMDL
MODEL 9
REMARK VINA RESULT:      -9.8      4.128      7.472
REMARK  Name = 5243
REMARK  7 active torsions:
REMARK  status: ('A' for Active; 'I' for Inactive)
REMARK    1  A    between atoms: C_1  and  C_3
REMARK    2  A    between atoms: C_1  and  C_8
REMARK    3  A    between atoms: C_1  and  C_19
REMARK    4  A    between atoms: C_13  and  O_14
REMARK    5  A    between atoms: O_14  and  S_15
REMARK    6  A    between atoms: C_24  and  O_25
REMARK    7  A    between atoms: O_25  and  S_26
REMARK                            x       y       z     vdW  Elec       q    Type
REMARK                         _______ _______ _______ _____ _____    ______ ____
ROOT
ATOM      1  C   UNL     1      35.463 -23.171 -15.222  0.00  0.00    +0.085 C 
ENDROOT
BRANCH   1   3
ATOM      2  N   UNL     1      36.096 -25.507 -15.195  0.00  0.00    -0.248 NA
ATOM      3  C   UNL     1      36.500 -24.273 -14.912  0.00  0.00    +0.067 C 
ATOM      4  C   UNL     1      37.695 -23.880 -14.394  0.00  0.00    +0.015 C 
ATOM      5  C   UNL     1      38.606 -24.896 -14.126  0.00  0.00    +0.003 C 
ATOM      6  C   UNL     1      37.007 -26.468 -14.921  0.00  0.00    +0.098 C 
ATOM      7  C   UNL     1      38.264 -26.217 -14.392  0.00  0.00    +0.021 C 
ENDBRANCH   1   3
BRANCH   1   8
ATOM      8  C   UNL     1      34.072 -23.447 -14.760  0.00  0.00    -0.013 C 
ATOM      9  C   UNL     1      33.009 -22.694 -15.258  0.00  0.00    -0.000 C 
ATOM     10  C   UNL     1      33.835 -24.460 -13.830  0.00  0.00    -0.000 C 
ATOM     11  C   UNL     1      31.709 -22.953 -14.825  0.00  0.00    +0.040 C 
ATOM     12  C   UNL     1      32.534 -24.718 -13.397  0.00  0.00    +0.040 C 
ATOM     13  C   UNL     1      31.470 -23.964 -13.894  0.00  0.00    +0.176 C 
BRANCH  13  14
ATOM     14  O   UNL     1      30.202 -24.216 -13.472  0.00  0.00    -0.322 OA
BRANCH  14  15
ATOM     15  S   UNL     1      29.105 -24.803 -14.548  0.00  0.00    +0.282 S 
ATOM     16  O   UNL     1      30.026 -25.429 -15.742  0.00  0.00    -0.105 OA
ATOM     17  O   UNL     1      28.374 -25.893 -13.930  0.00  0.00    -0.012 OA
ATOM     18  O   UNL     1      28.386 -23.671 -15.105  0.00  0.00    -0.105 OA
ENDBRANCH  14  15
ENDBRANCH  13  14
ENDBRANCH   1   8
BRANCH   1  19
ATOM     19  C   UNL     1      35.590 -22.629 -16.665  0.00  0.00    -0.013 C 
ATOM     20  C   UNL     1      34.571 -22.887 -17.540  0.00  0.00    -0.000 C 
ATOM     21  C   UNL     1      36.716 -21.922 -16.988  0.00  0.00    -0.000 C 
ATOM     22  C   UNL     1      34.686 -22.399 -18.842  0.00  0.00    +0.040 C 
ATOM     23  C   UNL     1      36.831 -21.434 -18.290  0.00  0.00    +0.040 C 
ATOM     24  C   UNL     1      35.816 -21.672 -19.217  0.00  0.00    +0.176 C 
BRANCH  24  25
ATOM     25  O   UNL     1      35.928 -21.196 -20.487  0.00  0.00    -0.322 OA
BRANCH  25  26
ATOM     26  S   UNL     1      35.121 -19.823 -20.898  0.00  0.00    +0.282 S 
ATOM     27  O   UNL     1      35.083 -19.866 -22.529  0.00  0.00    -0.105 OA
ATOM     28  O   UNL     1      33.755 -19.918 -20.417  0.00  0.00    -0.012 OA
ATOM     29  O   UNL     1      35.947 -18.695 -20.512  0.00  0.00    -0.105 OA
ENDBRANCH  25  26
ENDBRANCH  24  25
ENDBRANCH   1  19
TORSDOF 7
ENDMDL
