MODEL 1
REMARK VINA RESULT:     -11.1      0.000      0.000
REMARK  Name = 11711595
REMARK  10 active torsions:
REMARK  status: ('A' for Active; 'I' for Inactive)
REMARK    1  A    between atoms: C_1  and  C_9
REMARK    2  A    between atoms: C_3  and  C_17
REMARK    3  A    between atoms: C_5  and  O_7
REMARK    4  A    between atoms: C_9  and  C_10
REMARK    5  A    between atoms: C_10  and  C_12
REMARK    6  A    between atoms: C_10  and  C_15
REMARK    7  A    between atoms: C_12  and  O_13
REMARK    8  A    between atoms: C_17  and  N_19
REMARK    9  A    between atoms: C_20  and  C_23
REMARK   10  A    between atoms: C_26  and  C_32
REMARK                            x       y       z     vdW  Elec       q    Type
REMARK                         _______ _______ _______ _____ _____    ______ ____
ROOT
ATOM      1  C   UNL     1      35.034 -24.092 -14.607  0.00  0.00    -0.022 C 
ATOM      2  C   UNL     1      34.299 -23.687 -15.723  0.00  0.00    -0.004 C 
ATOM      3  C   UNL     1      32.925 -23.476 -15.613  0.00  0.00    +0.031 C 
ATOM      4  C   UNL     1      34.394 -24.285 -13.384  0.00  0.00    -0.001 C 
ATOM      5  C   UNL     1      32.285 -23.670 -14.388  0.00  0.00    +0.136 C 
ATOM      6  C   UNL     1      33.020 -24.074 -13.274  0.00  0.00    +0.036 C 
ENDROOT
BRANCH   5   7
ATOM      7  O   UNL     1      30.943 -23.469 -14.264  0.00  0.00    -0.472 OA
ATOM      8  C   UNL     1      30.133 -24.622 -14.045  0.00  0.00    +0.252 C 
ENDBRANCH   5   7
BRANCH   1   9
ATOM      9  C   UNL     1      36.522 -24.320 -14.726  0.00  0.00    +0.037 C 
BRANCH   9  10
ATOM     10  C   UNL     1      37.040 -25.440 -13.804  0.00  0.00    +0.103 C 
BRANCH  10  12
ATOM     11  O   UNL     1      38.320 -27.428 -14.390  0.00  0.00    -0.250 OA
ATOM     12  C   UNL     1      37.398 -26.661 -14.641  0.00  0.00    +0.314 C 
BRANCH  12  13
ATOM     13  O   UNL     1      36.564 -26.834 -15.698  0.00  0.00    -0.480 OA
ATOM     14  H   UNL     1      36.854 -27.311 -16.451  0.00  0.00    +0.295 HD
ENDBRANCH  12  13
ENDBRANCH  10  12
BRANCH  10  15
ATOM     15  C   UNL     1      38.274 -24.956 -13.020  0.00  0.00    +0.011 C 
ATOM     16  C   UNL     1      37.924 -24.470 -11.619  0.00  0.00    +0.001 C 
ENDBRANCH  10  15
ENDBRANCH   9  10
ENDBRANCH   1   9
BRANCH   3  17
ATOM     17  C   UNL     1      32.155 -23.044 -16.816  0.00  0.00    +0.120 C 
BRANCH  17  19
ATOM     18  O   UNL     1      33.673 -23.747 -19.149  0.00  0.00    -0.270 OA
ATOM     19  N   UNL     1      32.909 -22.147 -17.653  0.00  0.00    -0.297 N 
ATOM     20  C   UNL     1      33.616 -22.581 -18.767  0.00  0.00    +0.248 C 
ATOM     21  H   UNL     1      32.925 -21.190 -17.427  0.00  0.00    +0.150 HD
BRANCH  20  23
ATOM     22  F   UNL     1      32.342 -20.626 -20.358  0.00  0.00    -0.204 F 
ATOM     23  C   UNL     1      34.366 -21.537 -19.511  0.00  0.00    +0.081 C 
ATOM     24  C   UNL     1      33.681 -20.597 -20.280  0.00  0.00    +0.144 C 
ATOM     25  C   UNL     1      35.758 -21.497 -19.438  0.00  0.00    +0.007 C 
ATOM     26  C   UNL     1      35.779 -19.576 -20.903  0.00  0.00    +0.074 C 
ATOM     27  C   UNL     1      34.387 -19.616 -20.976  0.00  0.00    +0.034 C 
ATOM     28  C   UNL     1      36.465 -20.517 -20.135  0.00  0.00    +0.004 C 
BRANCH  26  32
ATOM     29  F   UNL     1      36.036 -17.267 -21.475  0.00  0.00    -0.166 F 
ATOM     30  F   UNL     1      37.850 -18.443 -21.289  0.00  0.00    -0.166 F 
ATOM     31  F   UNL     1      36.536 -18.740 -22.996  0.00  0.00    -0.166 F 
ATOM     32  C   UNL     1      36.535 -18.528 -21.648  0.00  0.00    +0.419 C 
ENDBRANCH  26  32
ENDBRANCH  20  23
ENDBRANCH  17  19
ENDBRANCH   3  17
TORSDOF 10
ENDMDL
MODEL 2
REMARK VINA RESULT:     -11.0      2.201      5.217
REMARK  Name = 11711595
REMARK  10 active torsions:
REMARK  status: ('A' for Active; 'I' for Inactive)
REMARK    1  A    between atoms: C_1  and  C_9
REMARK    2  A    between atoms: C_3  and  C_17
REMARK    3  A    between atoms: C_5  and  O_7
REMARK    4  A    between atoms: C_9  and  C_10
REMARK    5  A    between atoms: C_10  and  C_12
REMARK    6  A    between atoms: C_10  and  C_15
REMARK    7  A    between atoms: C_12  and  O_13
REMARK    8  A    between atoms: C_17  and  N_19
REMARK    9  A    between atoms: C_20  and  C_23
REMARK   10  A    between atoms: C_26  and  C_32
REMARK                            x       y       z     vdW  Elec       q    Type
REMARK                         _______ _______ _______ _____ _____    ______ ____
ROOT
ATOM      1  C   UNL     1      31.262 -22.858 -14.883  0.00  0.00    -0.022 C 
ATOM      2  C   UNL     1      32.326 -23.079 -15.759  0.00  0.00    -0.004 C 
ATOM      3  C   UNL     1      33.519 -23.624 -15.284  0.00  0.00    +0.031 C 
ATOM      4  C   UNL     1      31.392 -23.182 -13.533  0.00  0.00    -0.001 C 
ATOM      5  C   UNL     1      33.648 -23.948 -13.933  0.00  0.00    +0.136 C 
ATOM      6  C   UNL     1      32.585 -23.728 -13.058  0.00  0.00    +0.036 C 
ENDROOT
BRANCH   5   7
ATOM      7  O   UNL     1      34.807 -24.481 -13.453  0.00  0.00    -0.472 OA
ATOM      8  C   UNL     1      35.040 -24.365 -12.050  0.00  0.00    +0.252 C 
ENDBRANCH   5   7
BRANCH   1   9
ATOM      9  C   UNL     1      29.971 -22.268 -15.398  0.00  0.00    +0.037 C 
BRANCH   9  10
ATOM     10  C   UNL     1      28.810 -23.279 -15.425  0.00  0.00    +0.103 C 
BRANCH  10  12
ATOM     11  O   UNL     1      27.386 -21.808 -16.744  0.00  0.00    -0.250 OA
ATOM     12  C   UNL     1      27.855 -22.924 -16.556  0.00  0.00    +0.314 C 
BRANCH  12  13
ATOM     13  O   UNL     1      27.587 -23.980 -17.366  0.00  0.00    -0.480 OA
ATOM     14  H   UNL     1      26.740 -24.067 -17.758  0.00  0.00    +0.295 HD
ENDBRANCH  12  13
ENDBRANCH  10  12
BRANCH  10  15
ATOM     15  C   UNL     1      29.352 -24.707 -15.618  0.00  0.00    +0.011 C 
ATOM     16  C   UNL     1      29.069 -25.609 -14.423  0.00  0.00    +0.001 C 
ENDBRANCH  10  15
ENDBRANCH   9  10
ENDBRANCH   1   9
BRANCH   3  17
ATOM     17  C   UNL     1      34.646 -23.853 -16.235  0.00  0.00    +0.120 C 
BRANCH  17  19
ATOM     18  O   UNL     1      33.739 -23.827 -18.959  0.00  0.00    -0.270 OA
ATOM     19  N   UNL     1      34.791 -22.774 -17.180  0.00  0.00    -0.297 N 
ATOM     20  C   UNL     1      34.318 -22.854 -18.483  0.00  0.00    +0.248 C 
ATOM     21  H   UNL     1      35.243 -21.950 -16.890  0.00  0.00    +0.150 HD
BRANCH  20  23
ATOM     22  F   UNL     1      36.918 -21.950 -19.117  0.00  0.00    -0.204 F 
ATOM     23  C   UNL     1      34.570 -21.667 -19.341  0.00  0.00    +0.081 C 
ATOM     24  C   UNL     1      35.877 -21.269 -19.620  0.00  0.00    +0.144 C 
ATOM     25  C   UNL     1      33.495 -20.952 -19.869  0.00  0.00    +0.007 C 
ATOM     26  C   UNL     1      35.036 -19.442 -20.955  0.00  0.00    +0.074 C 
ATOM     27  C   UNL     1      36.111 -20.157 -20.427  0.00  0.00    +0.034 C 
ATOM     28  C   UNL     1      33.729 -19.839 -20.676  0.00  0.00    +0.004 C 
BRANCH  26  32
ATOM     29  F   UNL     1      36.607 -18.047 -22.101  0.00  0.00    -0.166 F 
ATOM     30  F   UNL     1      34.668 -18.319 -23.035  0.00  0.00    -0.166 F 
ATOM     31  F   UNL     1      34.849 -17.090 -21.250  0.00  0.00    -0.166 F 
ATOM     32  C   UNL     1      35.286 -18.251 -21.819  0.00  0.00    +0.419 C 
ENDBRANCH  26  32
ENDBRANCH  20  23
ENDBRANCH  17  19
ENDBRANCH   3  17
TORSDOF 10
ENDMDL
MODEL 3
REMARK VINA RESULT:     -10.6      8.915     12.416
REMARK  Name = 11711595
REMARK  10 active torsions:
REMARK  status: ('A' for Active; 'I' for Inactive)
REMARK    1  A    between atoms: C_1  and  C_9
REMARK    2  A    between atoms: C_3  and  C_17
REMARK    3  A    between atoms: C_5  and  O_7
REMARK    4  A    between atoms: C_9  and  C_10
REMARK    5  A    between atoms: C_10  and  C_12
REMARK    6  A    between atoms: C_10  and  C_15
REMARK    7  A    between atoms: C_12  and  O_13
REMARK    8  A    between atoms: C_17  and  N_19
REMARK    9  A    between atoms: C_20  and  C_23
REMARK   10  A    between atoms: C_26  and  C_32
REMARK                            x       y       z     vdW  Elec       q    Type
REMARK                         _______ _______ _______ _____ _____    ______ ____
ROOT
ATOM      1  C   UNL     1      34.633 -16.122 -21.547  0.00  0.00    -0.022 C 
ATOM      2  C   UNL     1      33.729 -15.304 -20.867  0.00  0.00    -0.004 C 
ATOM      3  C   UNL     1      33.235 -14.151 -21.477  0.00  0.00    +0.031 C 
ATOM      4  C   UNL     1      35.042 -15.785 -22.837  0.00  0.00    -0.001 C 
ATOM      5  C   UNL     1      33.646 -13.815 -22.768  0.00  0.00    +0.136 C 
ATOM      6  C   UNL     1      34.548 -14.632 -23.448  0.00  0.00    +0.036 C 
ENDROOT
BRANCH   5   7
ATOM      7  O   UNL     1      33.174 -12.692 -23.379  0.00  0.00    -0.472 OA
ATOM      8  C   UNL     1      34.086 -11.973 -24.206  0.00  0.00    +0.252 C 
ENDBRANCH   5   7
BRANCH   1   9
ATOM      9  C   UNL     1      35.167 -17.370 -20.886  0.00  0.00    +0.037 C 
BRANCH   9  10
ATOM     10  C   UNL     1      35.931 -18.291 -21.856  0.00  0.00    +0.103 C 
BRANCH  10  12
ATOM     11  O   UNL     1      37.175 -19.468 -20.124  0.00  0.00    -0.250 OA
ATOM     12  C   UNL     1      37.180 -18.827 -21.168  0.00  0.00    +0.314 C 
BRANCH  12  13
ATOM     13  O   UNL     1      38.317 -18.541 -21.851  0.00  0.00    -0.480 OA
ATOM     14  H   UNL     1      38.563 -17.649 -21.999  0.00  0.00    +0.295 HD
ENDBRANCH  12  13
ENDBRANCH  10  12
BRANCH  10  15
ATOM     15  C   UNL     1      35.031 -19.457 -22.304  0.00  0.00    +0.011 C 
ATOM     16  C   UNL     1      34.647 -19.370 -23.776  0.00  0.00    +0.001 C 
ENDBRANCH  10  15
ENDBRANCH   9  10
ENDBRANCH   1   9
BRANCH   3  17
ATOM     17  C   UNL     1      32.270 -13.289 -20.734  0.00  0.00    +0.120 C 
BRANCH  17  19
ATOM     18  O   UNL     1      30.482 -11.174 -19.977  0.00  0.00    -0.270 OA
ATOM     19  N   UNL     1      32.355 -11.907 -21.133  0.00  0.00    -0.297 N 
ATOM     20  C   UNL     1      31.439 -10.951 -20.714  0.00  0.00    +0.248 C 
ATOM     21  H   UNL     1      33.090 -11.629 -21.725  0.00  0.00    +0.150 HD
BRANCH  20  23
ATOM     22  F   UNL     1      32.142  -8.779 -19.051  0.00  0.00    -0.204 F 
ATOM     23  C   UNL     1      31.648  -9.575 -21.234  0.00  0.00    +0.081 C 
ATOM     24  C   UNL     1      31.995  -8.543 -20.364  0.00  0.00    +0.144 C 
ATOM     25  C   UNL     1      31.498  -9.318 -22.597  0.00  0.00    +0.007 C 
ATOM     26  C   UNL     1      32.043  -6.995 -22.217  0.00  0.00    +0.074 C 
ATOM     27  C   UNL     1      32.193  -7.252 -20.854  0.00  0.00    +0.034 C 
ATOM     28  C   UNL     1      31.695  -8.028 -23.088  0.00  0.00    +0.004 C 
BRANCH  26  32
ATOM     29  F   UNL     1      33.350  -5.499 -23.550  0.00  0.00    -0.166 F 
ATOM     30  F   UNL     1      31.210  -5.149 -23.489  0.00  0.00    -0.166 F 
ATOM     31  F   UNL     1      32.432  -4.697 -21.749  0.00  0.00    -0.166 F 
ATOM     32  C   UNL     1      32.254  -5.615 -22.743  0.00  0.00    +0.419 C 
ENDBRANCH  26  32
ENDBRANCH  20  23
ENDBRANCH  17  19
ENDBRANCH   3  17
TORSDOF 10
ENDMDL
MODEL 4
REMARK VINA RESULT:     -10.5      2.862      4.640
REMARK  Name = 11711595
REMARK  10 active torsions:
REMARK  status: ('A' for Active; 'I' for Inactive)
REMARK    1  A    between atoms: C_1  and  C_9
REMARK    2  A    between atoms: C_3  and  C_17
REMARK    3  A    between atoms: C_5  and  O_7
REMARK    4  A    between atoms: C_9  and  C_10
REMARK    5  A    between atoms: C_10  and  C_12
REMARK    6  A    between atoms: C_10  and  C_15
REMARK    7  A    between atoms: C_12  and  O_13
REMARK    8  A    between atoms: C_17  and  N_19
REMARK    9  A    between atoms: C_20  and  C_23
REMARK   10  A    between atoms: C_26  and  C_32
REMARK                            x       y       z     vdW  Elec       q    Type
REMARK                         _______ _______ _______ _____ _____    ______ ____
ROOT
ATOM      1  C   UNL     1      35.076 -22.771 -16.447  0.00  0.00    -0.022 C 
ATOM      2  C   UNL     1      35.928 -22.213 -17.401  0.00  0.00    -0.004 C 
ATOM      3  C   UNL     1      35.423 -21.810 -18.637  0.00  0.00    +0.031 C 
ATOM      4  C   UNL     1      33.719 -22.925 -16.731  0.00  0.00    -0.001 C 
ATOM      5  C   UNL     1      34.065 -21.964 -18.920  0.00  0.00    +0.136 C 
ATOM      6  C   UNL     1      33.214 -22.521 -17.967  0.00  0.00    +0.036 C 
ENDROOT
BRANCH   5   7
ATOM      7  O   UNL     1      33.556 -21.576 -20.122  0.00  0.00    -0.472 OA
ATOM      8  C   UNL     1      32.684 -20.447 -20.122  0.00  0.00    +0.252 C 
ENDBRANCH   5   7
BRANCH   1   9
ATOM      9  C   UNL     1      35.622 -23.208 -15.109  0.00  0.00    +0.037 C 
BRANCH   9  10
ATOM     10  C   UNL     1      36.625 -24.372 -15.214  0.00  0.00    +0.103 C 
BRANCH  10  12
ATOM     11  O   UNL     1      38.251 -23.931 -13.456  0.00  0.00    -0.250 OA
ATOM     12  C   UNL     1      37.969 -23.936 -14.648  0.00  0.00    +0.314 C 
BRANCH  12  13
ATOM     13  O   UNL     1      38.850 -23.570 -15.614  0.00  0.00    -0.480 OA
ATOM     14  H   UNL     1      39.261 -22.729 -15.578  0.00  0.00    +0.295 HD
ENDBRANCH  12  13
ENDBRANCH  10  12
BRANCH  10  15
ATOM     15  C   UNL     1      36.098 -25.598 -14.444  0.00  0.00    +0.011 C 
ATOM     16  C   UNL     1      36.814 -26.886 -14.833  0.00  0.00    +0.001 C 
ENDBRANCH  10  15
ENDBRANCH   9  10
ENDBRANCH   1   9
BRANCH   3  17
ATOM     17  C   UNL     1      36.350 -21.216 -19.645  0.00  0.00    +0.120 C 
BRANCH  17  19
ATOM     18  O   UNL     1      37.787 -19.140 -21.012  0.00  0.00    -0.270 OA
ATOM     19  N   UNL     1      35.783 -20.060 -20.293  0.00  0.00    -0.297 N 
ATOM     20  C   UNL     1      36.562 -19.105 -20.932  0.00  0.00    +0.248 C 
ATOM     21  H   UNL     1      34.806 -19.943 -20.282  0.00  0.00    +0.150 HD
BRANCH  20  23
ATOM     22  F   UNL     1      36.105 -18.861 -23.708  0.00  0.00    -0.204 F 
ATOM     23  C   UNL     1      35.829 -17.958 -21.528  0.00  0.00    +0.081 C 
ATOM     24  C   UNL     1      35.634 -17.893 -22.907  0.00  0.00    +0.144 C 
ATOM     25  C   UNL     1      35.335 -16.947 -20.705  0.00  0.00    +0.007 C 
ATOM     26  C   UNL     1      34.450 -15.805 -22.641  0.00  0.00    +0.074 C 
ATOM     27  C   UNL     1      34.944 -16.817 -23.464  0.00  0.00    +0.034 C 
ATOM     28  C   UNL     1      34.646 -15.870 -21.262  0.00  0.00    +0.004 C 
BRANCH  26  32
ATOM     29  F   UNL     1      32.700 -14.184 -22.447  0.00  0.00    -0.166 F 
ATOM     30  F   UNL     1      34.501 -13.568 -23.486  0.00  0.00    -0.166 F 
ATOM     31  F   UNL     1      33.129 -14.965 -24.431  0.00  0.00    -0.166 F 
ATOM     32  C   UNL     1      33.711 -14.654 -23.237  0.00  0.00    +0.419 C 
ENDBRANCH  26  32
ENDBRANCH  20  23
ENDBRANCH  17  19
ENDBRANCH   3  17
TORSDOF 10
ENDMDL
MODEL 5
REMARK VINA RESULT:     -10.4      1.384      1.934
REMARK  Name = 11711595
REMARK  10 active torsions:
REMARK  status: ('A' for Active; 'I' for Inactive)
REMARK    1  A    between atoms: C_1  and  C_9
REMARK    2  A    between atoms: C_3  and  C_17
REMARK    3  A    between atoms: C_5  and  O_7
REMARK    4  A    between atoms: C_9  and  C_10
REMARK    5  A    between atoms: C_10  and  C_12
REMARK    6  A    between atoms: C_10  and  C_15
REMARK    7  A    between atoms: C_12  and  O_13
REMARK    8  A    between atoms: C_17  and  N_19
REMARK    9  A    between atoms: C_20  and  C_23
REMARK   10  A    between atoms: C_26  and  C_32
REMARK                            x       y       z     vdW  Elec       q    Type
REMARK                         _______ _______ _______ _____ _____    ______ ____
ROOT
ATOM      1  C   UNL     1      34.522 -24.206 -14.424  0.00  0.00    -0.022 C 
ATOM      2  C   UNL     1      33.896 -23.830 -15.613  0.00  0.00    -0.004 C 
ATOM      3  C   UNL     1      32.542 -23.490 -15.611  0.00  0.00    +0.031 C 
ATOM      4  C   UNL     1      33.795 -24.242 -13.234  0.00  0.00    -0.001 C 
ATOM      5  C   UNL     1      31.816 -23.526 -14.420  0.00  0.00    +0.136 C 
ATOM      6  C   UNL     1      32.442 -23.902 -13.232  0.00  0.00    +0.036 C 
ENDROOT
BRANCH   5   7
ATOM      7  O   UNL     1      30.494 -23.198 -14.401  0.00  0.00    -0.472 OA
ATOM      8  C   UNL     1      29.558 -24.273 -14.455  0.00  0.00    +0.252 C 
ENDBRANCH   5   7
BRANCH   1   9
ATOM      9  C   UNL     1      35.986 -24.574 -14.426  0.00  0.00    +0.037 C 
BRANCH   9  10
ATOM     10  C   UNL     1      36.914 -23.377 -14.146  0.00  0.00    +0.103 C 
BRANCH  10  12
ATOM     11  O   UNL     1      37.992 -22.705 -12.068  0.00  0.00    -0.250 OA
ATOM     12  C   UNL     1      37.647 -23.600 -12.830  0.00  0.00    +0.314 C 
BRANCH  12  13
ATOM     13  O   UNL     1      37.865 -24.914 -12.568  0.00  0.00    -0.480 OA
ATOM     14  H   UNL     1      37.323 -25.567 -12.965  0.00  0.00    +0.295 HD
ENDBRANCH  12  13
ENDBRANCH  10  12
BRANCH  10  15
ATOM     15  C   UNL     1      37.926 -23.208 -15.294  0.00  0.00    +0.011 C 
ATOM     16  C   UNL     1      37.589 -22.033 -16.204  0.00  0.00    +0.001 C 
ENDBRANCH  10  15
ENDBRANCH   9  10
ENDBRANCH   1   9
BRANCH   3  17
ATOM     17  C   UNL     1      31.889 -23.090 -16.892  0.00  0.00    +0.120 C 
BRANCH  17  19
ATOM     18  O   UNL     1      33.645 -23.822 -19.043  0.00  0.00    -0.270 OA
ATOM     19  N   UNL     1      32.713 -22.201 -17.670  0.00  0.00    -0.297 N 
ATOM     20  C   UNL     1      33.534 -22.649 -18.696  0.00  0.00    +0.248 C 
ATOM     21  H   UNL     1      32.693 -21.238 -17.467  0.00  0.00    +0.150 HD
BRANCH  20  23
ATOM     22  F   UNL     1      32.382 -20.646 -20.321  0.00  0.00    -0.204 F 
ATOM     23  C   UNL     1      34.342 -21.610 -19.385  0.00  0.00    +0.081 C 
ATOM     24  C   UNL     1      33.716 -20.646 -20.175  0.00  0.00    +0.144 C 
ATOM     25  C   UNL     1      35.729 -21.599 -19.240  0.00  0.00    +0.007 C 
ATOM     26  C   UNL     1      35.863 -19.660 -20.675  0.00  0.00    +0.074 C 
ATOM     27  C   UNL     1      34.476 -19.670 -20.820  0.00  0.00    +0.034 C 
ATOM     28  C   UNL     1      36.490 -20.624 -19.886  0.00  0.00    +0.004 C 
BRANCH  26  32
ATOM     29  F   UNL     1      37.919 -18.444 -20.822  0.00  0.00    -0.166 F 
ATOM     30  F   UNL     1      36.899 -18.881 -22.685  0.00  0.00    -0.166 F 
ATOM     31  F   UNL     1      36.088 -17.385 -21.331  0.00  0.00    -0.166 F 
ATOM     32  C   UNL     1      36.677 -18.617 -21.364  0.00  0.00    +0.419 C 
ENDBRANCH  26  32
ENDBRANCH  20  23
ENDBRANCH  17  19
ENDBRANCH   3  17
TORSDOF 10
ENDMDL
MODEL 6
REMARK VINA RESULT:     -10.3      9.888     14.722
REMARK  Name = 11711595
REMARK  10 active torsions:
REMARK  status: ('A' for Active; 'I' for Inactive)
REMARK    1  A    between atoms: C_1  and  C_9
REMARK    2  A    between atoms: C_3  and  C_17
REMARK    3  A    between atoms: C_5  and  O_7
REMARK    4  A    between atoms: C_9  and  C_10
REMARK    5  A    between atoms: C_10  and  C_12
REMARK    6  A    between atoms: C_10  and  C_15
REMARK    7  A    between atoms: C_12  and  O_13
REMARK    8  A    between atoms: C_17  and  N_19
REMARK    9  A    between atoms: C_20  and  C_23
REMARK   10  A    between atoms: C_26  and  C_32
REMARK                            x       y       z     vdW  Elec       q    Type
REMARK                         _______ _______ _______ _____ _____    ______ ____
ROOT
ATOM      1  C   UNL     1      32.728  -8.173 -22.074  0.00  0.00    -0.022 C 
ATOM      2  C   UNL     1      33.343  -8.999 -23.017  0.00  0.00    -0.004 C 
ATOM      3  C   UNL     1      33.151 -10.380 -22.965  0.00  0.00    +0.031 C 
ATOM      4  C   UNL     1      31.923  -8.729 -21.080  0.00  0.00    -0.001 C 
ATOM      5  C   UNL     1      32.345 -10.935 -21.970  0.00  0.00    +0.136 C 
ATOM      6  C   UNL     1      31.731 -10.110 -21.028  0.00  0.00    +0.036 C 
ENDROOT
BRANCH   5   7
ATOM      7  O   UNL     1      32.147 -12.281 -21.904  0.00  0.00    -0.472 OA
ATOM      8  C   UNL     1      31.972 -12.848 -20.607  0.00  0.00    +0.252 C 
ENDBRANCH   5   7
BRANCH   1   9
ATOM      9  C   UNL     1      32.936  -6.678 -22.130  0.00  0.00    +0.037 C 
BRANCH   9  10
ATOM     10  C   UNL     1      32.014  -5.975 -23.143  0.00  0.00    +0.103 C 
BRANCH  10  12
ATOM     11  O   UNL     1      30.431  -4.132 -22.962  0.00  0.00    -0.250 OA
ATOM     12  C   UNL     1      31.121  -4.982 -22.411  0.00  0.00    +0.314 C 
BRANCH  12  13
ATOM     13  O   UNL     1      31.147  -5.147 -21.064  0.00  0.00    -0.480 OA
ATOM     14  H   UNL     1      30.548  -5.739 -20.653  0.00  0.00    +0.295 HD
ENDBRANCH  12  13
ENDBRANCH  10  12
BRANCH  10  15
ATOM     15  C   UNL     1      32.852  -5.247 -24.210  0.00  0.00    +0.011 C 
ATOM     16  C   UNL     1      34.213  -5.895 -24.429  0.00  0.00    +0.001 C 
ENDBRANCH  10  15
ENDBRANCH   9  10
ENDBRANCH   1   9
BRANCH   3  17
ATOM     17  C   UNL     1      33.816 -11.247 -23.981  0.00  0.00    +0.120 C 
BRANCH  17  19
ATOM     18  O   UNL     1      33.476 -13.792 -25.266  0.00  0.00    -0.270 OA
ATOM     19  N   UNL     1      34.176 -12.535 -23.446  0.00  0.00    -0.297 N 
ATOM     20  C   UNL     1      33.972 -13.718 -24.145  0.00  0.00    +0.248 C 
ATOM     21  H   UNL     1      34.582 -12.579 -22.551  0.00  0.00    +0.150 HD
BRANCH  20  23
ATOM     22  F   UNL     1      34.660 -16.087 -25.519  0.00  0.00    -0.204 F 
ATOM     23  C   UNL     1      34.373 -14.966 -23.445  0.00  0.00    +0.081 C 
ATOM     24  C   UNL     1      34.702 -16.105 -24.179  0.00  0.00    +0.144 C 
ATOM     25  C   UNL     1      34.420 -14.996 -22.051  0.00  0.00    +0.007 C 
ATOM     26  C   UNL     1      35.126 -17.305 -22.126  0.00  0.00    +0.074 C 
ATOM     27  C   UNL     1      35.079 -17.275 -23.520  0.00  0.00    +0.034 C 
ATOM     28  C   UNL     1      34.796 -16.166 -21.392  0.00  0.00    +0.004 C 
BRANCH  26  32
ATOM     29  F   UNL     1      34.577 -19.034 -20.566  0.00  0.00    -0.166 F 
ATOM     30  F   UNL     1      35.804 -19.594 -22.264  0.00  0.00    -0.166 F 
ATOM     31  F   UNL     1      36.653 -18.392 -20.663  0.00  0.00    -0.166 F 
ATOM     32  C   UNL     1      35.530 -18.556 -21.421  0.00  0.00    +0.419 C 
ENDBRANCH  26  32
ENDBRANCH  20  23
ENDBRANCH  17  19
ENDBRANCH   3  17
TORSDOF 10
ENDMDL
MODEL 7
REMARK VINA RESULT:     -10.2      6.089     11.188
REMARK  Name = 11711595
REMARK  10 active torsions:
REMARK  status: ('A' for Active; 'I' for Inactive)
REMARK    1  A    between atoms: C_1  and  C_9
REMARK    2  A    between atoms: C_3  and  C_17
REMARK    3  A    between atoms: C_5  and  O_7
REMARK    4  A    between atoms: C_9  and  C_10
REMARK    5  A    between atoms: C_10  and  C_12
REMARK    6  A    between atoms: C_10  and  C_15
REMARK    7  A    between atoms: C_12  and  O_13
REMARK    8  A    between atoms: C_17  and  N_19
REMARK    9  A    between atoms: C_20  and  C_23
REMARK   10  A    between atoms: C_26  and  C_32
REMARK                            x       y       z     vdW  Elec       q    Type
REMARK                         _______ _______ _______ _____ _____    ______ ____
ROOT
ATOM      1  C   UNL     1      32.963 -14.177 -21.491  0.00  0.00    -0.022 C 
ATOM      2  C   UNL     1      33.996 -15.076 -21.225  0.00  0.00    -0.004 C 
ATOM      3  C   UNL     1      34.717 -15.642 -22.278  0.00  0.00    +0.031 C 
ATOM      4  C   UNL     1      32.650 -13.845 -22.809  0.00  0.00    -0.001 C 
ATOM      5  C   UNL     1      34.403 -15.309 -23.596  0.00  0.00    +0.136 C 
ATOM      6  C   UNL     1      33.370 -14.411 -23.861  0.00  0.00    +0.036 C 
ENDROOT
BRANCH   5   7
ATOM      7  O   UNL     1      35.096 -15.852 -24.635  0.00  0.00    -0.472 OA
ATOM      8  C   UNL     1      34.665 -17.129 -25.104  0.00  0.00    +0.252 C 
ENDBRANCH   5   7
BRANCH   1   9
ATOM      9  C   UNL     1      32.183 -13.565 -20.352  0.00  0.00    +0.037 C 
BRANCH   9  10
ATOM     10  C   UNL     1      32.370 -12.041 -20.238  0.00  0.00    +0.103 C 
BRANCH  10  12
ATOM     11  O   UNL     1      32.251 -10.652 -22.235  0.00  0.00    -0.250 OA
ATOM     12  C   UNL     1      31.681 -11.356 -21.410  0.00  0.00    +0.314 C 
BRANCH  12  13
ATOM     13  O   UNL     1      30.352 -11.626 -21.466  0.00  0.00    -0.480 OA
ATOM     14  H   UNL     1      29.933 -11.750 -22.295  0.00  0.00    +0.295 HD
ENDBRANCH  12  13
ENDBRANCH  10  12
BRANCH  10  15
ATOM     15  C   UNL     1      31.786 -11.530 -18.908  0.00  0.00    +0.011 C 
ATOM     16  C   UNL     1      31.767 -10.009 -18.820  0.00  0.00    +0.001 C 
ENDBRANCH  10  15
ENDBRANCH   9  10
ENDBRANCH   1   9
BRANCH   3  17
ATOM     17  C   UNL     1      35.819 -16.602 -21.975  0.00  0.00    +0.120 C 
BRANCH  17  19
ATOM     18  O   UNL     1      35.640 -19.376 -22.693  0.00  0.00    -0.270 OA
ATOM     19  N   UNL     1      35.383 -17.683 -21.128  0.00  0.00    -0.297 N 
ATOM     20  C   UNL     1      35.329 -18.999 -21.565  0.00  0.00    +0.248 C 
ATOM     21  H   UNL     1      35.113 -17.481 -20.204  0.00  0.00    +0.150 HD
BRANCH  20  23
ATOM     22  F   UNL     1      37.055 -20.645 -20.052  0.00  0.00    -0.204 F 
ATOM     23  C   UNL     1      34.832 -19.994 -20.580  0.00  0.00    +0.081 C 
ATOM     24  C   UNL     1      35.734 -20.779 -19.862  0.00  0.00    +0.144 C 
ATOM     25  C   UNL     1      33.461 -20.141 -20.374  0.00  0.00    +0.007 C 
ATOM     26  C   UNL     1      33.894 -21.858 -18.730  0.00  0.00    +0.074 C 
ATOM     27  C   UNL     1      35.265 -21.711 -18.936  0.00  0.00    +0.034 C 
ATOM     28  C   UNL     1      32.992 -21.074 -19.449  0.00  0.00    +0.004 C 
BRANCH  26  32
ATOM     29  F   UNL     1      34.107 -22.878 -16.576  0.00  0.00    -0.166 F 
ATOM     30  F   UNL     1      32.098 -22.643 -17.359  0.00  0.00    -0.166 F 
ATOM     31  F   UNL     1      33.428 -24.133 -18.218  0.00  0.00    -0.166 F 
ATOM     32  C   UNL     1      33.392 -22.855 -17.740  0.00  0.00    +0.419 C 
ENDBRANCH  26  32
ENDBRANCH  20  23
ENDBRANCH  17  19
ENDBRANCH   3  17
TORSDOF 10
ENDMDL
MODEL 8
REMARK VINA RESULT:     -10.0      8.859     12.276
REMARK  Name = 11711595
REMARK  10 active torsions:
REMARK  status: ('A' for Active; 'I' for Inactive)
REMARK    1  A    between atoms: C_1  and  C_9
REMARK    2  A    between atoms: C_3  and  C_17
REMARK    3  A    between atoms: C_5  and  O_7
REMARK    4  A    between atoms: C_9  and  C_10
REMARK    5  A    between atoms: C_10  and  C_12
REMARK    6  A    between atoms: C_10  and  C_15
REMARK    7  A    between atoms: C_12  and  O_13
REMARK    8  A    between atoms: C_17  and  N_19
REMARK    9  A    between atoms: C_20  and  C_23
REMARK   10  A    between atoms: C_26  and  C_32
REMARK                            x       y       z     vdW  Elec       q    Type
REMARK                         _______ _______ _______ _____ _____    ______ ____
ROOT
ATOM      1  C   UNL     1      34.456 -16.158 -21.118  0.00  0.00    -0.022 C 
ATOM      2  C   UNL     1      34.589 -15.299 -22.210  0.00  0.00    -0.004 C 
ATOM      3  C   UNL     1      33.782 -14.165 -22.308  0.00  0.00    +0.031 C 
ATOM      4  C   UNL     1      33.515 -15.883 -20.126  0.00  0.00    -0.001 C 
ATOM      5  C   UNL     1      32.841 -13.891 -21.314  0.00  0.00    +0.136 C 
ATOM      6  C   UNL     1      32.708 -14.750 -20.224  0.00  0.00    +0.036 C 
ENDROOT
BRANCH   5   7
ATOM      7  O   UNL     1      32.045 -12.789 -21.395  0.00  0.00    -0.472 OA
ATOM      8  C   UNL     1      31.802 -12.075 -20.184  0.00  0.00    +0.252 C 
ENDBRANCH   5   7
BRANCH   1   9
ATOM      9  C   UNL     1      35.329 -17.385 -21.012  0.00  0.00    +0.037 C 
BRANCH   9  10
ATOM     10  C   UNL     1      34.681 -18.646 -21.614  0.00  0.00    +0.103 C 
BRANCH  10  12
ATOM     11  O   UNL     1      34.819 -19.501 -23.890  0.00  0.00    -0.250 OA
ATOM     12  C   UNL     1      35.377 -18.998 -22.922  0.00  0.00    +0.314 C 
BRANCH  12  13
ATOM     13  O   UNL     1      36.694 -18.673 -22.919  0.00  0.00    -0.480 OA
ATOM     14  H   UNL     1      36.985 -17.891 -23.346  0.00  0.00    +0.295 HD
ENDBRANCH  12  13
ENDBRANCH  10  12
BRANCH  10  15
ATOM     15  C   UNL     1      34.785 -19.822 -20.625  0.00  0.00    +0.011 C 
ATOM     16  C   UNL     1      33.425 -20.400 -20.256  0.00  0.00    +0.001 C 
ENDBRANCH  10  15
ENDBRANCH   9  10
ENDBRANCH   1   9
BRANCH   3  17
ATOM     17  C   UNL     1      33.938 -13.258 -23.483  0.00  0.00    +0.120 C 
BRANCH  17  19
ATOM     18  O   UNL     1      34.954 -10.860 -24.690  0.00  0.00    -0.270 OA
ATOM     19  N   UNL     1      33.533 -11.908 -23.187  0.00  0.00    -0.297 N 
ATOM     20  C   UNL     1      34.084 -10.805 -23.825  0.00  0.00    +0.248 C 
ATOM     21  H   UNL     1      32.839 -11.761 -22.505  0.00  0.00    +0.150 HD
BRANCH  20  23
ATOM     22  F   UNL     1      35.706  -8.493 -23.771  0.00  0.00    -0.204 F 
ATOM     23  C   UNL     1      33.578  -9.478 -23.388  0.00  0.00    +0.081 C 
ATOM     24  C   UNL     1      34.427  -8.372 -23.383  0.00  0.00    +0.144 C 
ATOM     25  C   UNL     1      32.251  -9.340 -22.983  0.00  0.00    +0.007 C 
ATOM     26  C   UNL     1      32.623  -6.989 -22.570  0.00  0.00    +0.074 C 
ATOM     27  C   UNL     1      33.950  -7.127 -22.974  0.00  0.00    +0.034 C 
ATOM     28  C   UNL     1      31.773  -8.095 -22.573  0.00  0.00    +0.004 C 
BRANCH  26  32
ATOM     29  F   UNL     1      30.750  -5.601 -22.029  0.00  0.00    -0.166 F 
ATOM     30  F   UNL     1      32.578  -5.268 -20.909  0.00  0.00    -0.166 F 
ATOM     31  F   UNL     1      32.456  -4.655 -22.992  0.00  0.00    -0.166 F 
ATOM     32  C   UNL     1      32.111  -5.658 -22.132  0.00  0.00    +0.419 C 
ENDBRANCH  26  32
ENDBRANCH  20  23
ENDBRANCH  17  19
ENDBRANCH   3  17
TORSDOF 10
ENDMDL
MODEL 9
REMARK VINA RESULT:      -9.9     11.182     14.623
REMARK  Name = 11711595
REMARK  10 active torsions:
REMARK  status: ('A' for Active; 'I' for Inactive)
REMARK    1  A    between atoms: C_1  and  C_9
REMARK    2  A    between atoms: C_3  and  C_17
REMARK    3  A    between atoms: C_5  and  O_7
REMARK    4  A    between atoms: C_9  and  C_10
REMARK    5  A    between atoms: C_10  and  C_12
REMARK    6  A    between atoms: C_10  and  C_15
REMARK    7  A    between atoms: C_12  and  O_13
REMARK    8  A    between atoms: C_17  and  N_19
REMARK    9  A    between atoms: C_20  and  C_23
REMARK   10  A    between atoms: C_26  and  C_32
REMARK                            x       y       z     vdW  Elec       q    Type
REMARK                         _______ _______ _______ _____ _____    ______ ____
ROOT
ATOM      1  C   UNL     1      33.308 -12.912 -22.465  0.00  0.00    -0.022 C 
ATOM      2  C   UNL     1      32.682 -11.672 -22.601  0.00  0.00    -0.004 C 
ATOM      3  C   UNL     1      31.869 -11.186 -21.577  0.00  0.00    +0.031 C 
ATOM      4  C   UNL     1      33.122 -13.664 -21.305  0.00  0.00    -0.001 C 
ATOM      5  C   UNL     1      31.683 -11.939 -20.417  0.00  0.00    +0.136 C 
ATOM      6  C   UNL     1      32.309 -13.177 -20.281  0.00  0.00    +0.036 C 
ENDROOT
BRANCH   5   7
ATOM      7  O   UNL     1      30.892 -11.478 -19.407  0.00  0.00    -0.472 OA
ATOM      8  C   UNL     1      31.535 -10.757 -18.358  0.00  0.00    +0.252 C 
ENDBRANCH   5   7
BRANCH   1   9
ATOM      9  C   UNL     1      34.188 -13.439 -23.574  0.00  0.00    +0.037 C 
BRANCH   9  10
ATOM     10  C   UNL     1      33.888 -14.903 -23.943  0.00  0.00    +0.103 C 
BRANCH  10  12
ATOM     11  O   UNL     1      34.107 -15.684 -26.239  0.00  0.00    -0.250 OA
ATOM     12  C   UNL     1      33.520 -14.990 -25.418  0.00  0.00    +0.314 C 
BRANCH  12  13
ATOM     13  O   UNL     1      32.444 -14.226 -25.735  0.00  0.00    -0.480 OA
ATOM     14  H   UNL     1      31.577 -14.560 -25.605  0.00  0.00    +0.295 HD
ENDBRANCH  12  13
ENDBRANCH  10  12
BRANCH  10  15
ATOM     15  C   UNL     1      35.114 -15.788 -23.650  0.00  0.00    +0.011 C 
ATOM     16  C   UNL     1      35.051 -16.441 -22.275  0.00  0.00    +0.001 C 
ENDBRANCH  10  15
ENDBRANCH   9  10
ENDBRANCH   1   9
BRANCH   3  17
ATOM     17  C   UNL     1      31.207  -9.858 -21.739  0.00  0.00    +0.120 C 
BRANCH  17  19
ATOM     18  O   UNL     1      32.796  -7.575 -21.030  0.00  0.00    -0.270 OA
ATOM     19  N   UNL     1      31.926  -8.997 -22.643  0.00  0.00    -0.297 N 
ATOM     20  C   UNL     1      32.672  -7.910 -22.205  0.00  0.00    +0.248 C 
ATOM     21  H   UNL     1      31.887  -9.185 -23.608  0.00  0.00    +0.150 HD
BRANCH  20  23
ATOM     22  F   UNL     1      31.271  -6.055 -23.810  0.00  0.00    -0.204 F 
ATOM     23  C   UNL     1      33.332  -7.104 -23.263  0.00  0.00    +0.081 C 
ATOM     24  C   UNL     1      32.588  -6.202 -24.024  0.00  0.00    +0.144 C 
ATOM     25  C   UNL     1      34.700  -7.248 -23.495  0.00  0.00    +0.007 C 
ATOM     26  C   UNL     1      34.578  -5.590 -25.247  0.00  0.00    +0.074 C 
ATOM     27  C   UNL     1      33.210  -5.445 -25.016  0.00  0.00    +0.034 C 
ATOM     28  C   UNL     1      35.323  -6.492 -24.487  0.00  0.00    +0.004 C 
BRANCH  26  32
ATOM     29  F   UNL     1      34.928  -3.451 -26.262  0.00  0.00    -0.166 F 
ATOM     30  F   UNL     1      36.608  -4.824 -26.254  0.00  0.00    -0.166 F 
ATOM     31  F   UNL     1      34.914  -5.192 -27.567  0.00  0.00    -0.166 F 
ATOM     32  C   UNL     1      35.244  -4.780 -26.308  0.00  0.00    +0.419 C 
ENDBRANCH  26  32
ENDBRANCH  20  23
ENDBRANCH  17  19
ENDBRANCH   3  17
TORSDOF 10
ENDMDL
