MODEL 1
REMARK VINA RESULT:     -12.1      0.000      0.000
REMARK  Name = 24883488
REMARK  8 active torsions:
REMARK  status: ('A' for Active; 'I' for Inactive)
REMARK    1  A    between atoms: N_2  and  C_11
REMARK    2  A    between atoms: C_3  and  C_19
REMARK    3  A    between atoms: C_19  and  C_20
REMARK    4  A    between atoms: C_20  and  C_23
REMARK    5  A    between atoms: N_22  and  C_25
REMARK    6  A    between atoms: C_27  and  O_31
REMARK    7  A    between atoms: O_31  and  C_32
REMARK    8  A    between atoms: C_32  and  C_34
REMARK                            x       y       z     vdW  Elec       q    Type
REMARK                         _______ _______ _______ _____ _____    ______ ____
ROOT
ATOM      1  O   UNL     1      33.172 -20.742 -20.106  0.00  0.00    -0.275 OA
ATOM      2  N   UNL     1      35.366 -20.034 -20.586  0.00  0.00    -0.284 N 
ATOM      3  C   UNL     1      34.388 -20.808 -19.950  0.00  0.00    +0.227 C 
ATOM      4  H   UNL     1      36.296 -20.210 -20.315  0.00  0.00    +0.155 HD
ENDROOT
BRANCH   2  11
ATOM      5  O   UNL     1      34.573 -14.987 -20.567  0.00  0.00    -0.282 OA
ATOM      6  O   UNL     1      34.691 -16.329 -25.730  0.00  0.00    -0.270 OA
ATOM      7  O   UNL     1      34.245 -13.126 -22.428  0.00  0.00    -0.266 OA
ATOM      8  N   UNL     1      34.466 -14.730 -24.092  0.00  0.00    -0.246 N 
ATOM      9  C   UNL     1      34.817 -16.731 -22.145  0.00  0.00    +0.049 C 
ATOM     10  C   UNL     1      34.846 -17.064 -23.499  0.00  0.00    +0.057 C 
ATOM     11  C   UNL     1      35.191 -19.045 -21.555  0.00  0.00    +0.050 C 
ATOM     12  C   UNL     1      34.989 -17.720 -21.169  0.00  0.00    +0.018 C 
ATOM     13  C   UNL     1      35.048 -18.396 -23.879  0.00  0.00    +0.006 C 
ATOM     14  C   UNL     1      35.221 -19.383 -22.907  0.00  0.00    +0.015 C 
ATOM     15  C   UNL     1      34.605 -15.337 -21.736  0.00  0.00    +0.249 C 
ATOM     16  C   UNL     1      34.664 -16.031 -24.540  0.00  0.00    +0.252 C 
ATOM     17  C   UNL     1      34.420 -14.282 -22.785  0.00  0.00    +0.291 C 
ATOM     18  H   UNL     1      34.346 -14.046 -24.789  0.00  0.00    +0.158 HD
ENDBRANCH   2  11
BRANCH   3  19
ATOM     19  C   UNL     1      34.984 -21.783 -18.948  0.00  0.00    +0.095 C 
BRANCH  19  20
ATOM     20  C   UNL     1      36.471 -21.514 -18.731  0.00  0.00    +0.095 C 
BRANCH  20  23
ATOM     21  O   UNL     1      37.698 -21.000 -16.745  0.00  0.00    -0.275 OA
ATOM     22  N   UNL     1      36.158 -22.775 -16.702  0.00  0.00    -0.284 N 
ATOM     23  C   UNL     1      36.866 -21.728 -17.279  0.00  0.00    +0.227 C 
ATOM     24  H   UNL     1      35.510 -23.233 -17.285  0.00  0.00    +0.155 HD
BRANCH  22  25
ATOM     25  C   UNL     1      36.257 -23.260 -15.378  0.00  0.00    +0.053 C 
ATOM     26  C   UNL     1      37.496 -23.647 -14.867  0.00  0.00    +0.052 C 
ATOM     27  C   UNL     1      37.593 -24.126 -13.561  0.00  0.00    +0.140 C 
ATOM     28  C   UNL     1      35.115 -23.352 -14.582  0.00  0.00    +0.015 C 
ATOM     29  C   UNL     1      36.450 -24.218 -12.765  0.00  0.00    +0.037 C 
ATOM     30  C   UNL     1      35.211 -23.831 -13.276  0.00  0.00    +0.004 C 
BRANCH  27  31
ATOM     31  O   UNL     1      38.801 -24.504 -13.062  0.00  0.00    -0.472 OA
BRANCH  31  32
ATOM     32  C   UNL     1      39.241 -25.828 -13.359  0.00  0.00    +0.243 C 
BRANCH  32  34
ATOM     33  F   UNL     1      40.369 -25.725 -15.402  0.00  0.00    -0.230 F 
ATOM     34  C   UNL     1      40.580 -25.752 -14.057  0.00  0.00    +0.240 C 
ENDBRANCH  32  34
ENDBRANCH  31  32
ENDBRANCH  27  31
ENDBRANCH  22  25
ENDBRANCH  20  23
ENDBRANCH  19  20
ENDBRANCH   3  19
TORSDOF 8
ENDMDL
MODEL 2
REMARK VINA RESULT:     -11.9      5.056     11.603
REMARK  Name = 24883488
REMARK  8 active torsions:
REMARK  status: ('A' for Active; 'I' for Inactive)
REMARK    1  A    between atoms: N_2  and  C_11
REMARK    2  A    between atoms: C_3  and  C_19
REMARK    3  A    between atoms: C_19  and  C_20
REMARK    4  A    between atoms: C_20  and  C_23
REMARK    5  A    between atoms: N_22  and  C_25
REMARK    6  A    between atoms: C_27  and  O_31
REMARK    7  A    between atoms: O_31  and  C_32
REMARK    8  A    between atoms: C_32  and  C_34
REMARK                            x       y       z     vdW  Elec       q    Type
REMARK                         _______ _______ _______ _____ _____    ______ ____
ROOT
ATOM      1  O   UNL     1      34.651 -15.802 -21.408  0.00  0.00    -0.275 OA
ATOM      2  N   UNL     1      35.561 -17.609 -22.613  0.00  0.00    -0.284 N 
ATOM      3  C   UNL     1      35.076 -16.306 -22.443  0.00  0.00    +0.227 C 
ATOM      4  H   UNL     1      35.838 -17.848 -23.527  0.00  0.00    +0.155 HD
ENDROOT
BRANCH   2  11
ATOM      5  O   UNL     1      32.421 -20.863 -20.237  0.00  0.00    -0.282 OA
ATOM      6  O   UNL     1      37.257 -21.941 -18.254  0.00  0.00    -0.270 OA
ATOM      7  O   UNL     1      32.711 -22.767 -18.412  0.00  0.00    -0.266 OA
ATOM      8  N   UNL     1      34.995 -22.356 -18.326  0.00  0.00    -0.246 N 
ATOM      9  C   UNL     1      34.724 -20.330 -20.260  0.00  0.00    +0.049 C 
ATOM     10  C   UNL     1      35.981 -20.625 -19.732  0.00  0.00    +0.057 C 
ATOM     11  C   UNL     1      35.699 -18.612 -21.653  0.00  0.00    +0.050 C 
ATOM     12  C   UNL     1      34.580 -19.323 -21.221  0.00  0.00    +0.018 C 
ATOM     13  C   UNL     1      37.101 -19.907 -20.169  0.00  0.00    +0.006 C 
ATOM     14  C   UNL     1      36.958 -18.903 -21.129  0.00  0.00    +0.015 C 
ATOM     15  C   UNL     1      33.544 -21.077 -19.808  0.00  0.00    +0.249 C 
ATOM     16  C   UNL     1      36.148 -21.684 -18.716  0.00  0.00    +0.252 C 
ATOM     17  C   UNL     1      33.704 -22.154 -18.777  0.00  0.00    +0.291 C 
ATOM     18  H   UNL     1      35.112 -23.061 -17.649  0.00  0.00    +0.158 HD
ENDBRANCH   2  11
BRANCH   3  19
ATOM     19  C   UNL     1      35.082 -15.514 -23.740  0.00  0.00    +0.095 C 
BRANCH  19  20
ATOM     20  C   UNL     1      33.720 -14.879 -24.008  0.00  0.00    +0.095 C 
BRANCH  20  23
ATOM     21  O   UNL     1      34.300 -12.578 -23.722  0.00  0.00    -0.275 OA
ATOM     22  N   UNL     1      32.634 -13.509 -22.351  0.00  0.00    -0.284 N 
ATOM     23  C   UNL     1      33.604 -13.517 -23.345  0.00  0.00    +0.227 C 
ATOM     24  H   UNL     1      32.157 -14.358 -22.203  0.00  0.00    +0.155 HD
BRANCH  22  25
ATOM     25  C   UNL     1      32.250 -12.428 -21.526  0.00  0.00    +0.053 C 
ATOM     26  C   UNL     1      32.132 -11.146 -22.064  0.00  0.00    +0.052 C 
ATOM     27  C   UNL     1      31.753 -10.079 -21.250  0.00  0.00    +0.140 C 
ATOM     28  C   UNL     1      31.989 -12.642 -20.172  0.00  0.00    +0.015 C 
ATOM     29  C   UNL     1      31.491 -10.294 -19.896  0.00  0.00    +0.037 C 
ATOM     30  C   UNL     1      31.609 -11.575 -19.357  0.00  0.00    +0.004 C 
BRANCH  27  31
ATOM     31  O   UNL     1      31.637  -8.829 -21.774  0.00  0.00    -0.472 OA
BRANCH  31  32
ATOM     32  C   UNL     1      32.625  -8.430 -22.723  0.00  0.00    +0.243 C 
BRANCH  32  34
ATOM     33  F   UNL     1      33.526  -7.491 -20.783  0.00  0.00    -0.230 F 
ATOM     34  C   UNL     1      33.446  -7.307 -22.130  0.00  0.00    +0.240 C 
ENDBRANCH  32  34
ENDBRANCH  31  32
ENDBRANCH  27  31
ENDBRANCH  22  25
ENDBRANCH  20  23
ENDBRANCH  19  20
ENDBRANCH   3  19
TORSDOF 8
ENDMDL
MODEL 3
REMARK VINA RESULT:     -11.9      2.199      3.058
REMARK  Name = 24883488
REMARK  8 active torsions:
REMARK  status: ('A' for Active; 'I' for Inactive)
REMARK    1  A    between atoms: N_2  and  C_11
REMARK    2  A    between atoms: C_3  and  C_19
REMARK    3  A    between atoms: C_19  and  C_20
REMARK    4  A    between atoms: C_20  and  C_23
REMARK    5  A    between atoms: N_22  and  C_25
REMARK    6  A    between atoms: C_27  and  O_31
REMARK    7  A    between atoms: O_31  and  C_32
REMARK    8  A    between atoms: C_32  and  C_34
REMARK                            x       y       z     vdW  Elec       q    Type
REMARK                         _______ _______ _______ _____ _____    ______ ____
ROOT
ATOM      1  O   UNL     1      33.102 -20.855 -20.037  0.00  0.00    -0.275 OA
ATOM      2  N   UNL     1      35.311 -20.183 -20.497  0.00  0.00    -0.284 N 
ATOM      3  C   UNL     1      34.315 -20.939 -19.867  0.00  0.00    +0.227 C 
ATOM      4  H   UNL     1      36.236 -20.372 -20.215  0.00  0.00    +0.155 HD
ENDROOT
BRANCH   2  11
ATOM      5  O   UNL     1      34.593 -15.125 -20.511  0.00  0.00    -0.282 OA
ATOM      6  O   UNL     1      34.747 -16.494 -25.666  0.00  0.00    -0.270 OA
ATOM      7  O   UNL     1      34.313 -13.269 -22.384  0.00  0.00    -0.266 OA
ATOM      8  N   UNL     1      34.529 -14.884 -24.038  0.00  0.00    -0.246 N 
ATOM      9  C   UNL     1      34.828 -16.881 -22.078  0.00  0.00    +0.049 C 
ATOM     10  C   UNL     1      34.867 -17.221 -23.430  0.00  0.00    +0.057 C 
ATOM     11  C   UNL     1      35.162 -19.197 -21.472  0.00  0.00    +0.050 C 
ATOM     12  C   UNL     1      34.975 -17.867 -21.096  0.00  0.00    +0.018 C 
ATOM     13  C   UNL     1      35.054 -18.557 -23.802  0.00  0.00    +0.006 C 
ATOM     14  C   UNL     1      35.202 -19.542 -22.822  0.00  0.00    +0.015 C 
ATOM     15  C   UNL     1      34.633 -15.481 -21.678  0.00  0.00    +0.249 C 
ATOM     16  C   UNL     1      34.712 -16.190 -24.477  0.00  0.00    +0.252 C 
ATOM     17  C   UNL     1      34.474 -14.429 -22.734  0.00  0.00    +0.291 C 
ATOM     18  H   UNL     1      34.426 -14.202 -24.740  0.00  0.00    +0.158 HD
ENDBRANCH   2  11
BRANCH   3  19
ATOM     19  C   UNL     1      34.886 -21.918 -18.854  0.00  0.00    +0.095 C 
BRANCH  19  20
ATOM     20  C   UNL     1      36.333 -21.578 -18.510  0.00  0.00    +0.095 C 
BRANCH  20  23
ATOM     21  O   UNL     1      37.609 -21.448 -16.493  0.00  0.00    -0.275 OA
ATOM     22  N   UNL     1      35.789 -22.930 -16.593  0.00  0.00    -0.284 N 
ATOM     23  C   UNL     1      36.671 -21.975 -17.083  0.00  0.00    +0.227 C 
ATOM     24  H   UNL     1      35.078 -23.221 -17.209  0.00  0.00    +0.155 HD
BRANCH  22  25
ATOM     25  C   UNL     1      35.790 -23.533 -15.314  0.00  0.00    +0.053 C 
ATOM     26  C   UNL     1      34.597 -23.658 -14.601  0.00  0.00    +0.052 C 
ATOM     27  C   UNL     1      34.598 -24.253 -13.339  0.00  0.00    +0.140 C 
ATOM     28  C   UNL     1      36.983 -24.003 -14.766  0.00  0.00    +0.015 C 
ATOM     29  C   UNL     1      35.793 -24.723 -12.791  0.00  0.00    +0.037 C 
ATOM     30  C   UNL     1      36.985 -24.599 -13.505  0.00  0.00    +0.004 C 
BRANCH  27  31
ATOM     31  O   UNL     1      33.436 -24.375 -12.642  0.00  0.00    -0.472 OA
BRANCH  31  32
ATOM     32  C   UNL     1      32.288 -24.812 -13.367  0.00  0.00    +0.243 C 
BRANCH  32  34
ATOM     33  F   UNL     1      31.486 -22.657 -13.779  0.00  0.00    -0.230 F 
ATOM     34  C   UNL     1      31.166 -23.822 -13.148  0.00  0.00    +0.240 C 
ENDBRANCH  32  34
ENDBRANCH  31  32
ENDBRANCH  27  31
ENDBRANCH  22  25
ENDBRANCH  20  23
ENDBRANCH  19  20
ENDBRANCH   3  19
TORSDOF 8
ENDMDL
MODEL 4
REMARK VINA RESULT:     -11.8      3.290     11.249
REMARK  Name = 24883488
REMARK  8 active torsions:
REMARK  status: ('A' for Active; 'I' for Inactive)
REMARK    1  A    between atoms: N_2  and  C_11
REMARK    2  A    between atoms: C_3  and  C_19
REMARK    3  A    between atoms: C_19  and  C_20
REMARK    4  A    between atoms: C_20  and  C_23
REMARK    5  A    between atoms: N_22  and  C_25
REMARK    6  A    between atoms: C_27  and  O_31
REMARK    7  A    between atoms: O_31  and  C_32
REMARK    8  A    between atoms: C_32  and  C_34
REMARK                            x       y       z     vdW  Elec       q    Type
REMARK                         _______ _______ _______ _____ _____    ______ ____
ROOT
ATOM      1  O   UNL     1      32.834 -23.526 -16.309  0.00  0.00    -0.275 OA
ATOM      2  N   UNL     1      35.000 -22.734 -16.780  0.00  0.00    -0.284 N 
ATOM      3  C   UNL     1      33.637 -22.937 -17.026  0.00  0.00    +0.227 C 
ATOM      4  H   UNL     1      35.497 -22.258 -17.484  0.00  0.00    +0.155 HD
ENDROOT
BRANCH   2  11
ATOM      5  O   UNL     1      33.944 -24.493 -12.102  0.00  0.00    -0.282 OA
ATOM      6  O   UNL     1      39.272 -24.256 -12.299  0.00  0.00    -0.270 OA
ATOM      7  O   UNL     1      35.383 -25.224  -9.996  0.00  0.00    -0.266 OA
ATOM      8  N   UNL     1      37.341 -24.739 -11.147  0.00  0.00    -0.246 N 
ATOM      9  C   UNL     1      35.847 -23.954 -13.399  0.00  0.00    +0.049 C 
ATOM     10  C   UNL     1      37.240 -23.899 -13.434  0.00  0.00    +0.057 C 
ATOM     11  C   UNL     1      35.745 -23.120 -15.666  0.00  0.00    +0.050 C 
ATOM     12  C   UNL     1      35.096 -23.565 -14.514  0.00  0.00    +0.018 C 
ATOM     13  C   UNL     1      37.886 -23.451 -14.592  0.00  0.00    +0.006 C 
ATOM     14  C   UNL     1      37.137 -23.064 -15.705  0.00  0.00    +0.015 C 
ATOM     15  C   UNL     1      35.160 -24.422 -12.188  0.00  0.00    +0.249 C 
ATOM     16  C   UNL     1      38.046 -24.306 -12.264  0.00  0.00    +0.252 C 
ATOM     17  C   UNL     1      35.970 -24.836 -10.996  0.00  0.00    +0.291 C 
ATOM     18  H   UNL     1      37.882 -25.009 -10.370  0.00  0.00    +0.158 HD
ENDBRANCH   2  11
BRANCH   3  19
ATOM     19  C   UNL     1      33.200 -22.364 -18.364  0.00  0.00    +0.095 C 
BRANCH  19  20
ATOM     20  C   UNL     1      34.383 -21.775 -19.128  0.00  0.00    +0.095 C 
BRANCH  20  23
ATOM     21  O   UNL     1      32.744 -20.483 -20.294  0.00  0.00    -0.275 OA
ATOM     22  N   UNL     1      35.017 -19.968 -20.589  0.00  0.00    -0.284 N 
ATOM     23  C   UNL     1      33.937 -20.677 -20.078  0.00  0.00    +0.227 C 
ATOM     24  H   UNL     1      35.908 -20.255 -20.283  0.00  0.00    +0.155 HD
BRANCH  22  25
ATOM     25  C   UNL     1      34.990 -18.884 -21.496  0.00  0.00    +0.053 C 
ATOM     26  C   UNL     1      34.908 -17.576 -21.018  0.00  0.00    +0.052 C 
ATOM     27  C   UNL     1      34.881 -16.506 -21.913  0.00  0.00    +0.140 C 
ATOM     28  C   UNL     1      35.045 -19.122 -22.869  0.00  0.00    +0.015 C 
ATOM     29  C   UNL     1      34.936 -16.745 -23.287  0.00  0.00    +0.037 C 
ATOM     30  C   UNL     1      35.019 -18.053 -23.765  0.00  0.00    +0.004 C 
BRANCH  27  31
ATOM     31  O   UNL     1      34.800 -15.230 -21.447  0.00  0.00    -0.472 OA
BRANCH  31  32
ATOM     32  C   UNL     1      33.649 -14.475 -21.820  0.00  0.00    +0.243 C 
BRANCH  32  34
ATOM     33  F   UNL     1      32.141 -15.358 -20.270  0.00  0.00    -0.230 F 
ATOM     34  C   UNL     1      32.814 -14.217 -20.586  0.00  0.00    +0.240 C 
ENDBRANCH  32  34
ENDBRANCH  31  32
ENDBRANCH  27  31
ENDBRANCH  22  25
ENDBRANCH  20  23
ENDBRANCH  19  20
ENDBRANCH   3  19
TORSDOF 8
ENDMDL
MODEL 5
REMARK VINA RESULT:     -11.8      3.617      4.798
REMARK  Name = 24883488
REMARK  8 active torsions:
REMARK  status: ('A' for Active; 'I' for Inactive)
REMARK    1  A    between atoms: N_2  and  C_11
REMARK    2  A    between atoms: C_3  and  C_19
REMARK    3  A    between atoms: C_19  and  C_20
REMARK    4  A    between atoms: C_20  and  C_23
REMARK    5  A    between atoms: N_22  and  C_25
REMARK    6  A    between atoms: C_27  and  O_31
REMARK    7  A    between atoms: O_31  and  C_32
REMARK    8  A    between atoms: C_32  and  C_34
REMARK                            x       y       z     vdW  Elec       q    Type
REMARK                         _______ _______ _______ _____ _____    ______ ____
ROOT
ATOM      1  O   UNL     1      37.951 -18.828 -20.754  0.00  0.00    -0.275 OA
ATOM      2  N   UNL     1      35.632 -19.150 -20.993  0.00  0.00    -0.284 N 
ATOM      3  C   UNL     1      36.902 -19.389 -20.455  0.00  0.00    +0.227 C 
ATOM      4  H   UNL     1      34.905 -19.718 -20.648  0.00  0.00    +0.155 HD
ENDROOT
BRANCH   2  11
ATOM      5  O   UNL     1      34.509 -14.166 -21.011  0.00  0.00    -0.282 OA
ATOM      6  O   UNL     1      34.034 -15.689 -26.104  0.00  0.00    -0.270 OA
ATOM      7  O   UNL     1      33.814 -12.400 -22.864  0.00  0.00    -0.266 OA
ATOM      8  N   UNL     1      33.921 -14.048 -24.496  0.00  0.00    -0.246 N 
ATOM      9  C   UNL     1      34.660 -15.949 -22.557  0.00  0.00    +0.049 C 
ATOM     10  C   UNL     1      34.532 -16.330 -23.893  0.00  0.00    +0.057 C 
ATOM     11  C   UNL     1      35.264 -18.211 -21.957  0.00  0.00    +0.050 C 
ATOM     12  C   UNL     1      35.026 -16.888 -21.586  0.00  0.00    +0.018 C 
ATOM     13  C   UNL     1      34.771 -17.659 -24.259  0.00  0.00    +0.006 C 
ATOM     14  C   UNL     1      35.138 -18.597 -23.291  0.00  0.00    +0.015 C 
ATOM     15  C   UNL     1      34.410 -14.556 -22.164  0.00  0.00    +0.249 C 
ATOM     16  C   UNL     1      34.145 -15.350 -24.929  0.00  0.00    +0.252 C 
ATOM     17  C   UNL     1      34.017 -13.555 -23.208  0.00  0.00    +0.291 C 
ATOM     18  H   UNL     1      33.664 -13.399 -25.190  0.00  0.00    +0.158 HD
ENDBRANCH   2  11
BRANCH   3  19
ATOM     19  C   UNL     1      36.891 -20.504 -19.422  0.00  0.00    +0.095 C 
BRANCH  19  20
ATOM     20  C   UNL     1      36.002 -21.662 -19.866  0.00  0.00    +0.095 C 
BRANCH  20  23
ATOM     21  O   UNL     1      33.732 -21.105 -19.365  0.00  0.00    -0.275 OA
ATOM     22  N   UNL     1      34.876 -22.594 -17.951  0.00  0.00    -0.284 N 
ATOM     23  C   UNL     1      34.732 -21.736 -19.035  0.00  0.00    +0.227 C 
ATOM     24  H   UNL     1      35.752 -23.034 -17.859  0.00  0.00    +0.155 HD
BRANCH  22  25
ATOM     25  C   UNL     1      33.914 -22.912 -16.966  0.00  0.00    +0.053 C 
ATOM     26  C   UNL     1      32.556 -22.736 -17.234  0.00  0.00    +0.052 C 
ATOM     27  C   UNL     1      31.606 -23.049 -16.261  0.00  0.00    +0.140 C 
ATOM     28  C   UNL     1      34.322 -23.400 -15.725  0.00  0.00    +0.015 C 
ATOM     29  C   UNL     1      32.015 -23.538 -15.020  0.00  0.00    +0.037 C 
ATOM     30  C   UNL     1      33.373 -23.713 -14.752  0.00  0.00    +0.004 C 
BRANCH  27  31
ATOM     31  O   UNL     1      30.282 -22.878 -16.522  0.00  0.00    -0.472 OA
BRANCH  31  32
ATOM     32  C   UNL     1      29.418 -22.696 -15.401  0.00  0.00    +0.243 C 
BRANCH  32  34
ATOM     33  F   UNL     1      28.326 -24.368 -16.614  0.00  0.00    -0.230 F 
ATOM     34  C   UNL     1      28.111 -23.407 -15.672  0.00  0.00    +0.240 C 
ENDBRANCH  32  34
ENDBRANCH  31  32
ENDBRANCH  27  31
ENDBRANCH  22  25
ENDBRANCH  20  23
ENDBRANCH  19  20
ENDBRANCH   3  19
TORSDOF 8
ENDMDL
MODEL 6
REMARK VINA RESULT:     -11.7      1.326      2.428
REMARK  Name = 24883488
REMARK  8 active torsions:
REMARK  status: ('A' for Active; 'I' for Inactive)
REMARK    1  A    between atoms: N_2  and  C_11
REMARK    2  A    between atoms: C_3  and  C_19
REMARK    3  A    between atoms: C_19  and  C_20
REMARK    4  A    between atoms: C_20  and  C_23
REMARK    5  A    between atoms: N_22  and  C_25
REMARK    6  A    between atoms: C_27  and  O_31
REMARK    7  A    between atoms: O_31  and  C_32
REMARK    8  A    between atoms: C_32  and  C_34
REMARK                            x       y       z     vdW  Elec       q    Type
REMARK                         _______ _______ _______ _____ _____    ______ ____
ROOT
ATOM      1  O   UNL     1      34.210 -20.105 -21.058  0.00  0.00    -0.275 OA
ATOM      2  N   UNL     1      35.822 -18.402 -20.853  0.00  0.00    -0.284 N 
ATOM      3  C   UNL     1      35.311 -19.697 -20.702  0.00  0.00    +0.227 C 
ATOM      4  H   UNL     1      36.720 -18.248 -20.482  0.00  0.00    +0.155 HD
ENDROOT
BRANCH   2  11
ATOM      5  O   UNL     1      34.946 -16.895 -25.656  0.00  0.00    -0.282 OA
ATOM      6  O   UNL     1      32.883 -13.025 -22.615  0.00  0.00    -0.270 OA
ATOM      7  O   UNL     1      33.793 -14.791 -26.788  0.00  0.00    -0.266 OA
ATOM      8  N   UNL     1      33.335 -13.897 -24.695  0.00  0.00    -0.246 N 
ATOM      9  C   UNL     1      34.551 -16.114 -23.459  0.00  0.00    +0.049 C 
ATOM     10  C   UNL     1      34.006 -15.093 -22.679  0.00  0.00    +0.057 C 
ATOM     11  C   UNL     1      35.219 -17.300 -21.462  0.00  0.00    +0.050 C 
ATOM     12  C   UNL     1      35.159 -17.219 -22.853  0.00  0.00    +0.018 C 
ATOM     13  C   UNL     1      34.070 -15.180 -21.284  0.00  0.00    +0.006 C 
ATOM     14  C   UNL     1      34.675 -16.283 -20.678  0.00  0.00    +0.015 C 
ATOM     15  C   UNL     1      34.488 -16.031 -24.924  0.00  0.00    +0.249 C 
ATOM     16  C   UNL     1      33.362 -13.920 -23.305  0.00  0.00    +0.252 C 
ATOM     17  C   UNL     1      33.838 -14.844 -25.568  0.00  0.00    +0.291 C 
ATOM     18  H   UNL     1      32.904 -13.113 -25.107  0.00  0.00    +0.158 HD
ENDBRANCH   2  11
BRANCH   3  19
ATOM     19  C   UNL     1      36.278 -20.618 -19.978  0.00  0.00    +0.095 C 
BRANCH  19  20
ATOM     20  C   UNL     1      35.536 -21.720 -19.226  0.00  0.00    +0.095 C 
BRANCH  20  23
ATOM     21  O   UNL     1      37.156 -21.365 -17.504  0.00  0.00    -0.275 OA
ATOM     22  N   UNL     1      35.333 -22.784 -17.074  0.00  0.00    -0.284 N 
ATOM     23  C   UNL     1      36.122 -21.934 -17.840  0.00  0.00    +0.227 C 
ATOM     24  H   UNL     1      34.519 -23.130 -17.508  0.00  0.00    +0.155 HD
BRANCH  22  25
ATOM     25  C   UNL     1      35.558 -23.210 -15.745  0.00  0.00    +0.053 C 
ATOM     26  C   UNL     1      36.862 -23.346 -15.267  0.00  0.00    +0.052 C 
ATOM     27  C   UNL     1      37.084 -23.767 -13.956  0.00  0.00    +0.140 C 
ATOM     28  C   UNL     1      34.477 -23.495 -14.912  0.00  0.00    +0.015 C 
ATOM     29  C   UNL     1      36.002 -24.052 -13.123  0.00  0.00    +0.037 C 
ATOM     30  C   UNL     1      34.698 -23.916 -13.600  0.00  0.00    +0.004 C 
BRANCH  27  31
ATOM     31  O   UNL     1      38.356 -23.900 -13.490  0.00  0.00    -0.472 OA
BRANCH  31  32
ATOM     32  C   UNL     1      38.723 -25.174 -12.963  0.00  0.00    +0.243 C 
BRANCH  32  34
ATOM     33  F   UNL     1      38.050 -27.020 -14.225  0.00  0.00    -0.230 F 
ATOM     34  C   UNL     1      39.049 -26.102 -14.112  0.00  0.00    +0.240 C 
ENDBRANCH  32  34
ENDBRANCH  31  32
ENDBRANCH  27  31
ENDBRANCH  22  25
ENDBRANCH  20  23
ENDBRANCH  19  20
ENDBRANCH   3  19
TORSDOF 8
ENDMDL
MODEL 7
REMARK VINA RESULT:     -11.7      3.372      4.943
REMARK  Name = 24883488
REMARK  8 active torsions:
REMARK  status: ('A' for Active; 'I' for Inactive)
REMARK    1  A    between atoms: N_2  and  C_11
REMARK    2  A    between atoms: C_3  and  C_19
REMARK    3  A    between atoms: C_19  and  C_20
REMARK    4  A    between atoms: C_20  and  C_23
REMARK    5  A    between atoms: N_22  and  C_25
REMARK    6  A    between atoms: C_27  and  O_31
REMARK    7  A    between atoms: O_31  and  C_32
REMARK    8  A    between atoms: C_32  and  C_34
REMARK                            x       y       z     vdW  Elec       q    Type
REMARK                         _______ _______ _______ _____ _____    ______ ____
ROOT
ATOM      1  O   UNL     1      34.142 -20.084 -20.929  0.00  0.00    -0.275 OA
ATOM      2  N   UNL     1      35.817 -18.431 -20.846  0.00  0.00    -0.284 N 
ATOM      3  C   UNL     1      35.272 -19.704 -20.639  0.00  0.00    +0.227 C 
ATOM      4  H   UNL     1      36.738 -18.300 -20.524  0.00  0.00    +0.155 HD
ENDROOT
BRANCH   2  11
ATOM      5  O   UNL     1      34.921 -16.919 -25.643  0.00  0.00    -0.282 OA
ATOM      6  O   UNL     1      32.919 -13.026 -22.590  0.00  0.00    -0.270 OA
ATOM      7  O   UNL     1      33.780 -14.805 -26.769  0.00  0.00    -0.266 OA
ATOM      8  N   UNL     1      33.346 -13.904 -24.673  0.00  0.00    -0.246 N 
ATOM      9  C   UNL     1      34.549 -16.132 -23.444  0.00  0.00    +0.049 C 
ATOM     10  C   UNL     1      34.021 -15.106 -22.661  0.00  0.00    +0.057 C 
ATOM     11  C   UNL     1      35.221 -17.324 -21.451  0.00  0.00    +0.050 C 
ATOM     12  C   UNL     1      35.151 -17.243 -22.842  0.00  0.00    +0.018 C 
ATOM     13  C   UNL     1      34.094 -15.192 -21.266  0.00  0.00    +0.006 C 
ATOM     14  C   UNL     1      34.693 -16.301 -20.664  0.00  0.00    +0.015 C 
ATOM     15  C   UNL     1      34.477 -16.050 -24.909  0.00  0.00    +0.249 C 
ATOM     16  C   UNL     1      33.384 -13.927 -23.283  0.00  0.00    +0.252 C 
ATOM     17  C   UNL     1      33.833 -14.857 -25.549  0.00  0.00    +0.291 C 
ATOM     18  H   UNL     1      32.921 -13.117 -25.082  0.00  0.00    +0.158 HD
ENDBRANCH   2  11
BRANCH   3  19
ATOM     19  C   UNL     1      36.245 -20.641 -19.941  0.00  0.00    +0.095 C 
BRANCH  19  20
ATOM     20  C   UNL     1      35.603 -21.998 -19.661  0.00  0.00    +0.095 C 
BRANCH  20  23
ATOM     21  O   UNL     1      36.244 -21.832 -17.365  0.00  0.00    -0.275 OA
ATOM     22  N   UNL     1      34.194 -22.848 -17.902  0.00  0.00    -0.284 N 
ATOM     23  C   UNL     1      35.403 -22.219 -18.171  0.00  0.00    +0.227 C 
ATOM     24  H   UNL     1      33.635 -23.065 -18.683  0.00  0.00    +0.155 HD
BRANCH  22  25
ATOM     25  C   UNL     1      33.671 -23.213 -16.641  0.00  0.00    +0.053 C 
ATOM     26  C   UNL     1      32.302 -23.107 -16.396  0.00  0.00    +0.052 C 
ATOM     27  C   UNL     1      31.786 -23.467 -15.150  0.00  0.00    +0.140 C 
ATOM     28  C   UNL     1      34.524 -23.680 -15.641  0.00  0.00    +0.015 C 
ATOM     29  C   UNL     1      32.640 -23.934 -14.151  0.00  0.00    +0.037 C 
ATOM     30  C   UNL     1      34.009 -24.041 -14.396  0.00  0.00    +0.004 C 
BRANCH  27  31
ATOM     31  O   UNL     1      30.450 -23.363 -14.911  0.00  0.00    -0.472 OA
BRANCH  31  32
ATOM     32  C   UNL     1      29.593 -24.260 -15.615  0.00  0.00    +0.243 C 
BRANCH  32  34
ATOM     33  F   UNL     1      28.388 -22.259 -15.656  0.00  0.00    -0.230 F 
ATOM     34  C   UNL     1      28.498 -23.461 -16.287  0.00  0.00    +0.240 C 
ENDBRANCH  32  34
ENDBRANCH  31  32
ENDBRANCH  27  31
ENDBRANCH  22  25
ENDBRANCH  20  23
ENDBRANCH  19  20
ENDBRANCH   3  19
TORSDOF 8
ENDMDL
MODEL 8
REMARK VINA RESULT:     -11.7      2.212      2.915
REMARK  Name = 24883488
REMARK  8 active torsions:
REMARK  status: ('A' for Active; 'I' for Inactive)
REMARK    1  A    between atoms: N_2  and  C_11
REMARK    2  A    between atoms: C_3  and  C_19
REMARK    3  A    between atoms: C_19  and  C_20
REMARK    4  A    between atoms: C_20  and  C_23
REMARK    5  A    between atoms: N_22  and  C_25
REMARK    6  A    between atoms: C_27  and  O_31
REMARK    7  A    between atoms: O_31  and  C_32
REMARK    8  A    between atoms: C_32  and  C_34
REMARK                            x       y       z     vdW  Elec       q    Type
REMARK                         _______ _______ _______ _____ _____    ______ ____
ROOT
ATOM      1  O   UNL     1      37.406 -19.745 -19.759  0.00  0.00    -0.275 OA
ATOM      2  N   UNL     1      35.283 -20.169 -20.685  0.00  0.00    -0.284 N 
ATOM      3  C   UNL     1      36.364 -20.390 -19.823  0.00  0.00    +0.227 C 
ATOM      4  H   UNL     1      34.537 -20.807 -20.611  0.00  0.00    +0.155 HD
ENDROOT
BRANCH   2  11
ATOM      5  O   UNL     1      34.634 -15.103 -20.579  0.00  0.00    -0.282 OA
ATOM      6  O   UNL     1      34.671 -16.365 -25.764  0.00  0.00    -0.270 OA
ATOM      7  O   UNL     1      34.344 -13.204 -22.408  0.00  0.00    -0.266 OA
ATOM      8  N   UNL     1      34.506 -14.786 -24.099  0.00  0.00    -0.246 N 
ATOM      9  C   UNL     1      34.815 -16.828 -22.187  0.00  0.00    +0.049 C 
ATOM     10  C   UNL     1      34.823 -17.140 -23.546  0.00  0.00    +0.057 C 
ATOM     11  C   UNL     1      35.129 -19.161 -21.637  0.00  0.00    +0.050 C 
ATOM     12  C   UNL     1      34.967 -17.836 -21.229  0.00  0.00    +0.018 C 
ATOM     13  C   UNL     1      34.985 -18.471 -23.949  0.00  0.00    +0.006 C 
ATOM     14  C   UNL     1      35.138 -19.477 -22.994  0.00  0.00    +0.015 C 
ATOM     15  C   UNL     1      34.647 -15.434 -21.754  0.00  0.00    +0.249 C 
ATOM     16  C   UNL     1      34.663 -16.085 -24.569  0.00  0.00    +0.252 C 
ATOM     17  C   UNL     1      34.482 -14.358 -22.785  0.00  0.00    +0.291 C 
ATOM     18  H   UNL     1      34.399 -14.088 -24.785  0.00  0.00    +0.158 HD
ENDBRANCH   2  11
BRANCH   3  19
ATOM     19  C   UNL     1      36.152 -21.601 -18.929  0.00  0.00    +0.095 C 
BRANCH  19  20
ATOM     20  C   UNL     1      34.975 -22.445 -19.410  0.00  0.00    +0.095 C 
BRANCH  20  23
ATOM     21  O   UNL     1      32.768 -21.930 -18.649  0.00  0.00    -0.275 OA
ATOM     22  N   UNL     1      34.208 -23.132 -17.233  0.00  0.00    -0.284 N 
ATOM     23  C   UNL     1      33.848 -22.455 -18.391  0.00  0.00    +0.227 C 
ATOM     24  H   UNL     1      35.117 -23.510 -17.216  0.00  0.00    +0.155 HD
BRANCH  22  25
ATOM     25  C   UNL     1      33.424 -23.345 -16.076  0.00  0.00    +0.053 C 
ATOM     26  C   UNL     1      34.041 -23.620 -14.855  0.00  0.00    +0.052 C 
ATOM     27  C   UNL     1      33.268 -23.830 -13.714  0.00  0.00    +0.140 C 
ATOM     28  C   UNL     1      32.033 -23.279 -16.154  0.00  0.00    +0.015 C 
ATOM     29  C   UNL     1      31.876 -23.764 -13.793  0.00  0.00    +0.037 C 
ATOM     30  C   UNL     1      31.259 -23.489 -15.013  0.00  0.00    +0.004 C 
BRANCH  27  31
ATOM     31  O   UNL     1      33.869 -24.099 -12.523  0.00  0.00    -0.472 OA
BRANCH  31  32
ATOM     32  C   UNL     1      35.237 -24.502 -12.563  0.00  0.00    +0.243 C 
BRANCH  32  34
ATOM     33  F   UNL     1      37.338 -23.620 -12.051  0.00  0.00    -0.230 F 
ATOM     34  C   UNL     1      36.037 -23.604 -11.647  0.00  0.00    +0.240 C 
ENDBRANCH  32  34
ENDBRANCH  31  32
ENDBRANCH  27  31
ENDBRANCH  22  25
ENDBRANCH  20  23
ENDBRANCH  19  20
ENDBRANCH   3  19
TORSDOF 8
ENDMDL
MODEL 9
REMARK VINA RESULT:     -11.4      3.473     11.194
REMARK  Name = 24883488
REMARK  8 active torsions:
REMARK  status: ('A' for Active; 'I' for Inactive)
REMARK    1  A    between atoms: N_2  and  C_11
REMARK    2  A    between atoms: C_3  and  C_19
REMARK    3  A    between atoms: C_19  and  C_20
REMARK    4  A    between atoms: C_20  and  C_23
REMARK    5  A    between atoms: N_22  and  C_25
REMARK    6  A    between atoms: C_27  and  O_31
REMARK    7  A    between atoms: O_31  and  C_32
REMARK    8  A    between atoms: C_32  and  C_34
REMARK                            x       y       z     vdW  Elec       q    Type
REMARK                         _______ _______ _______ _____ _____    ______ ____
ROOT
ATOM      1  O   UNL     1      37.541 -20.772 -17.087  0.00  0.00    -0.275 OA
ATOM      2  N   UNL     1      35.825 -22.280 -17.657  0.00  0.00    -0.284 N 
ATOM      3  C   UNL     1      36.807 -21.314 -17.908  0.00  0.00    +0.227 C 
ATOM      4  H   UNL     1      35.312 -22.585 -18.441  0.00  0.00    +0.155 HD
ENDROOT
BRANCH   2  11
ATOM      5  O   UNL     1      38.364 -24.019 -13.580  0.00  0.00    -0.282 OA
ATOM      6  O   UNL     1      33.218 -24.848 -12.436  0.00  0.00    -0.270 OA
ATOM      7  O   UNL     1      37.682 -25.129 -11.269  0.00  0.00    -0.266 OA
ATOM      8  N   UNL     1      35.438 -24.992 -11.850  0.00  0.00    -0.246 N 
ATOM      9  C   UNL     1      36.125 -23.813 -14.311  0.00  0.00    +0.049 C 
ATOM     10  C   UNL     1      34.785 -24.036 -13.996  0.00  0.00    +0.057 C 
ATOM     11  C   UNL     1      35.480 -22.866 -16.439  0.00  0.00    +0.050 C 
ATOM     12  C   UNL     1      36.476 -23.228 -15.533  0.00  0.00    +0.018 C 
ATOM     13  C   UNL     1      33.789 -23.671 -14.910  0.00  0.00    +0.006 C 
ATOM     14  C   UNL     1      34.139 -23.086 -16.129  0.00  0.00    +0.015 C 
ATOM     15  C   UNL     1      37.176 -24.192 -13.358  0.00  0.00    +0.249 C 
ATOM     16  C   UNL     1      34.399 -24.654 -12.710  0.00  0.00    +0.252 C 
ATOM     17  C   UNL     1      36.795 -24.820 -12.051  0.00  0.00    +0.291 C 
ATOM     18  H   UNL     1      35.175 -25.403 -10.995  0.00  0.00    +0.158 HD
ENDBRANCH   2  11
BRANCH   3  19
ATOM     19  C   UNL     1      36.877 -20.929 -19.377  0.00  0.00    +0.095 C 
BRANCH  19  20
ATOM     20  C   UNL     1      35.625 -21.376 -20.127  0.00  0.00    +0.095 C 
BRANCH  20  23
ATOM     21  O   UNL     1      33.618 -20.167 -20.604  0.00  0.00    -0.275 OA
ATOM     22  N   UNL     1      35.687 -19.193 -21.144  0.00  0.00    -0.284 N 
ATOM     23  C   UNL     1      34.844 -20.185 -20.659  0.00  0.00    +0.227 C 
ATOM     24  H   UNL     1      36.653 -19.377 -21.085  0.00  0.00    +0.155 HD
BRANCH  22  25
ATOM     25  C   UNL     1      35.324 -17.951 -21.712  0.00  0.00    +0.053 C 
ATOM     26  C   UNL     1      34.894 -16.907 -20.892  0.00  0.00    +0.052 C 
ATOM     27  C   UNL     1      34.535 -15.681 -21.452  0.00  0.00    +0.140 C 
ATOM     28  C   UNL     1      35.394 -17.768 -23.093  0.00  0.00    +0.015 C 
ATOM     29  C   UNL     1      34.606 -15.499 -22.834  0.00  0.00    +0.037 C 
ATOM     30  C   UNL     1      35.036 -16.543 -23.654  0.00  0.00    +0.004 C 
BRANCH  27  31
ATOM     31  O   UNL     1      34.116 -14.663 -20.653  0.00  0.00    -0.472 OA
BRANCH  31  32
ATOM     32  C   UNL     1      32.712 -14.553 -20.424  0.00  0.00    +0.243 C 
BRANCH  32  34
ATOM     33  F   UNL     1      32.156 -12.386 -19.753  0.00  0.00    -0.230 F 
ATOM     34  C   UNL     1      32.254 -13.179 -20.857  0.00  0.00    +0.240 C 
ENDBRANCH  32  34
ENDBRANCH  31  32
ENDBRANCH  27  31
ENDBRANCH  22  25
ENDBRANCH  20  23
ENDBRANCH  19  20
ENDBRANCH   3  19
TORSDOF 8
ENDMDL
