MODEL 1
REMARK VINA RESULT:     -11.9      0.000      0.000
REMARK  Name = 445770
REMARK  5 active torsions:
REMARK  status: ('A' for Active; 'I' for Inactive)
REMARK    1  A    between atoms: N_2  and  C_17
REMARK    2  A    between atoms: C_3  and  C_5
REMARK    3  A    between atoms: C_6  and  S_11
REMARK    4  A    between atoms: S_11  and  N_14
REMARK    5  A    between atoms: C_17  and  C_23
REMARK                            x       y       z     vdW  Elec       q    Type
REMARK                         _______ _______ _______ _____ _____    ______ ____
ROOT
ATOM      1  O   UNL     1      36.940 -18.738 -22.013  0.00  0.00    -0.270 OA
ATOM      2  N   UNL     1      34.781 -18.258 -22.706  0.00  0.00    -0.297 N 
ATOM      3  C   UNL     1      35.715 -18.917 -21.899  0.00  0.00    +0.246 C 
ATOM      4  H   UNL     1      33.825 -18.447 -22.563  0.00  0.00    +0.150 HD
ENDROOT
BRANCH   3   5
ATOM      5  C   UNL     1      35.194 -19.860 -20.921  0.00  0.00    +0.053 C 
ATOM      6  C   UNL     1      34.194 -21.666 -19.046  0.00  0.00    +0.122 C 
ATOM      7  C   UNL     1      36.071 -20.636 -20.165  0.00  0.00    +0.006 C 
ATOM      8  C   UNL     1      33.816 -19.986 -20.741  0.00  0.00    +0.006 C 
ATOM      9  C   UNL     1      35.571 -21.540 -19.227  0.00  0.00    +0.020 C 
ATOM     10  C   UNL     1      33.316 -20.890 -19.802  0.00  0.00    +0.020 C 
BRANCH   6  11
ATOM     11  S   UNL     1      33.568 -22.796 -17.871  0.00  0.00    +0.057 S 
ATOM     12  O   UNL     1      32.158 -22.505 -17.655  0.00  0.00    -0.153 OA
ATOM     13  O   UNL     1      34.481 -22.834 -16.738  0.00  0.00    -0.153 OA
BRANCH  11  14
ATOM     14  N   UNL     1      33.698 -24.266 -18.732  0.00  0.00    -0.203 NA
ATOM     15  H   UNL     1      33.237 -24.173 -19.636  0.00  0.00    +0.144 HD
ATOM     16  H   UNL     1      33.254 -25.013 -18.199  0.00  0.00    +0.144 HD
ENDBRANCH  11  14
ENDBRANCH   6  11
ENDBRANCH   3   5
BRANCH   2  17
ATOM     17  C   UNL     1      35.143 -17.311 -23.738  0.00  0.00    +0.121 C 
BRANCH  17  23
ATOM     18  F   UNL     1      33.990 -15.742 -25.783  0.00  0.00    -0.202 F 
ATOM     19  F   UNL     1      35.088 -16.122 -21.180  0.00  0.00    -0.202 F 
ATOM     20  F   UNL     1      34.010 -13.659 -20.726  0.00  0.00    -0.199 F 
ATOM     21  F   UNL     1      32.912 -13.282 -25.317  0.00  0.00    -0.199 F 
ATOM     22  F   UNL     1      32.921 -12.236 -22.790  0.00  0.00    -0.199 F 
ATOM     23  C   UNL     1      34.547 -15.952 -23.485  0.00  0.00    +0.057 A 
ATOM     24  C   UNL     1      33.997 -15.238 -24.541  0.00  0.00    +0.170 A 
ATOM     25  C   UNL     1      34.556 -15.432 -22.199  0.00  0.00    +0.170 A 
ATOM     26  C   UNL     1      34.005 -14.172 -21.963  0.00  0.00    +0.197 A 
ATOM     27  C   UNL     1      33.447 -13.979 -24.306  0.00  0.00    +0.197 A 
ATOM     28  C   UNL     1      33.450 -13.445 -23.017  0.00  0.00    +0.199 A 
ENDBRANCH  17  23
ENDBRANCH   2  17
TORSDOF 5
ENDMDL
MODEL 2
REMARK VINA RESULT:     -11.9      0.024      2.338
REMARK  Name = 445770
REMARK  5 active torsions:
REMARK  status: ('A' for Active; 'I' for Inactive)
REMARK    1  A    between atoms: N_2  and  C_17
REMARK    2  A    between atoms: C_3  and  C_5
REMARK    3  A    between atoms: C_6  and  S_11
REMARK    4  A    between atoms: S_11  and  N_14
REMARK    5  A    between atoms: C_17  and  C_23
REMARK                            x       y       z     vdW  Elec       q    Type
REMARK                         _______ _______ _______ _____ _____    ______ ____
ROOT
ATOM      1  O   UNL     1      36.925 -18.742 -22.007  0.00  0.00    -0.270 OA
ATOM      2  N   UNL     1      34.767 -18.273 -22.710  0.00  0.00    -0.297 N 
ATOM      3  C   UNL     1      35.700 -18.926 -21.897  0.00  0.00    +0.246 C 
ATOM      4  H   UNL     1      33.810 -18.466 -22.570  0.00  0.00    +0.150 HD
ENDROOT
BRANCH   3   5
ATOM      5  C   UNL     1      35.178 -19.866 -20.917  0.00  0.00    +0.053 C 
ATOM      6  C   UNL     1      34.179 -21.668 -19.037  0.00  0.00    +0.122 C 
ATOM      7  C   UNL     1      33.801 -19.990 -20.734  0.00  0.00    +0.006 C 
ATOM      8  C   UNL     1      36.056 -20.641 -20.160  0.00  0.00    +0.006 C 
ATOM      9  C   UNL     1      33.302 -20.892 -19.794  0.00  0.00    +0.020 C 
ATOM     10  C   UNL     1      35.556 -21.544 -19.220  0.00  0.00    +0.020 C 
BRANCH   6  11
ATOM     11  S   UNL     1      33.554 -22.797 -17.861  0.00  0.00    +0.057 S 
ATOM     12  O   UNL     1      32.142 -22.512 -17.650  0.00  0.00    -0.153 OA
ATOM     13  O   UNL     1      34.463 -22.828 -16.724  0.00  0.00    -0.153 OA
BRANCH  11  14
ATOM     14  N   UNL     1      33.694 -24.270 -18.718  0.00  0.00    -0.203 NA
ATOM     15  H   UNL     1      32.815 -24.471 -19.194  0.00  0.00    +0.144 HD
ATOM     16  H   UNL     1      33.907 -25.024 -18.065  0.00  0.00    +0.144 HD
ENDBRANCH  11  14
ENDBRANCH   6  11
ENDBRANCH   3   5
BRANCH   2  17
ATOM     17  C   UNL     1      35.129 -17.330 -23.745  0.00  0.00    +0.121 C 
BRANCH  17  23
ATOM     18  F   UNL     1      35.114 -16.133 -21.187  0.00  0.00    -0.202 F 
ATOM     19  F   UNL     1      33.966 -15.757 -25.779  0.00  0.00    -0.202 F 
ATOM     20  F   UNL     1      32.915 -13.286 -25.307  0.00  0.00    -0.199 F 
ATOM     21  F   UNL     1      34.064 -13.660 -20.728  0.00  0.00    -0.199 F 
ATOM     22  F   UNL     1      32.963 -12.233 -22.785  0.00  0.00    -0.199 F 
ATOM     23  C   UNL     1      34.549 -15.965 -23.487  0.00  0.00    +0.057 A 
ATOM     24  C   UNL     1      34.578 -15.441 -22.201  0.00  0.00    +0.170 A 
ATOM     25  C   UNL     1      33.994 -15.250 -24.538  0.00  0.00    +0.170 A 
ATOM     26  C   UNL     1      33.456 -13.985 -24.300  0.00  0.00    +0.197 A 
ATOM     27  C   UNL     1      34.040 -14.177 -21.964  0.00  0.00    +0.197 A 
ATOM     28  C   UNL     1      33.479 -13.448 -23.013  0.00  0.00    +0.199 A 
ENDBRANCH  17  23
ENDBRANCH   2  17
TORSDOF 5
ENDMDL
MODEL 3
REMARK VINA RESULT:     -10.8      6.694     10.664
REMARK  Name = 445770
REMARK  5 active torsions:
REMARK  status: ('A' for Active; 'I' for Inactive)
REMARK    1  A    between atoms: N_2  and  C_17
REMARK    2  A    between atoms: C_3  and  C_5
REMARK    3  A    between atoms: C_6  and  S_11
REMARK    4  A    between atoms: S_11  and  N_14
REMARK    5  A    between atoms: C_17  and  C_23
REMARK                            x       y       z     vdW  Elec       q    Type
REMARK                         _______ _______ _______ _____ _____    ______ ____
ROOT
ATOM      1  O   UNL     1      32.722 -23.414 -17.618  0.00  0.00    -0.270 OA
ATOM      2  N   UNL     1      34.846 -23.365 -16.690  0.00  0.00    -0.297 N 
ATOM      3  C   UNL     1      33.881 -22.961 -17.619  0.00  0.00    +0.246 C 
ATOM      4  H   UNL     1      35.745 -22.967 -16.749  0.00  0.00    +0.150 HD
ENDROOT
BRANCH   3   5
ATOM      5  C   UNL     1      34.295 -21.994 -18.624  0.00  0.00    +0.053 C 
ATOM      6  C   UNL     1      35.089 -20.140 -20.550  0.00  0.00    +0.122 C 
ATOM      7  C   UNL     1      33.336 -21.264 -19.325  0.00  0.00    +0.006 C 
ATOM      8  C   UNL     1      35.651 -21.799 -18.885  0.00  0.00    +0.006 C 
ATOM      9  C   UNL     1      33.734 -20.337 -20.289  0.00  0.00    +0.020 C 
ATOM     10  C   UNL     1      36.048 -20.871 -19.849  0.00  0.00    +0.020 C 
BRANCH   6  11
ATOM     11  S   UNL     1      35.587 -18.979 -21.755  0.00  0.00    +0.057 S 
ATOM     12  O   UNL     1      34.810 -19.205 -22.965  0.00  0.00    -0.153 OA
ATOM     13  O   UNL     1      37.042 -18.978 -21.820  0.00  0.00    -0.153 OA
BRANCH  11  14
ATOM     14  N   UNL     1      35.068 -17.519 -21.034  0.00  0.00    -0.203 NA
ATOM     15  H   UNL     1      34.179 -17.672 -20.558  0.00  0.00    +0.144 HD
ATOM     16  H   UNL     1      34.948 -16.807 -21.755  0.00  0.00    +0.144 HD
ENDBRANCH  11  14
ENDBRANCH   6  11
ENDBRANCH   3   5
BRANCH   2  17
ATOM     17  C   UNL     1      34.596 -24.335 -15.648  0.00  0.00    +0.121 C 
BRANCH  17  23
ATOM     18  F   UNL     1      36.071 -26.742 -15.582  0.00  0.00    -0.202 F 
ATOM     19  F   UNL     1      35.561 -22.325 -13.919  0.00  0.00    -0.202 F 
ATOM     20  F   UNL     1      37.739 -22.683 -12.318  0.00  0.00    -0.199 F 
ATOM     21  F   UNL     1      38.250 -27.088 -13.980  0.00  0.00    -0.199 F 
ATOM     22  F   UNL     1      39.086 -25.060 -12.346  0.00  0.00    -0.199 F 
ATOM     23  C   UNL     1      35.799 -24.531 -14.764  0.00  0.00    +0.057 A 
ATOM     24  C   UNL     1      36.475 -25.743 -14.786  0.00  0.00    +0.170 A 
ATOM     25  C   UNL     1      36.215 -23.495 -13.939  0.00  0.00    +0.170 A 
ATOM     26  C   UNL     1      37.329 -23.674 -13.120  0.00  0.00    +0.197 A 
ATOM     27  C   UNL     1      37.588 -25.923 -13.966  0.00  0.00    +0.197 A 
ATOM     28  C   UNL     1      38.017 -24.889 -13.133  0.00  0.00    +0.199 A 
ENDBRANCH  17  23
ENDBRANCH   2  17
TORSDOF 5
ENDMDL
MODEL 4
REMARK VINA RESULT:     -10.8      6.684     10.707
REMARK  Name = 445770
REMARK  5 active torsions:
REMARK  status: ('A' for Active; 'I' for Inactive)
REMARK    1  A    between atoms: N_2  and  C_17
REMARK    2  A    between atoms: C_3  and  C_5
REMARK    3  A    between atoms: C_6  and  S_11
REMARK    4  A    between atoms: S_11  and  N_14
REMARK    5  A    between atoms: C_17  and  C_23
REMARK                            x       y       z     vdW  Elec       q    Type
REMARK                         _______ _______ _______ _____ _____    ______ ____
ROOT
ATOM      1  O   UNL     1      32.718 -23.397 -17.620  0.00  0.00    -0.270 OA
ATOM      2  N   UNL     1      34.851 -23.367 -16.713  0.00  0.00    -0.297 N 
ATOM      3  C   UNL     1      33.880 -22.952 -17.631  0.00  0.00    +0.246 C 
ATOM      4  H   UNL     1      35.752 -22.974 -16.779  0.00  0.00    +0.150 HD
ENDROOT
BRANCH   3   5
ATOM      5  C   UNL     1      34.290 -21.984 -18.636  0.00  0.00    +0.053 C 
ATOM      6  C   UNL     1      35.078 -20.126 -20.562  0.00  0.00    +0.122 C 
ATOM      7  C   UNL     1      33.329 -21.255 -19.335  0.00  0.00    +0.006 C 
ATOM      8  C   UNL     1      35.646 -21.785 -18.899  0.00  0.00    +0.006 C 
ATOM      9  C   UNL     1      33.723 -20.326 -20.299  0.00  0.00    +0.020 C 
ATOM     10  C   UNL     1      36.040 -20.856 -19.862  0.00  0.00    +0.020 C 
BRANCH   6  11
ATOM     11  S   UNL     1      35.572 -18.963 -21.766  0.00  0.00    +0.057 S 
ATOM     12  O   UNL     1      34.790 -19.188 -22.975  0.00  0.00    -0.153 OA
ATOM     13  O   UNL     1      37.026 -18.962 -21.836  0.00  0.00    -0.153 OA
BRANCH  11  14
ATOM     14  N   UNL     1      35.054 -17.505 -21.042  0.00  0.00    -0.203 NA
ATOM     15  H   UNL     1      35.795 -16.808 -21.113  0.00  0.00    +0.144 HD
ATOM     16  H   UNL     1      34.839 -17.672 -20.059  0.00  0.00    +0.144 HD
ENDBRANCH  11  14
ENDBRANCH   6  11
ENDBRANCH   3   5
BRANCH   2  17
ATOM     17  C   UNL     1      34.605 -24.339 -15.672  0.00  0.00    +0.121 C 
BRANCH  17  23
ATOM     18  F   UNL     1      35.581 -22.329 -13.945  0.00  0.00    -0.202 F 
ATOM     19  F   UNL     1      36.074 -26.747 -15.613  0.00  0.00    -0.202 F 
ATOM     20  F   UNL     1      38.259 -27.097 -14.019  0.00  0.00    -0.199 F 
ATOM     21  F   UNL     1      37.764 -22.692 -12.353  0.00  0.00    -0.199 F 
ATOM     22  F   UNL     1      39.106 -25.075 -12.387  0.00  0.00    -0.199 F 
ATOM     23  C   UNL     1      35.810 -24.535 -14.792  0.00  0.00    +0.057 A 
ATOM     24  C   UNL     1      36.231 -23.500 -13.968  0.00  0.00    +0.170 A 
ATOM     25  C   UNL     1      36.483 -25.749 -14.817  0.00  0.00    +0.170 A 
ATOM     26  C   UNL     1      37.600 -25.932 -14.001  0.00  0.00    +0.197 A 
ATOM     27  C   UNL     1      37.348 -23.683 -13.153  0.00  0.00    +0.197 A 
ATOM     28  C   UNL     1      38.033 -24.899 -13.169  0.00  0.00    +0.199 A 
ENDBRANCH  17  23
ENDBRANCH   2  17
TORSDOF 5
ENDMDL
MODEL 5
REMARK VINA RESULT:     -10.4      6.157     10.275
REMARK  Name = 445770
REMARK  5 active torsions:
REMARK  status: ('A' for Active; 'I' for Inactive)
REMARK    1  A    between atoms: N_2  and  C_17
REMARK    2  A    between atoms: C_3  and  C_5
REMARK    3  A    between atoms: C_6  and  S_11
REMARK    4  A    between atoms: S_11  and  N_14
REMARK    5  A    between atoms: C_17  and  C_23
REMARK                            x       y       z     vdW  Elec       q    Type
REMARK                         _______ _______ _______ _____ _____    ______ ____
ROOT
ATOM      1  O   UNL     1      33.502 -23.849 -18.683  0.00  0.00    -0.270 OA
ATOM      2  N   UNL     1      34.311 -22.609 -16.899  0.00  0.00    -0.297 N 
ATOM      3  C   UNL     1      34.020 -22.802 -18.254  0.00  0.00    +0.246 C 
ATOM      4  H   UNL     1      34.722 -21.756 -16.627  0.00  0.00    +0.150 HD
ENDROOT
BRANCH   3   5
ATOM      5  C   UNL     1      34.375 -21.726 -19.165  0.00  0.00    +0.053 C 
ATOM      6  C   UNL     1      35.055 -19.662 -20.914  0.00  0.00    +0.122 C 
ATOM      7  C   UNL     1      35.716 -21.446 -19.424  0.00  0.00    +0.006 C 
ATOM      8  C   UNL     1      33.373 -20.974 -19.780  0.00  0.00    +0.006 C 
ATOM      9  C   UNL     1      36.056 -20.413 -20.299  0.00  0.00    +0.020 C 
ATOM     10  C   UNL     1      33.714 -19.942 -20.655  0.00  0.00    +0.020 C 
BRANCH   6  11
ATOM     11  S   UNL     1      35.481 -18.371 -22.009  0.00  0.00    +0.057 S 
ATOM     12  O   UNL     1      35.181 -17.100 -21.365  0.00  0.00    -0.153 OA
ATOM     13  O   UNL     1      34.913 -18.671 -23.316  0.00  0.00    -0.153 OA
BRANCH  11  14
ATOM     14  N   UNL     1      37.177 -18.558 -22.090  0.00  0.00    -0.203 NA
ATOM     15  H   UNL     1      37.461 -18.676 -23.062  0.00  0.00    +0.144 HD
ATOM     16  H   UNL     1      37.454 -19.380 -21.553  0.00  0.00    +0.144 HD
ENDBRANCH  11  14
ENDBRANCH   6  11
ENDBRANCH   3   5
BRANCH   2  17
ATOM     17  C   UNL     1      34.041 -23.594 -15.875  0.00  0.00    +0.121 C 
BRANCH  17  23
ATOM     18  F   UNL     1      33.915 -24.877 -13.362  0.00  0.00    -0.202 F 
ATOM     19  F   UNL     1      36.649 -22.921 -16.714  0.00  0.00    -0.202 F 
ATOM     20  F   UNL     1      38.862 -23.465 -15.217  0.00  0.00    -0.199 F 
ATOM     21  F   UNL     1      36.135 -25.420 -11.876  0.00  0.00    -0.199 F 
ATOM     22  F   UNL     1      38.610 -24.715 -12.799  0.00  0.00    -0.199 F 
ATOM     23  C   UNL     1      35.264 -23.895 -15.050  0.00  0.00    +0.057 A 
ATOM     24  C   UNL     1      35.124 -24.529 -13.823  0.00  0.00    +0.170 A 
ATOM     25  C   UNL     1      36.515 -23.533 -15.529  0.00  0.00    +0.170 A 
ATOM     26  C   UNL     1      37.650 -23.811 -14.766  0.00  0.00    +0.197 A 
ATOM     27  C   UNL     1      36.258 -24.806 -13.061  0.00  0.00    +0.197 A 
ATOM     28  C   UNL     1      37.521 -24.448 -13.531  0.00  0.00    +0.199 A 
ENDBRANCH  17  23
ENDBRANCH   2  17
TORSDOF 5
ENDMDL
MODEL 6
REMARK VINA RESULT:     -10.2      9.335     11.326
REMARK  Name = 445770
REMARK  5 active torsions:
REMARK  status: ('A' for Active; 'I' for Inactive)
REMARK    1  A    between atoms: N_2  and  C_17
REMARK    2  A    between atoms: C_3  and  C_5
REMARK    3  A    between atoms: C_6  and  S_11
REMARK    4  A    between atoms: S_11  and  N_14
REMARK    5  A    between atoms: C_17  and  C_23
REMARK                            x       y       z     vdW  Elec       q    Type
REMARK                         _______ _______ _______ _____ _____    ______ ____
ROOT
ATOM      1  O   UNL     1      34.970 -25.081 -11.053  0.00  0.00    -0.270 OA
ATOM      2  N   UNL     1      34.281 -24.012 -12.990  0.00  0.00    -0.297 N 
ATOM      3  C   UNL     1      35.219 -24.694 -12.208  0.00  0.00    +0.246 C 
ATOM      4  H   UNL     1      34.544 -23.733 -13.898  0.00  0.00    +0.150 HD
ENDROOT
BRANCH   3   5
ATOM      5  C   UNL     1      36.531 -24.916 -12.795  0.00  0.00    +0.053 C 
ATOM      6  C   UNL     1      39.048 -25.343 -13.920  0.00  0.00    +0.122 C 
ATOM      7  C   UNL     1      36.839 -24.372 -14.042  0.00  0.00    +0.006 C 
ATOM      8  C   UNL     1      37.481 -25.674 -12.110  0.00  0.00    +0.006 C 
ATOM      9  C   UNL     1      38.097 -24.586 -14.604  0.00  0.00    +0.020 C 
ATOM     10  C   UNL     1      38.741 -25.887 -12.673  0.00  0.00    +0.020 C 
BRANCH   6  11
ATOM     11  S   UNL     1      40.624 -25.609 -14.623  0.00  0.00    +0.057 S 
ATOM     12  O   UNL     1      41.423 -24.406 -14.436  0.00  0.00    -0.153 OA
ATOM     13  O   UNL     1      40.444 -26.156 -15.961  0.00  0.00    -0.153 OA
BRANCH  11  14
ATOM     14  N   UNL     1      41.232 -26.837 -13.603  0.00  0.00    -0.203 NA
ATOM     15  H   UNL     1      40.603 -27.640 -13.625  0.00  0.00    +0.144 HD
ATOM     16  H   UNL     1      41.300 -26.484 -12.648  0.00  0.00    +0.144 HD
ENDBRANCH  11  14
ENDBRANCH   6  11
ENDBRANCH   3   5
BRANCH   2  17
ATOM     17  C   UNL     1      32.944 -23.694 -12.540  0.00  0.00    +0.121 C 
BRANCH  17  23
ATOM     18  F   UNL     1      33.535 -22.493 -15.026  0.00  0.00    -0.202 F 
ATOM     19  F   UNL     1      30.361 -24.817 -12.369  0.00  0.00    -0.202 F 
ATOM     20  F   UNL     1      28.585 -24.743 -14.437  0.00  0.00    -0.199 F 
ATOM     21  F   UNL     1      31.753 -22.428 -17.089  0.00  0.00    -0.199 F 
ATOM     22  F   UNL     1      29.277 -23.551 -16.797  0.00  0.00    -0.199 F 
ATOM     23  C   UNL     1      31.963 -23.655 -13.681  0.00  0.00    +0.057 A 
ATOM     24  C   UNL     1      32.325 -23.047 -14.875  0.00  0.00    +0.170 A 
ATOM     25  C   UNL     1      30.709 -24.229 -13.522  0.00  0.00    +0.170 A 
ATOM     26  C   UNL     1      29.799 -24.194 -14.579  0.00  0.00    +0.197 A 
ATOM     27  C   UNL     1      31.415 -23.011 -15.931  0.00  0.00    +0.197 A 
ATOM     28  C   UNL     1      30.151 -23.585 -15.784  0.00  0.00    +0.199 A 
ENDBRANCH  17  23
ENDBRANCH   2  17
TORSDOF 5
ENDMDL
MODEL 7
REMARK VINA RESULT:     -10.2      6.261     10.303
REMARK  Name = 445770
REMARK  5 active torsions:
REMARK  status: ('A' for Active; 'I' for Inactive)
REMARK    1  A    between atoms: N_2  and  C_17
REMARK    2  A    between atoms: C_3  and  C_5
REMARK    3  A    between atoms: C_6  and  S_11
REMARK    4  A    between atoms: S_11  and  N_14
REMARK    5  A    between atoms: C_17  and  C_23
REMARK                            x       y       z     vdW  Elec       q    Type
REMARK                         _______ _______ _______ _____ _____    ______ ____
ROOT
ATOM      1  O   UNL     1      32.715 -23.249 -18.079  0.00  0.00    -0.270 OA
ATOM      2  N   UNL     1      34.584 -22.772 -16.794  0.00  0.00    -0.297 N 
ATOM      3  C   UNL     1      33.772 -22.613 -17.923  0.00  0.00    +0.246 C 
ATOM      4  H   UNL     1      35.409 -22.236 -16.734  0.00  0.00    +0.150 HD
ENDROOT
BRANCH   3   5
ATOM      5  C   UNL     1      34.230 -21.679 -18.939  0.00  0.00    +0.053 C 
ATOM      6  C   UNL     1      35.107 -19.888 -20.890  0.00  0.00    +0.122 C 
ATOM      7  C   UNL     1      35.594 -21.534 -19.190  0.00  0.00    +0.006 C 
ATOM      8  C   UNL     1      33.303 -20.928 -19.663  0.00  0.00    +0.006 C 
ATOM      9  C   UNL     1      36.032 -20.638 -20.165  0.00  0.00    +0.020 C 
ATOM     10  C   UNL     1      33.742 -20.033 -20.639  0.00  0.00    +0.020 C 
BRANCH   6  11
ATOM     11  S   UNL     1      35.655 -18.767 -22.111  0.00  0.00    +0.057 S 
ATOM     12  O   UNL     1      37.106 -18.856 -22.202  0.00  0.00    -0.153 OA
ATOM     13  O   UNL     1      35.024 -17.478 -21.869  0.00  0.00    -0.153 OA
BRANCH  11  14
ATOM     14  N   UNL     1      34.974 -19.459 -23.517  0.00  0.00    -0.203 NA
ATOM     15  H   UNL     1      34.393 -18.767 -23.989  0.00  0.00    +0.144 HD
ATOM     16  H   UNL     1      34.402 -20.263 -23.257  0.00  0.00    +0.144 HD
ENDBRANCH  11  14
ENDBRANCH   6  11
ENDBRANCH   3   5
BRANCH   2  17
ATOM     17  C   UNL     1      34.278 -23.678 -15.710  0.00  0.00    +0.121 C 
BRANCH  17  23
ATOM     18  F   UNL     1      36.900 -23.094 -16.581  0.00  0.00    -0.202 F 
ATOM     19  F   UNL     1      34.137 -24.946 -13.193  0.00  0.00    -0.202 F 
ATOM     20  F   UNL     1      36.354 -25.557 -11.729  0.00  0.00    -0.199 F 
ATOM     21  F   UNL     1      39.109 -23.706 -15.106  0.00  0.00    -0.199 F 
ATOM     22  F   UNL     1      38.841 -24.938 -12.679  0.00  0.00    -0.199 F 
ATOM     23  C   UNL     1      35.501 -24.015 -14.899  0.00  0.00    +0.057 A 
ATOM     24  C   UNL     1      36.759 -23.696 -15.393  0.00  0.00    +0.170 A 
ATOM     25  C   UNL     1      35.352 -24.639 -13.669  0.00  0.00    +0.170 A 
ATOM     26  C   UNL     1      36.485 -24.952 -12.916  0.00  0.00    +0.197 A 
ATOM     27  C   UNL     1      37.890 -24.010 -14.641  0.00  0.00    +0.197 A 
ATOM     28  C   UNL     1      37.754 -24.637 -13.402  0.00  0.00    +0.199 A 
ENDBRANCH  17  23
ENDBRANCH   2  17
TORSDOF 5
ENDMDL
MODEL 8
REMARK VINA RESULT:     -10.2      9.403     11.457
REMARK  Name = 445770
REMARK  5 active torsions:
REMARK  status: ('A' for Active; 'I' for Inactive)
REMARK    1  A    between atoms: N_2  and  C_17
REMARK    2  A    between atoms: C_3  and  C_5
REMARK    3  A    between atoms: C_6  and  S_11
REMARK    4  A    between atoms: S_11  and  N_14
REMARK    5  A    between atoms: C_17  and  C_23
REMARK                            x       y       z     vdW  Elec       q    Type
REMARK                         _______ _______ _______ _____ _____    ______ ____
ROOT
ATOM      1  O   UNL     1      34.888 -25.039 -11.049  0.00  0.00    -0.270 OA
ATOM      2  N   UNL     1      34.242 -23.914 -12.970  0.00  0.00    -0.297 N 
ATOM      3  C   UNL     1      35.157 -24.633 -12.193  0.00  0.00    +0.246 C 
ATOM      4  H   UNL     1      34.521 -23.622 -13.869  0.00  0.00    +0.150 HD
ENDROOT
BRANCH   3   5
ATOM      5  C   UNL     1      36.471 -24.870 -12.771  0.00  0.00    +0.053 C 
ATOM      6  C   UNL     1      38.990 -25.326 -13.878  0.00  0.00    +0.122 C 
ATOM      7  C   UNL     1      36.777 -24.369 -14.036  0.00  0.00    +0.006 C 
ATOM      8  C   UNL     1      37.423 -25.600 -12.059  0.00  0.00    +0.006 C 
ATOM      9  C   UNL     1      38.037 -24.597 -14.589  0.00  0.00    +0.020 C 
ATOM     10  C   UNL     1      38.684 -25.827 -12.614  0.00  0.00    +0.020 C 
BRANCH   6  11
ATOM     11  S   UNL     1      40.567 -25.610 -14.571  0.00  0.00    +0.057 S 
ATOM     12  O   UNL     1      41.392 -24.431 -14.345  0.00  0.00    -0.153 OA
ATOM     13  O   UNL     1      40.391 -26.120 -15.923  0.00  0.00    -0.153 OA
BRANCH  11  14
ATOM     14  N   UNL     1      41.137 -26.876 -13.575  0.00  0.00    -0.203 NA
ATOM     15  H   UNL     1      40.491 -27.664 -13.623  0.00  0.00    +0.144 HD
ATOM     16  H   UNL     1      41.201 -26.548 -12.611  0.00  0.00    +0.144 HD
ENDBRANCH  11  14
ENDBRANCH   6  11
ENDBRANCH   3   5
BRANCH   2  17
ATOM     17  C   UNL     1      32.907 -23.578 -12.527  0.00  0.00    +0.121 C 
BRANCH  17  23
ATOM     18  F   UNL     1      30.410 -24.878 -12.299  0.00  0.00    -0.202 F 
ATOM     19  F   UNL     1      33.384 -22.396 -15.044  0.00  0.00    -0.202 F 
ATOM     20  F   UNL     1      31.579 -22.504 -17.085  0.00  0.00    -0.199 F 
ATOM     21  F   UNL     1      28.611 -24.976 -14.345  0.00  0.00    -0.199 F 
ATOM     22  F   UNL     1      29.193 -23.791 -16.741  0.00  0.00    -0.199 F 
ATOM     23  C   UNL     1      31.911 -23.636 -13.655  0.00  0.00    +0.057 A 
ATOM     24  C   UNL     1      30.703 -24.293 -13.468  0.00  0.00    +0.170 A 
ATOM     25  C   UNL     1      32.217 -23.030 -14.866  0.00  0.00    +0.170 A 
ATOM     26  C   UNL     1      31.295 -23.083 -15.912  0.00  0.00    +0.197 A 
ATOM     27  C   UNL     1      29.782 -24.346 -14.514  0.00  0.00    +0.197 A 
ATOM     28  C   UNL     1      30.077 -23.741 -15.736  0.00  0.00    +0.199 A 
ENDBRANCH  17  23
ENDBRANCH   2  17
TORSDOF 5
ENDMDL
MODEL 9
REMARK VINA RESULT:     -10.2      4.029      6.332
REMARK  Name = 445770
REMARK  5 active torsions:
REMARK  status: ('A' for Active; 'I' for Inactive)
REMARK    1  A    between atoms: N_2  and  C_17
REMARK    2  A    between atoms: C_3  and  C_5
REMARK    3  A    between atoms: C_6  and  S_11
REMARK    4  A    between atoms: S_11  and  N_14
REMARK    5  A    between atoms: C_17  and  C_23
REMARK                            x       y       z     vdW  Elec       q    Type
REMARK                         _______ _______ _______ _____ _____    ______ ____
ROOT
ATOM      1  O   UNL     1      33.380 -13.340 -25.554  0.00  0.00    -0.270 OA
ATOM      2  N   UNL     1      34.113 -12.244 -23.648  0.00  0.00    -0.297 N 
ATOM      3  C   UNL     1      33.905 -13.387 -24.427  0.00  0.00    +0.246 C 
ATOM      4  H   UNL     1      34.533 -12.352 -22.763  0.00  0.00    +0.150 HD
ENDROOT
BRANCH   3   5
ATOM      5  C   UNL     1      34.307 -14.661 -23.852  0.00  0.00    +0.053 C 
ATOM      6  C   UNL     1      35.078 -17.104 -22.749  0.00  0.00    +0.122 C 
ATOM      7  C   UNL     1      34.461 -14.784 -22.471  0.00  0.00    +0.006 C 
ATOM      8  C   UNL     1      34.539 -15.758 -24.682  0.00  0.00    +0.006 C 
ATOM      9  C   UNL     1      34.847 -16.006 -21.920  0.00  0.00    +0.020 C 
ATOM     10  C   UNL     1      34.924 -16.980 -24.129  0.00  0.00    +0.020 C 
BRANCH   6  11
ATOM     11  S   UNL     1      35.560 -18.633 -22.058  0.00  0.00    +0.057 S 
ATOM     12  O   UNL     1      35.100 -19.702 -22.935  0.00  0.00    -0.153 OA
ATOM     13  O   UNL     1      35.185 -18.641 -20.651  0.00  0.00    -0.153 OA
BRANCH  11  14
ATOM     14  N   UNL     1      37.261 -18.522 -22.175  0.00  0.00    -0.203 NA
ATOM     15  H   UNL     1      37.517 -18.180 -23.101  0.00  0.00    +0.144 HD
ATOM     16  H   UNL     1      37.673 -19.443 -22.026  0.00  0.00    +0.144 HD
ENDBRANCH  11  14
ENDBRANCH   6  11
ENDBRANCH   3   5
BRANCH   2  17
ATOM     17  C   UNL     1      33.745 -10.910 -24.070  0.00  0.00    +0.121 C 
BRANCH  17  23
ATOM     18  F   UNL     1      31.985 -11.987 -22.141  0.00  0.00    -0.202 F 
ATOM     19  F   UNL     1      34.368  -8.184 -23.692  0.00  0.00    -0.202 F 
ATOM     20  F   UNL     1      33.348  -6.714 -21.634  0.00  0.00    -0.199 F 
ATOM     21  F   UNL     1      30.975 -10.509 -20.085  0.00  0.00    -0.199 F 
ATOM     22  F   UNL     1      31.654  -7.872 -19.829  0.00  0.00    -0.199 F 
ATOM     23  C   UNL     1      33.185 -10.098 -22.933  0.00  0.00    +0.057 A 
ATOM     24  C   UNL     1      32.324 -10.696 -22.023  0.00  0.00    +0.170 A 
ATOM     25  C   UNL     1      33.537  -8.760 -22.812  0.00  0.00    +0.170 A 
ATOM     26  C   UNL     1      33.018  -8.006 -21.760  0.00  0.00    +0.197 A 
ATOM     27  C   UNL     1      31.805  -9.941 -20.971  0.00  0.00    +0.197 A 
ATOM     28  C   UNL     1      32.152  -8.596 -20.839  0.00  0.00    +0.199 A 
ENDBRANCH  17  23
ENDBRANCH   2  17
TORSDOF 5
ENDMDL
