MODEL 1
REMARK VINA RESULT:     -12.3      0.000      0.000
REMARK  Name = 11538455
REMARK  6 active torsions:
REMARK  status: ('A' for Active; 'I' for Inactive)
REMARK    1  A    between atoms: C_4  and  C_19
REMARK    2  A    between atoms: C_12  and  C_15
REMARK    3  A    between atoms: N_14  and  O_17
REMARK    4  A    between atoms: C_19  and  N_20
REMARK    5  A    between atoms: N_20  and  C_23
REMARK    6  A    between atoms: C_23  and  C_25
REMARK                            x       y       z     vdW  Elec       q    Type
REMARK                         _______ _______ _______ _____ _____    ______ ____
ROOT
ATOM      1  N   UNL     1      35.125 -22.163 -17.700  0.00  0.00    -0.253 N 
ATOM      2  N   UNL     1      36.439 -23.108 -15.983  0.00  0.00    -0.203 NA
ATOM      3  N   UNL     1      34.037 -23.048 -15.801  0.00  0.00    -0.180 NA
ATOM      4  C   UNL     1      34.936 -20.987 -20.339  0.00  0.00    -0.018 C 
ATOM      5  C   UNL     1      36.133 -20.719 -19.422  0.00  0.00    +0.020 C 
ATOM      6  C   UNL     1      33.692 -21.259 -19.489  0.00  0.00    +0.020 C 
ATOM      7  C   UNL     1      36.358 -21.868 -18.438  0.00  0.00    +0.101 C 
ATOM      8  C   UNL     1      33.924 -22.409 -18.510  0.00  0.00    +0.101 C 
ATOM      9  C   UNL     1      35.202 -22.795 -16.453  0.00  0.00    +0.090 C 
ATOM     10  C   UNL     1      36.478 -23.713 -14.778  0.00  0.00    +0.170 C 
ATOM     11  C   UNL     1      34.149 -23.655 -14.602  0.00  0.00    +0.113 C 
ATOM     12  C   UNL     1      35.355 -24.015 -14.035  0.00  0.00    +0.078 C 
ENDROOT
BRANCH  12  15
ATOM     13  O   UNL     1      34.607 -24.415 -11.845  0.00  0.00    -0.268 OA
ATOM     14  N   UNL     1      36.475 -25.569 -12.548  0.00  0.00    -0.194 N 
ATOM     15  C   UNL     1      35.435 -24.668 -12.743  0.00  0.00    +0.267 C 
ATOM     16  H   UNL     1      37.126 -25.766 -13.261  0.00  0.00    +0.183 HD
BRANCH  14  17
ATOM     17  O   UNL     1      36.554 -26.187 -11.291  0.00  0.00    -0.295 OA
ATOM     18  H   UNL     1      35.781 -25.939 -10.760  0.00  0.00    +0.241 HD
ENDBRANCH  14  17
ENDBRANCH  12  15
BRANCH   4  19
ATOM     19  C   UNL     1      34.702 -19.811 -21.285  0.00  0.00    -0.081 C 
BRANCH  19  20
ATOM     20  N   UNL     1      35.616 -18.718 -20.991  0.00  0.00    +0.386 N 
ATOM     21  H   UNL     1      36.486 -19.102 -20.620  0.00  0.00    -0.084 HD
ATOM     22  H   UNL     1      35.178 -18.103 -20.306  0.00  0.00    -0.084 HD
BRANCH  20  23
ATOM     23  C   UNL     1      35.909 -17.944 -22.190  0.00  0.00    -0.053 C 
BRANCH  23  25
ATOM     24  N   UNL     1      33.940 -14.930 -21.584  0.00  0.00    -0.284 N 
ATOM     25  C   UNL     1      35.077 -16.693 -22.227  0.00  0.00    -0.028 C 
ATOM     26  C   UNL     1      34.601 -16.059 -23.390  0.00  0.00    +0.009 C 
ATOM     27  C   UNL     1      34.670 -15.996 -21.132  0.00  0.00    +0.059 C 
ATOM     28  C   UNL     1      33.882 -14.943 -22.959  0.00  0.00    +0.051 C 
ATOM     29  C   UNL     1      34.701 -16.310 -24.773  0.00  0.00    +0.001 C 
ATOM     30  C   UNL     1      33.253 -14.060 -23.846  0.00  0.00    +0.015 C 
ATOM     31  C   UNL     1      33.327 -13.939 -20.726  0.00  0.00    +0.117 C 
ATOM     32  C   UNL     1      34.077 -15.436 -25.673  0.00  0.00    +0.000 C 
ATOM     33  C   UNL     1      33.365 -14.328 -25.213  0.00  0.00    +0.001 C 
ENDBRANCH  23  25
ENDBRANCH  20  23
ENDBRANCH  19  20
ENDBRANCH   4  19
TORSDOF 6
ENDMDL
MODEL 2
REMARK VINA RESULT:     -12.0      1.071      2.117
REMARK  Name = 11538455
REMARK  6 active torsions:
REMARK  status: ('A' for Active; 'I' for Inactive)
REMARK    1  A    between atoms: C_4  and  C_19
REMARK    2  A    between atoms: C_12  and  C_15
REMARK    3  A    between atoms: N_14  and  O_17
REMARK    4  A    between atoms: C_19  and  N_20
REMARK    5  A    between atoms: N_20  and  C_23
REMARK    6  A    between atoms: C_23  and  C_25
REMARK                            x       y       z     vdW  Elec       q    Type
REMARK                         _______ _______ _______ _____ _____    ______ ____
ROOT
ATOM      1  N   UNL     1      35.714 -21.922 -17.882  0.00  0.00    -0.253 N 
ATOM      2  N   UNL     1      37.346 -22.666 -16.348  0.00  0.00    -0.203 NA
ATOM      3  N   UNL     1      35.000 -22.833 -15.825  0.00  0.00    -0.180 NA
ATOM      4  C   UNL     1      35.038 -20.875 -20.495  0.00  0.00    -0.018 C 
ATOM      5  C   UNL     1      36.319 -20.456 -19.766  0.00  0.00    +0.020 C 
ATOM      6  C   UNL     1      33.960 -21.233 -19.468  0.00  0.00    +0.020 C 
ATOM      7  C   UNL     1      36.794 -21.538 -18.797  0.00  0.00    +0.101 C 
ATOM      8  C   UNL     1      34.443 -22.315 -18.505  0.00  0.00    +0.101 C 
ATOM      9  C   UNL     1      36.030 -22.493 -16.643  0.00  0.00    +0.090 C 
ATOM     10  C   UNL     1      37.615 -23.217 -15.146  0.00  0.00    +0.170 C 
ATOM     11  C   UNL     1      35.340 -23.379 -14.639  0.00  0.00    +0.113 C 
ATOM     12  C   UNL     1      36.644 -23.597 -14.242  0.00  0.00    +0.078 C 
ENDROOT
BRANCH  12  15
ATOM     13  O   UNL     1      37.955 -23.791 -12.304  0.00  0.00    -0.268 OA
ATOM     14  N   UNL     1      36.153 -25.214 -12.503  0.00  0.00    -0.194 N 
ATOM     15  C   UNL     1      36.971 -24.187 -12.959  0.00  0.00    +0.267 C 
ATOM     16  H   UNL     1      35.376 -25.523 -13.024  0.00  0.00    +0.183 HD
BRANCH  14  17
ATOM     17  O   UNL     1      36.483 -25.789 -11.267  0.00  0.00    -0.295 OA
ATOM     18  H   UNL     1      35.711 -26.256 -10.911  0.00  0.00    +0.241 HD
ENDBRANCH  14  17
ENDBRANCH  12  15
BRANCH   4  19
ATOM     19  C   UNL     1      34.555 -19.766 -21.427  0.00  0.00    -0.081 C 
BRANCH  19  20
ATOM     20  N   UNL     1      35.055 -18.470 -20.994  0.00  0.00    +0.386 N 
ATOM     21  H   UNL     1      35.609 -18.592 -20.146  0.00  0.00    -0.084 HD
ATOM     22  H   UNL     1      34.259 -17.857 -20.816  0.00  0.00    -0.084 HD
BRANCH  20  23
ATOM     23  C   UNL     1      35.888 -17.860 -22.023  0.00  0.00    -0.053 C 
BRANCH  23  25
ATOM     24  N   UNL     1      34.205 -15.642 -24.385  0.00  0.00    -0.284 N 
ATOM     25  C   UNL     1      35.123 -16.797 -22.761  0.00  0.00    -0.028 C 
ATOM     26  C   UNL     1      34.474 -15.696 -22.171  0.00  0.00    +0.009 C 
ATOM     27  C   UNL     1      34.953 -16.755 -24.110  0.00  0.00    +0.059 C 
ATOM     28  C   UNL     1      33.898 -14.976 -23.220  0.00  0.00    +0.051 C 
ATOM     29  C   UNL     1      34.308 -15.226 -20.854  0.00  0.00    +0.001 C 
ATOM     30  C   UNL     1      33.161 -13.803 -23.016  0.00  0.00    +0.015 C 
ATOM     31  C   UNL     1      33.802 -15.239 -25.715  0.00  0.00    +0.117 C 
ATOM     32  C   UNL     1      33.574 -14.054 -20.634  0.00  0.00    +0.000 C 
ATOM     33  C   UNL     1      33.010 -13.355 -21.700  0.00  0.00    +0.001 C 
ENDBRANCH  23  25
ENDBRANCH  20  23
ENDBRANCH  19  20
ENDBRANCH   4  19
TORSDOF 6
ENDMDL
MODEL 3
REMARK VINA RESULT:     -11.9      2.348      3.222
REMARK  Name = 11538455
REMARK  6 active torsions:
REMARK  status: ('A' for Active; 'I' for Inactive)
REMARK    1  A    between atoms: C_4  and  C_19
REMARK    2  A    between atoms: C_12  and  C_15
REMARK    3  A    between atoms: N_14  and  O_17
REMARK    4  A    between atoms: C_19  and  N_20
REMARK    5  A    between atoms: N_20  and  C_23
REMARK    6  A    between atoms: C_23  and  C_25
REMARK                            x       y       z     vdW  Elec       q    Type
REMARK                         _______ _______ _______ _____ _____    ______ ____
ROOT
ATOM      1  N   UNL     1      33.820 -21.966 -18.357  0.00  0.00    -0.253 N 
ATOM      2  N   UNL     1      33.828 -23.546 -16.602  0.00  0.00    -0.203 NA
ATOM      3  N   UNL     1      31.809 -22.369 -17.189  0.00  0.00    -0.180 NA
ATOM      4  C   UNL     1      35.197 -20.649 -20.536  0.00  0.00    -0.018 C 
ATOM      5  C   UNL     1      35.924 -21.049 -19.248  0.00  0.00    +0.020 C 
ATOM      6  C   UNL     1      33.725 -20.362 -20.224  0.00  0.00    +0.020 C 
ATOM      7  C   UNL     1      35.247 -22.236 -18.564  0.00  0.00    +0.101 C 
ATOM      8  C   UNL     1      33.056 -21.554 -19.542  0.00  0.00    +0.101 C 
ATOM      9  C   UNL     1      33.128 -22.650 -17.349  0.00  0.00    +0.090 C 
ATOM     10  C   UNL     1      33.133 -24.184 -15.639  0.00  0.00    +0.170 C 
ATOM     11  C   UNL     1      31.174 -23.044 -16.208  0.00  0.00    +0.113 C 
ATOM     12  C   UNL     1      31.791 -23.973 -15.394  0.00  0.00    +0.078 C 
ENDROOT
BRANCH  12  15
ATOM     13  O   UNL     1      30.498 -25.759 -14.587  0.00  0.00    -0.268 OA
ATOM     14  N   UNL     1      31.052 -24.098 -13.088  0.00  0.00    -0.194 N 
ATOM     15  C   UNL     1      31.076 -24.679 -14.350  0.00  0.00    +0.267 C 
ATOM     16  H   UNL     1      31.511 -23.246 -12.905  0.00  0.00    +0.183 HD
BRANCH  14  17
ATOM     17  O   UNL     1      30.347 -24.782 -12.086  0.00  0.00    -0.295 OA
ATOM     18  H   UNL     1      29.514 -25.120 -12.450  0.00  0.00    +0.241 HD
ENDBRANCH  14  17
ENDBRANCH  12  15
BRANCH   4  19
ATOM     19  C   UNL     1      35.863 -19.437 -21.182  0.00  0.00    -0.081 C 
BRANCH  19  20
ATOM     20  N   UNL     1      35.078 -18.952 -22.307  0.00  0.00    +0.386 N 
ATOM     21  H   UNL     1      34.226 -18.514 -21.956  0.00  0.00    -0.084 HD
ATOM     22  H   UNL     1      34.850 -19.743 -22.910  0.00  0.00    -0.084 HD
BRANCH  20  23
ATOM     23  C   UNL     1      35.828 -17.975 -23.086  0.00  0.00    -0.053 C 
BRANCH  23  25
ATOM     24  N   UNL     1      33.892 -15.159 -24.371  0.00  0.00    -0.284 N 
ATOM     25  C   UNL     1      34.996 -16.749 -23.338  0.00  0.00    -0.028 C 
ATOM     26  C   UNL     1      34.462 -15.903 -22.348  0.00  0.00    +0.009 C 
ATOM     27  C   UNL     1      34.643 -16.287 -24.568  0.00  0.00    +0.059 C 
ATOM     28  C   UNL     1      33.766 -14.901 -23.025  0.00  0.00    +0.051 C 
ATOM     29  C   UNL     1      34.492 -15.876 -20.940  0.00  0.00    +0.001 C 
ATOM     30  C   UNL     1      33.094 -13.867 -22.362  0.00  0.00    +0.015 C 
ATOM     31  C   UNL     1      33.320 -14.364 -25.437  0.00  0.00    +0.117 C 
ATOM     32  C   UNL     1      33.825 -14.847 -20.262  0.00  0.00    +0.000 C 
ATOM     33  C   UNL     1      33.137 -13.859 -20.965  0.00  0.00    +0.001 C 
ENDBRANCH  23  25
ENDBRANCH  20  23
ENDBRANCH  19  20
ENDBRANCH   4  19
TORSDOF 6
ENDMDL
MODEL 4
REMARK VINA RESULT:     -11.7      2.256      2.650
REMARK  Name = 11538455
REMARK  6 active torsions:
REMARK  status: ('A' for Active; 'I' for Inactive)
REMARK    1  A    between atoms: C_4  and  C_19
REMARK    2  A    between atoms: C_12  and  C_15
REMARK    3  A    between atoms: N_14  and  O_17
REMARK    4  A    between atoms: C_19  and  N_20
REMARK    5  A    between atoms: N_20  and  C_23
REMARK    6  A    between atoms: C_23  and  C_25
REMARK                            x       y       z     vdW  Elec       q    Type
REMARK                         _______ _______ _______ _____ _____    ______ ____
ROOT
ATOM      1  N   UNL     1      33.797 -22.025 -18.254  0.00  0.00    -0.253 N 
ATOM      2  N   UNL     1      33.653 -23.530 -16.441  0.00  0.00    -0.203 NA
ATOM      3  N   UNL     1      31.703 -22.343 -17.212  0.00  0.00    -0.180 NA
ATOM      4  C   UNL     1      35.347 -20.825 -20.384  0.00  0.00    -0.018 C 
ATOM      5  C   UNL     1      35.976 -21.184 -19.034  0.00  0.00    +0.020 C 
ATOM      6  C   UNL     1      33.864 -20.499 -20.186  0.00  0.00    +0.020 C 
ATOM      7  C   UNL     1      35.229 -22.329 -18.351  0.00  0.00    +0.101 C 
ATOM      8  C   UNL     1      33.124 -21.649 -19.504  0.00  0.00    +0.101 C 
ATOM      9  C   UNL     1      33.024 -22.654 -17.270  0.00  0.00    +0.090 C 
ATOM     10  C   UNL     1      32.880 -24.115 -15.503  0.00  0.00    +0.170 C 
ATOM     11  C   UNL     1      30.989 -22.965 -16.251  0.00  0.00    +0.113 C 
ATOM     12  C   UNL     1      31.529 -23.869 -15.360  0.00  0.00    +0.078 C 
ENDROOT
BRANCH  12  15
ATOM     13  O   UNL     1      29.696 -25.149 -14.641  0.00  0.00    -0.268 OA
ATOM     14  N   UNL     1      31.156 -24.398 -13.023  0.00  0.00    -0.194 N 
ATOM     15  C   UNL     1      30.730 -24.519 -14.340  0.00  0.00    +0.267 C 
ATOM     16  H   UNL     1      31.973 -23.900 -12.790  0.00  0.00    +0.183 HD
BRANCH  14  17
ATOM     17  O   UNL     1      30.370 -25.018 -12.040  0.00  0.00    -0.295 OA
ATOM     18  H   UNL     1      29.814 -25.698 -12.452  0.00  0.00    +0.241 HD
ENDBRANCH  14  17
ENDBRANCH  12  15
BRANCH   4  19
ATOM     19  C   UNL     1      36.080 -19.653 -21.031  0.00  0.00    -0.081 C 
BRANCH  19  20
ATOM     20  N   UNL     1      35.230 -18.980 -22.001  0.00  0.00    +0.386 N 
ATOM     21  H   UNL     1      34.394 -18.634 -21.528  0.00  0.00    -0.084 HD
ATOM     22  H   UNL     1      34.977 -19.647 -22.730  0.00  0.00    -0.084 HD
BRANCH  20  23
ATOM     23  C   UNL     1      35.926 -17.859 -22.619  0.00  0.00    -0.053 C 
BRANCH  23  25
ATOM     24  N   UNL     1      33.977 -14.891 -21.768  0.00  0.00    -0.284 N 
ATOM     25  C   UNL     1      35.086 -16.614 -22.553  0.00  0.00    -0.028 C 
ATOM     26  C   UNL     1      34.539 -15.935 -23.657  0.00  0.00    +0.009 C 
ATOM     27  C   UNL     1      34.739 -15.969 -21.406  0.00  0.00    +0.059 C 
ATOM     28  C   UNL     1      33.839 -14.845 -23.137  0.00  0.00    +0.051 C 
ATOM     29  C   UNL     1      34.559 -16.125 -25.053  0.00  0.00    +0.001 C 
ATOM     30  C   UNL     1      33.154 -13.930 -23.946  0.00  0.00    +0.015 C 
ATOM     31  C   UNL     1      33.409 -13.943 -20.833  0.00  0.00    +0.117 C 
ATOM     32  C   UNL     1      33.878 -15.218 -25.876  0.00  0.00    +0.000 C 
ATOM     33  C   UNL     1      33.188 -14.138 -25.328  0.00  0.00    +0.001 C 
ENDBRANCH  23  25
ENDBRANCH  20  23
ENDBRANCH  19  20
ENDBRANCH   4  19
TORSDOF 6
ENDMDL
MODEL 5
REMARK VINA RESULT:     -11.1      6.219     10.337
REMARK  Name = 11538455
REMARK  6 active torsions:
REMARK  status: ('A' for Active; 'I' for Inactive)
REMARK    1  A    between atoms: C_4  and  C_19
REMARK    2  A    between atoms: C_12  and  C_15
REMARK    3  A    between atoms: N_14  and  O_17
REMARK    4  A    between atoms: C_19  and  N_20
REMARK    5  A    between atoms: N_20  and  C_23
REMARK    6  A    between atoms: C_23  and  C_25
REMARK                            x       y       z     vdW  Elec       q    Type
REMARK                         _______ _______ _______ _____ _____    ______ ____
ROOT
ATOM      1  N   UNL     1      33.337 -13.119 -21.959  0.00  0.00    -0.253 N 
ATOM      2  N   UNL     1      34.609 -14.790 -23.037  0.00  0.00    -0.203 NA
ATOM      3  N   UNL     1      33.925 -15.054 -20.741  0.00  0.00    -0.180 NA
ATOM      4  C   UNL     1      31.886 -10.617 -22.085  0.00  0.00    -0.018 C 
ATOM      5  C   UNL     1      33.157 -10.853 -22.906  0.00  0.00    +0.020 C 
ATOM      6  C   UNL     1      31.946 -11.449 -20.800  0.00  0.00    +0.020 C 
ATOM      7  C   UNL     1      33.371 -12.338 -23.200  0.00  0.00    +0.101 C 
ATOM      8  C   UNL     1      32.158 -12.932 -21.103  0.00  0.00    +0.101 C 
ATOM      9  C   UNL     1      33.978 -14.364 -21.910  0.00  0.00    +0.090 C 
ATOM     10  C   UNL     1      35.219 -15.991 -22.954  0.00  0.00    +0.170 C 
ATOM     11  C   UNL     1      34.554 -16.247 -20.729  0.00  0.00    +0.113 C 
ATOM     12  C   UNL     1      35.224 -16.771 -21.816  0.00  0.00    +0.078 C 
ENDROOT
BRANCH  12  15
ATOM     13  O   UNL     1      35.931 -18.798 -22.769  0.00  0.00    -0.268 OA
ATOM     14  N   UNL     1      36.460 -18.434 -20.555  0.00  0.00    -0.194 N 
ATOM     15  C   UNL     1      35.889 -18.059 -21.765  0.00  0.00    +0.267 C 
ATOM     16  H   UNL     1      36.424 -17.846 -19.765  0.00  0.00    +0.183 HD
BRANCH  14  17
ATOM     17  O   UNL     1      37.090 -19.686 -20.509  0.00  0.00    -0.295 OA
ATOM     18  H   UNL     1      37.936 -19.639 -20.982  0.00  0.00    +0.241 HD
ENDBRANCH  14  17
ENDBRANCH  12  15
BRANCH   4  19
ATOM     19  C   UNL     1      31.712  -9.135 -21.765  0.00  0.00    -0.081 C 
BRANCH  19  20
ATOM     20  N   UNL     1      32.067  -8.857 -20.382  0.00  0.00    +0.386 N 
ATOM     21  H   UNL     1      32.556  -9.665 -19.995  0.00  0.00    -0.084 HD
ATOM     22  H   UNL     1      31.212  -8.671 -19.858  0.00  0.00    -0.084 HD
BRANCH  20  23
ATOM     23  C   UNL     1      32.932  -7.687 -20.290  0.00  0.00    -0.053 C 
BRANCH  23  25
ATOM     24  N   UNL     1      31.760  -5.230 -22.723  0.00  0.00    -0.284 N 
ATOM     25  C   UNL     1      32.683  -6.753 -21.441  0.00  0.00    -0.028 C 
ATOM     26  C   UNL     1      33.497  -6.622 -22.581  0.00  0.00    +0.009 C 
ATOM     27  C   UNL     1      31.627  -5.900 -21.537  0.00  0.00    +0.059 C 
ATOM     28  C   UNL     1      32.893  -5.651 -23.382  0.00  0.00    +0.051 C 
ATOM     29  C   UNL     1      34.690  -7.224 -23.028  0.00  0.00    +0.001 C 
ATOM     30  C   UNL     1      33.425  -5.249 -24.613  0.00  0.00    +0.015 C 
ATOM     31  C   UNL     1      30.834  -4.225 -23.200  0.00  0.00    +0.117 C 
ATOM     32  C   UNL     1      35.234  -6.833 -24.258  0.00  0.00    +0.000 C 
ATOM     33  C   UNL     1      34.609  -5.860 -25.036  0.00  0.00    +0.001 C 
ENDBRANCH  23  25
ENDBRANCH  20  23
ENDBRANCH  19  20
ENDBRANCH   4  19
TORSDOF 6
ENDMDL
MODEL 6
REMARK VINA RESULT:     -10.9      1.367      2.704
REMARK  Name = 11538455
REMARK  6 active torsions:
REMARK  status: ('A' for Active; 'I' for Inactive)
REMARK    1  A    between atoms: C_4  and  C_19
REMARK    2  A    between atoms: C_12  and  C_15
REMARK    3  A    between atoms: N_14  and  O_17
REMARK    4  A    between atoms: C_19  and  N_20
REMARK    5  A    between atoms: N_20  and  C_23
REMARK    6  A    between atoms: C_23  and  C_25
REMARK                            x       y       z     vdW  Elec       q    Type
REMARK                         _______ _______ _______ _____ _____    ______ ____
ROOT
ATOM      1  N   UNL     1      35.683 -22.655 -16.679  0.00  0.00    -0.253 N 
ATOM      2  N   UNL     1      34.655 -23.630 -14.791  0.00  0.00    -0.203 NA
ATOM      3  N   UNL     1      37.053 -23.426 -14.919  0.00  0.00    -0.180 NA
ATOM      4  C   UNL     1      35.449 -21.279 -19.216  0.00  0.00    -0.018 C 
ATOM      5  C   UNL     1      34.440 -22.347 -18.783  0.00  0.00    +0.020 C 
ATOM      6  C   UNL     1      36.813 -21.580 -18.586  0.00  0.00    +0.020 C 
ATOM      7  C   UNL     1      34.351 -22.454 -17.261  0.00  0.00    +0.101 C 
ATOM      8  C   UNL     1      36.715 -21.683 -17.065  0.00  0.00    +0.101 C 
ATOM      9  C   UNL     1      35.801 -23.257 -15.421  0.00  0.00    +0.090 C 
ATOM     10  C   UNL     1      34.806 -24.210 -13.582  0.00  0.00    +0.170 C 
ATOM     11  C   UNL     1      37.130 -24.011 -13.706  0.00  0.00    +0.113 C 
ATOM     12  C   UNL     1      36.030 -24.427 -12.984  0.00  0.00    +0.078 C 
ENDROOT
BRANCH  12  15
ATOM     13  O   UNL     1      36.957 -25.987 -11.493  0.00  0.00    -0.268 OA
ATOM     14  N   UNL     1      35.333 -24.576 -10.666  0.00  0.00    -0.194 N 
ATOM     15  C   UNL     1      36.153 -25.052 -11.682  0.00  0.00    +0.267 C 
ATOM     16  H   UNL     1      34.701 -23.836 -10.820  0.00  0.00    +0.183 HD
BRANCH  14  17
ATOM     17  O   UNL     1      35.449 -25.193  -9.412  0.00  0.00    -0.295 OA
ATOM     18  H   UNL     1      36.027 -24.663  -8.842  0.00  0.00    +0.241 HD
ENDBRANCH  14  17
ENDBRANCH  12  15
BRANCH   4  19
ATOM     19  C   UNL     1      35.555 -21.216 -20.738  0.00  0.00    -0.081 C 
BRANCH  19  20
ATOM     20  N   UNL     1      34.828 -20.071 -21.262  0.00  0.00    +0.386 N 
ATOM     21  H   UNL     1      33.880 -20.076 -20.884  0.00  0.00    -0.084 HD
ATOM     22  H   UNL     1      34.807 -20.137 -22.280  0.00  0.00    -0.084 HD
BRANCH  20  23
ATOM     23  C   UNL     1      35.482 -18.822 -20.892  0.00  0.00    -0.053 C 
BRANCH  23  25
ATOM     24  N   UNL     1      34.963 -16.721 -23.833  0.00  0.00    -0.284 N 
ATOM     25  C   UNL     1      35.197 -17.754 -21.911  0.00  0.00    -0.028 C 
ATOM     26  C   UNL     1      34.778 -16.441 -21.627  0.00  0.00    +0.009 C 
ATOM     27  C   UNL     1      35.306 -17.915 -23.258  0.00  0.00    +0.059 C 
ATOM     28  C   UNL     1      34.636 -15.803 -22.861  0.00  0.00    +0.051 C 
ATOM     29  C   UNL     1      34.502 -15.716 -20.452  0.00  0.00    +0.001 C 
ATOM     30  C   UNL     1      34.228 -14.468 -22.978  0.00  0.00    +0.015 C 
ATOM     31  C   UNL     1      34.949 -16.477 -25.259  0.00  0.00    +0.117 C 
ATOM     32  C   UNL     1      34.093 -14.380 -20.553  0.00  0.00    +0.000 C 
ATOM     33  C   UNL     1      33.959 -13.768 -21.798  0.00  0.00    +0.001 C 
ENDBRANCH  23  25
ENDBRANCH  20  23
ENDBRANCH  19  20
ENDBRANCH   4  19
TORSDOF 6
ENDMDL
MODEL 7
REMARK VINA RESULT:     -10.9      8.975     13.959
REMARK  Name = 11538455
REMARK  6 active torsions:
REMARK  status: ('A' for Active; 'I' for Inactive)
REMARK    1  A    between atoms: C_4  and  C_19
REMARK    2  A    between atoms: C_12  and  C_15
REMARK    3  A    between atoms: N_14  and  O_17
REMARK    4  A    between atoms: C_19  and  N_20
REMARK    5  A    between atoms: N_20  and  C_23
REMARK    6  A    between atoms: C_23  and  C_25
REMARK                            x       y       z     vdW  Elec       q    Type
REMARK                         _______ _______ _______ _____ _____    ______ ____
ROOT
ATOM      1  N   UNL     1      31.792  -9.136 -21.145  0.00  0.00    -0.253 N 
ATOM      2  N   UNL     1      31.724  -7.578 -22.916  0.00  0.00    -0.203 NA
ATOM      3  N   UNL     1      31.338  -6.875 -20.643  0.00  0.00    -0.180 NA
ATOM      4  C   UNL     1      32.302 -11.827 -20.206  0.00  0.00    -0.018 C 
ATOM      5  C   UNL     1      31.681 -11.558 -21.580  0.00  0.00    +0.020 C 
ATOM      6  C   UNL     1      31.923 -10.698 -19.244  0.00  0.00    +0.020 C 
ATOM      7  C   UNL     1      32.088 -10.188 -22.123  0.00  0.00    +0.101 C 
ATOM      8  C   UNL     1      32.335  -9.333 -19.793  0.00  0.00    +0.101 C 
ATOM      9  C   UNL     1      31.612  -7.818 -21.582  0.00  0.00    +0.090 C 
ATOM     10  C   UNL     1      31.542  -6.298 -23.303  0.00  0.00    +0.170 C 
ATOM     11  C   UNL     1      31.168  -5.617 -21.100  0.00  0.00    +0.113 C 
ATOM     12  C   UNL     1      31.260  -5.266 -22.431  0.00  0.00    +0.078 C 
ENDROOT
BRANCH  12  15
ATOM     13  O   UNL     1      31.705  -3.459 -23.864  0.00  0.00    -0.268 OA
ATOM     14  N   UNL     1      30.173  -3.113 -22.176  0.00  0.00    -0.194 N 
ATOM     15  C   UNL     1      31.072  -3.902 -22.884  0.00  0.00    +0.267 C 
ATOM     16  H   UNL     1      29.675  -3.468 -21.404  0.00  0.00    +0.183 HD
BRANCH  14  17
ATOM     17  O   UNL     1      30.006  -1.791 -22.613  0.00  0.00    -0.295 OA
ATOM     18  H   UNL     1      29.797  -1.787 -23.560  0.00  0.00    +0.241 HD
ENDBRANCH  14  17
ENDBRANCH  12  15
BRANCH   4  19
ATOM     19  C   UNL     1      31.851 -13.180 -19.661  0.00  0.00    -0.081 C 
BRANCH  19  20
ATOM     20  N   UNL     1      32.318 -14.264 -20.512  0.00  0.00    +0.386 N 
ATOM     21  H   UNL     1      31.948 -14.132 -21.454  0.00  0.00    -0.084 HD
ATOM     22  H   UNL     1      31.991 -15.148 -20.122  0.00  0.00    -0.084 HD
BRANCH  20  23
ATOM     23  C   UNL     1      33.774 -14.293 -20.571  0.00  0.00    -0.053 C 
BRANCH  23  25
ATOM     24  N   UNL     1      35.149 -16.997 -22.604  0.00  0.00    -0.284 N 
ATOM     25  C   UNL     1      34.240 -15.253 -21.630  0.00  0.00    -0.028 C 
ATOM     26  C   UNL     1      34.061 -15.094 -23.017  0.00  0.00    +0.009 C 
ATOM     27  C   UNL     1      34.904 -16.416 -21.389  0.00  0.00    +0.059 C 
ATOM     28  C   UNL     1      34.645 -16.212 -23.616  0.00  0.00    +0.051 C 
ATOM     29  C   UNL     1      33.462 -14.119 -23.839  0.00  0.00    +0.001 C 
ATOM     30  C   UNL     1      34.662 -16.404 -25.003  0.00  0.00    +0.015 C 
ATOM     31  C   UNL     1      35.839 -18.257 -22.781  0.00  0.00    +0.117 C 
ATOM     32  C   UNL     1      33.471 -14.297 -25.228  0.00  0.00    +0.000 C 
ATOM     33  C   UNL     1      34.062 -15.424 -25.799  0.00  0.00    +0.001 C 
ENDBRANCH  23  25
ENDBRANCH  20  23
ENDBRANCH  19  20
ENDBRANCH   4  19
TORSDOF 6
ENDMDL
MODEL 8
REMARK VINA RESULT:     -10.5      8.883     13.972
REMARK  Name = 11538455
REMARK  6 active torsions:
REMARK  status: ('A' for Active; 'I' for Inactive)
REMARK    1  A    between atoms: C_4  and  C_19
REMARK    2  A    between atoms: C_12  and  C_15
REMARK    3  A    between atoms: N_14  and  O_17
REMARK    4  A    between atoms: C_19  and  N_20
REMARK    5  A    between atoms: N_20  and  C_23
REMARK    6  A    between atoms: C_23  and  C_25
REMARK                            x       y       z     vdW  Elec       q    Type
REMARK                         _______ _______ _______ _____ _____    ______ ____
ROOT
ATOM      1  N   UNL     1      31.845  -9.257 -21.309  0.00  0.00    -0.253 N 
ATOM      2  N   UNL     1      31.941  -7.588 -22.975  0.00  0.00    -0.203 NA
ATOM      3  N   UNL     1      31.266  -7.044 -20.727  0.00  0.00    -0.180 NA
ATOM      4  C   UNL     1      32.322 -11.991 -20.485  0.00  0.00    -0.018 C 
ATOM      5  C   UNL     1      31.861 -11.647 -21.904  0.00  0.00    +0.020 C 
ATOM      6  C   UNL     1      31.797 -10.936 -19.507  0.00  0.00    +0.020 C 
ATOM      7  C   UNL     1      32.287 -10.236 -22.308  0.00  0.00    +0.101 C 
ATOM      8  C   UNL     1      32.230  -9.529 -19.917  0.00  0.00    +0.101 C 
ATOM      9  C   UNL     1      31.679  -7.918 -21.682  0.00  0.00    +0.090 C 
ATOM     10  C   UNL     1      31.767  -6.290 -23.301  0.00  0.00    +0.170 C 
ATOM     11  C   UNL     1      31.114  -5.763 -21.121  0.00  0.00    +0.113 C 
ATOM     12  C   UNL     1      31.352  -5.324 -22.408  0.00  0.00    +0.078 C 
ENDROOT
BRANCH  12  15
ATOM     13  O   UNL     1      31.875  -3.432 -23.697  0.00  0.00    -0.268 OA
ATOM     14  N   UNL     1      30.217  -3.202 -22.112  0.00  0.00    -0.194 N 
ATOM     15  C   UNL     1      31.178  -3.938 -22.794  0.00  0.00    +0.267 C 
ATOM     16  H   UNL     1      29.668  -3.606 -21.401  0.00  0.00    +0.183 HD
BRANCH  14  17
ATOM     17  O   UNL     1      30.063  -1.858 -22.483  0.00  0.00    -0.295 OA
ATOM     18  H   UNL     1      30.408  -1.729 -23.380  0.00  0.00    +0.241 HD
ENDBRANCH  14  17
ENDBRANCH  12  15
BRANCH   4  19
ATOM     19  C   UNL     1      31.851 -13.387 -20.083  0.00  0.00    -0.081 C 
BRANCH  19  20
ATOM     20  N   UNL     1      32.968 -14.317 -20.031  0.00  0.00    +0.386 N 
ATOM     21  H   UNL     1      32.658 -15.230 -20.366  0.00  0.00    -0.084 HD
ATOM     22  H   UNL     1      33.293 -14.382 -19.067  0.00  0.00    -0.084 HD
BRANCH  20  23
ATOM     23  C   UNL     1      34.073 -13.855 -20.863  0.00  0.00    -0.053 C 
BRANCH  23  25
ATOM     24  N   UNL     1      34.150 -15.376 -24.182  0.00  0.00    -0.284 N 
ATOM     25  C   UNL     1      34.204 -14.713 -22.091  0.00  0.00    -0.028 C 
ATOM     26  C   UNL     1      34.663 -16.043 -22.117  0.00  0.00    +0.009 C 
ATOM     27  C   UNL     1      33.894 -14.315 -23.355  0.00  0.00    +0.059 C 
ATOM     28  C   UNL     1      34.621 -16.444 -23.453  0.00  0.00    +0.051 C 
ATOM     29  C   UNL     1      35.115 -16.959 -21.147  0.00  0.00    +0.001 C 
ATOM     30  C   UNL     1      35.009 -17.722 -23.871  0.00  0.00    +0.015 C 
ATOM     31  C   UNL     1      33.950 -15.358 -25.615  0.00  0.00    +0.117 C 
ATOM     32  C   UNL     1      35.506 -18.243 -21.549  0.00  0.00    +0.000 C 
ATOM     33  C   UNL     1      35.453 -18.616 -22.892  0.00  0.00    +0.001 C 
ENDBRANCH  23  25
ENDBRANCH  20  23
ENDBRANCH  19  20
ENDBRANCH   4  19
TORSDOF 6
ENDMDL
MODEL 9
REMARK VINA RESULT:     -10.4      5.398     11.401
REMARK  Name = 11538455
REMARK  6 active torsions:
REMARK  status: ('A' for Active; 'I' for Inactive)
REMARK    1  A    between atoms: C_4  and  C_19
REMARK    2  A    between atoms: C_12  and  C_15
REMARK    3  A    between atoms: N_14  and  O_17
REMARK    4  A    between atoms: C_19  and  N_20
REMARK    5  A    between atoms: N_20  and  C_23
REMARK    6  A    between atoms: C_23  and  C_25
REMARK                            x       y       z     vdW  Elec       q    Type
REMARK                         _______ _______ _______ _____ _____    ______ ____
ROOT
ATOM      1  N   UNL     1      34.296 -15.334 -22.184  0.00  0.00    -0.253 N 
ATOM      2  N   UNL     1      34.108 -13.274 -23.322  0.00  0.00    -0.203 NA
ATOM      3  N   UNL     1      33.003 -13.617 -21.208  0.00  0.00    -0.180 NA
ATOM      4  C   UNL     1      35.459 -17.977 -21.983  0.00  0.00    -0.018 C 
ATOM      5  C   UNL     1      35.112 -17.351 -23.337  0.00  0.00    +0.020 C 
ATOM      6  C   UNL     1      34.512 -17.431 -20.910  0.00  0.00    +0.020 C 
ATOM      7  C   UNL     1      35.144 -15.824 -23.276  0.00  0.00    +0.101 C 
ATOM      8  C   UNL     1      34.551 -15.905 -20.854  0.00  0.00    +0.101 C 
ATOM      9  C   UNL     1      33.785 -14.031 -22.239  0.00  0.00    +0.090 C 
ATOM     10  C   UNL     1      33.597 -12.026 -23.344  0.00  0.00    +0.170 C 
ATOM     11  C   UNL     1      32.526 -12.358 -21.295  0.00  0.00    +0.113 C 
ATOM     12  C   UNL     1      32.793 -11.508 -22.350  0.00  0.00    +0.078 C 
ENDROOT
BRANCH  12  15
ATOM     13  O   UNL     1      31.143  -9.891 -21.930  0.00  0.00    -0.268 OA
ATOM     14  N   UNL     1      33.047  -9.193 -23.025  0.00  0.00    -0.194 N 
ATOM     15  C   UNL     1      32.263 -10.160 -22.407  0.00  0.00    +0.267 C 
ATOM     16  H   UNL     1      33.932  -9.410 -23.399  0.00  0.00    +0.183 HD
BRANCH  14  17
ATOM     17  O   UNL     1      32.522  -7.894 -23.088  0.00  0.00    -0.295 OA
ATOM     18  H   UNL     1      32.097  -7.758 -23.949  0.00  0.00    +0.241 HD
ENDBRANCH  14  17
ENDBRANCH  12  15
BRANCH   4  19
ATOM     19  C   UNL     1      35.381 -19.501 -22.052  0.00  0.00    -0.081 C 
BRANCH  19  20
ATOM     20  N   UNL     1      34.870 -20.051 -20.807  0.00  0.00    +0.386 N 
ATOM     21  H   UNL     1      33.985 -20.526 -20.990  0.00  0.00    -0.084 HD
ATOM     22  H   UNL     1      34.735 -19.288 -20.144  0.00  0.00    -0.084 HD
BRANCH  20  23
ATOM     23  C   UNL     1      35.811 -21.004 -20.231  0.00  0.00    -0.053 C 
BRANCH  23  25
ATOM     24  N   UNL     1      33.784 -22.597 -17.646  0.00  0.00    -0.284 N 
ATOM     25  C   UNL     1      35.220 -21.661 -19.015  0.00  0.00    -0.028 C 
ATOM     26  C   UNL     1      35.917 -21.974 -17.833  0.00  0.00    +0.009 C 
ATOM     27  C   UNL     1      33.921 -22.045 -18.891  0.00  0.00    +0.059 C 
ATOM     28  C   UNL     1      34.986 -22.567 -16.978  0.00  0.00    +0.051 C 
ATOM     29  C   UNL     1      37.245 -21.820 -17.389  0.00  0.00    +0.001 C 
ATOM     30  C   UNL     1      35.319 -23.016 -15.694  0.00  0.00    +0.015 C 
ATOM     31  C   UNL     1      32.544 -23.133 -17.124  0.00  0.00    +0.117 C 
ATOM     32  C   UNL     1      37.593 -22.263 -16.106  0.00  0.00    +0.000 C 
ATOM     33  C   UNL     1      36.642 -22.852 -15.274  0.00  0.00    +0.001 C 
ENDBRANCH  23  25
ENDBRANCH  20  23
ENDBRANCH  19  20
ENDBRANCH   4  19
TORSDOF 6
ENDMDL
