MODEL 1
REMARK VINA RESULT:     -12.0      0.000      0.000
REMARK  Name = 6918314
REMARK  8 active torsions:
REMARK  status: ('A' for Active; 'I' for Inactive)
REMARK    1  A    between atoms: N_1  and  C_22
REMARK    2  A    between atoms: N_2  and  C_9
REMARK    3  A    between atoms: C_16  and  C_19
REMARK    4  A    between atoms: C_22  and  C_23
REMARK    5  A    between atoms: C_23  and  C_24
REMARK    6  A    between atoms: C_24  and  C_25
REMARK    7  A    between atoms: C_25  and  C_27
REMARK    8  A    between atoms: C_33  and  C_37
REMARK                            x       y       z     vdW  Elec       q    Type
REMARK                         _______ _______ _______ _____ _____    ______ ____
ROOT
ATOM      1  N   UNL     1      35.603 -21.221 -19.860  0.00  0.00    +0.389 N 
ATOM      2  N   UNL     1      35.223 -18.740 -21.223  0.00  0.00    -0.312 N 
ATOM      3  C   UNL     1      34.263 -20.632 -19.970  0.00  0.00    -0.055 C 
ATOM      4  C   UNL     1      36.609 -20.158 -19.761  0.00  0.00    -0.055 C 
ATOM      5  C   UNL     1      34.153 -19.745 -21.212  0.00  0.00    +0.068 C 
ATOM      6  C   UNL     1      36.578 -19.253 -20.995  0.00  0.00    +0.068 C 
ATOM      7  H   UNL     1      35.790 -21.773 -20.698  0.00  0.00    -0.080 HD
ENDROOT
BRANCH   2   9
ATOM      8  O   UNL     1      34.465 -14.120 -24.159  0.00  0.00    -0.449 OA
ATOM      9  C   UNL     1      35.038 -17.590 -21.999  0.00  0.00    +0.048 C 
ATOM     10  C   UNL     1      34.726 -16.351 -21.386  0.00  0.00    +0.018 C 
ATOM     11  C   UNL     1      35.156 -17.644 -23.406  0.00  0.00    +0.018 C 
ATOM     12  C   UNL     1      34.543 -15.205 -22.179  0.00  0.00    +0.039 C 
ATOM     13  C   UNL     1      34.675 -15.325 -23.559  0.00  0.00    +0.146 C 
ATOM     14  C   UNL     1      34.979 -16.517 -24.215  0.00  0.00    +0.039 C 
ATOM     15  C   UNL     1      34.235 -13.841 -21.938  0.00  0.00    +0.045 C 
ATOM     16  C   UNL     1      34.199 -13.228 -23.169  0.00  0.00    +0.198 C 
BRANCH  16  19
ATOM     17  O   UNL     1      33.113 -11.123 -22.969  0.00  0.00    -0.267 OA
ATOM     18  N   UNL     1      34.636 -11.345 -24.637  0.00  0.00    -0.323 N 
ATOM     19  C   UNL     1      33.940 -11.879 -23.540  0.00  0.00    +0.277 C 
ATOM     20  H   UNL     1      34.476 -10.414 -24.916  0.00  0.00    +0.145 HD
ATOM     21  H   UNL     1      35.283 -11.901 -25.128  0.00  0.00    +0.145 HD
ENDBRANCH  16  19
ENDBRANCH   2   9
BRANCH   1  22
ATOM     22  C   UNL     1      35.679 -22.110 -18.701  0.00  0.00    -0.077 C 
BRANCH  22  23
ATOM     23  C   UNL     1      34.277 -22.431 -18.185  0.00  0.00    -0.022 C 
BRANCH  23  24
ATOM     24  C   UNL     1      34.324 -23.478 -17.071  0.00  0.00    +0.003 C 
BRANCH  24  25
ATOM     25  C   UNL     1      34.039 -22.851 -15.703  0.00  0.00    +0.028 C 
BRANCH  25  27
ATOM     26  N   UNL     1      32.582 -25.121 -13.242  0.00  0.00    -0.312 N 
ATOM     27  C   UNL     1      33.196 -23.736 -14.835  0.00  0.00    -0.006 C 
ATOM     28  C   UNL     1      31.814 -23.968 -14.991  0.00  0.00    +0.011 C 
ATOM     29  C   UNL     1      33.652 -24.445 -13.765  0.00  0.00    +0.058 C 
ATOM     30  C   UNL     1      31.446 -24.848 -13.970  0.00  0.00    +0.048 C 
ATOM     31  C   UNL     1      30.825 -23.523 -15.892  0.00  0.00    +0.011 C 
ATOM     32  C   UNL     1      30.135 -25.309 -13.807  0.00  0.00    +0.015 C 
ATOM     33  C   UNL     1      29.510 -23.976 -15.740  0.00  0.00    +0.069 C 
ATOM     34  C   UNL     1      29.172 -24.854 -14.713  0.00  0.00    +0.012 C 
ATOM     35  H   UNL     1      32.619 -25.716 -12.459  0.00  0.00    +0.152 HD
BRANCH  33  37
ATOM     36  N   UNL     1      27.684 -23.167 -17.391  0.00  0.00    -0.191 NA
ATOM     37  C   UNL     1      28.502 -23.530 -16.652  0.00  0.00    +0.100 C 
ENDBRANCH  33  37
ENDBRANCH  25  27
ENDBRANCH  24  25
ENDBRANCH  23  24
ENDBRANCH  22  23
ENDBRANCH   1  22
TORSDOF 8
ENDMDL
MODEL 2
REMARK VINA RESULT:     -11.8      2.643      4.530
REMARK  Name = 6918314
REMARK  8 active torsions:
REMARK  status: ('A' for Active; 'I' for Inactive)
REMARK    1  A    between atoms: N_1  and  C_22
REMARK    2  A    between atoms: N_2  and  C_9
REMARK    3  A    between atoms: C_16  and  C_19
REMARK    4  A    between atoms: C_22  and  C_23
REMARK    5  A    between atoms: C_23  and  C_24
REMARK    6  A    between atoms: C_24  and  C_25
REMARK    7  A    between atoms: C_25  and  C_27
REMARK    8  A    between atoms: C_33  and  C_37
REMARK                            x       y       z     vdW  Elec       q    Type
REMARK                         _______ _______ _______ _____ _____    ______ ____
ROOT
ATOM      1  N   UNL     1      35.274 -21.509 -19.647  0.00  0.00    +0.389 N 
ATOM      2  N   UNL     1      35.043 -19.019 -21.025  0.00  0.00    -0.312 N 
ATOM      3  C   UNL     1      33.980 -20.821 -19.725  0.00  0.00    -0.055 C 
ATOM      4  C   UNL     1      36.360 -20.525 -19.589  0.00  0.00    -0.055 C 
ATOM      5  C   UNL     1      33.900 -19.939 -20.972  0.00  0.00    +0.068 C 
ATOM      6  C   UNL     1      36.361 -19.631 -20.831  0.00  0.00    +0.068 C 
ATOM      7  H   UNL     1      35.394 -22.081 -20.483  0.00  0.00    -0.080 HD
ENDROOT
BRANCH   2   9
ATOM      8  O   UNL     1      34.529 -14.384 -23.991  0.00  0.00    -0.449 OA
ATOM      9  C   UNL     1      34.922 -17.864 -21.809  0.00  0.00    +0.048 C 
ATOM     10  C   UNL     1      34.562 -16.629 -21.216  0.00  0.00    +0.018 C 
ATOM     11  C   UNL     1      35.155 -17.912 -23.201  0.00  0.00    +0.018 C 
ATOM     12  C   UNL     1      34.445 -15.479 -22.017  0.00  0.00    +0.039 C 
ATOM     13  C   UNL     1      34.689 -15.592 -23.382  0.00  0.00    +0.146 C 
ATOM     14  C   UNL     1      35.045 -16.781 -24.016  0.00  0.00    +0.039 C 
ATOM     15  C   UNL     1      34.119 -14.115 -21.795  0.00  0.00    +0.045 C 
ATOM     16  C   UNL     1      34.184 -13.496 -23.021  0.00  0.00    +0.198 C 
BRANCH  16  19
ATOM     17  O   UNL     1      33.167 -11.357 -22.827  0.00  0.00    -0.267 OA
ATOM     18  N   UNL     1      34.642 -11.648 -24.527  0.00  0.00    -0.323 N 
ATOM     19  C   UNL     1      33.957 -12.145 -23.407  0.00  0.00    +0.277 C 
ATOM     20  H   UNL     1      34.503 -10.716 -24.815  0.00  0.00    +0.145 HD
ATOM     21  H   UNL     1      35.260 -12.230 -25.024  0.00  0.00    +0.145 HD
ENDBRANCH  16  19
ENDBRANCH   2   9
BRANCH   1  22
ATOM     22  C   UNL     1      35.317 -22.391 -18.481  0.00  0.00    -0.077 C 
BRANCH  22  23
ATOM     23  C   UNL     1      33.902 -22.791 -18.065  0.00  0.00    -0.022 C 
BRANCH  23  24
ATOM     24  C   UNL     1      33.851 -23.188 -16.589  0.00  0.00    +0.003 C 
BRANCH  24  25
ATOM     25  C   UNL     1      35.229 -23.066 -15.930  0.00  0.00    +0.028 C 
BRANCH  25  27
ATOM     26  N   UNL     1      34.748 -24.713 -12.707  0.00  0.00    -0.312 N 
ATOM     27  C   UNL     1      35.309 -23.815 -14.633  0.00  0.00    -0.006 C 
ATOM     28  C   UNL     1      36.453 -24.461 -14.124  0.00  0.00    +0.011 C 
ATOM     29  C   UNL     1      34.275 -23.977 -13.760  0.00  0.00    +0.058 C 
ATOM     30  C   UNL     1      36.075 -25.024 -12.903  0.00  0.00    +0.048 C 
ATOM     31  C   UNL     1      37.780 -24.633 -14.568  0.00  0.00    +0.011 C 
ATOM     32  C   UNL     1      36.961 -25.751 -12.100  0.00  0.00    +0.015 C 
ATOM     33  C   UNL     1      38.677 -25.359 -13.775  0.00  0.00    +0.069 C 
ATOM     34  C   UNL     1      38.272 -25.909 -12.561  0.00  0.00    +0.012 C 
ATOM     35  H   UNL     1      34.217 -24.983 -11.923  0.00  0.00    +0.152 HD
BRANCH  33  37
ATOM     36  N   UNL     1      41.119 -25.680 -14.579  0.00  0.00    -0.191 NA
ATOM     37  C   UNL     1      40.025 -25.536 -14.219  0.00  0.00    +0.100 C 
ENDBRANCH  33  37
ENDBRANCH  25  27
ENDBRANCH  24  25
ENDBRANCH  23  24
ENDBRANCH  22  23
ENDBRANCH   1  22
TORSDOF 8
ENDMDL
MODEL 3
REMARK VINA RESULT:     -11.7      1.127      1.556
REMARK  Name = 6918314
REMARK  8 active torsions:
REMARK  status: ('A' for Active; 'I' for Inactive)
REMARK    1  A    between atoms: N_1  and  C_22
REMARK    2  A    between atoms: N_2  and  C_9
REMARK    3  A    between atoms: C_16  and  C_19
REMARK    4  A    between atoms: C_22  and  C_23
REMARK    5  A    between atoms: C_23  and  C_24
REMARK    6  A    between atoms: C_24  and  C_25
REMARK    7  A    between atoms: C_25  and  C_27
REMARK    8  A    between atoms: C_33  and  C_37
REMARK                            x       y       z     vdW  Elec       q    Type
REMARK                         _______ _______ _______ _____ _____    ______ ____
ROOT
ATOM      1  N   UNL     1      35.965 -20.757 -19.232  0.00  0.00    +0.389 N 
ATOM      2  N   UNL     1      35.413 -18.898 -21.328  0.00  0.00    -0.312 N 
ATOM      3  C   UNL     1      37.058 -20.202 -20.038  0.00  0.00    -0.055 C 
ATOM      4  C   UNL     1      34.761 -20.905 -20.057  0.00  0.00    -0.055 C 
ATOM      5  C   UNL     1      36.685 -18.828 -20.598  0.00  0.00    +0.068 C 
ATOM      6  C   UNL     1      34.310 -19.555 -20.619  0.00  0.00    +0.068 C 
ATOM      7  H   UNL     1      35.762 -20.116 -18.465  0.00  0.00    -0.080 HD
ENDROOT
BRANCH   2   9
ATOM      8  O   UNL     1      34.323 -14.842 -24.920  0.00  0.00    -0.449 OA
ATOM      9  C   UNL     1      35.136 -17.897 -22.266  0.00  0.00    +0.048 C 
ATOM     10  C   UNL     1      34.995 -16.548 -21.857  0.00  0.00    +0.018 C 
ATOM     11  C   UNL     1      34.992 -18.213 -23.636  0.00  0.00    +0.018 C 
ATOM     12  C   UNL     1      34.718 -15.553 -22.812  0.00  0.00    +0.039 C 
ATOM     13  C   UNL     1      34.589 -15.931 -24.145  0.00  0.00    +0.146 C 
ATOM     14  C   UNL     1      34.717 -17.241 -24.603  0.00  0.00    +0.039 C 
ATOM     15  C   UNL     1      34.517 -14.149 -22.788  0.00  0.00    +0.045 C 
ATOM     16  C   UNL     1      34.282 -13.767 -24.088  0.00  0.00    +0.198 C 
BRANCH  16  19
ATOM     17  O   UNL     1      33.557 -12.307 -25.817  0.00  0.00    -0.267 OA
ATOM     18  N   UNL     1      34.302 -11.347 -23.901  0.00  0.00    -0.323 N 
ATOM     19  C   UNL     1      34.016 -12.492 -24.661  0.00  0.00    +0.277 C 
ATOM     20  H   UNL     1      34.128 -10.452 -24.273  0.00  0.00    +0.145 HD
ATOM     21  H   UNL     1      34.678 -11.439 -22.995  0.00  0.00    +0.145 HD
ENDBRANCH  16  19
ENDBRANCH   2   9
BRANCH   1  22
ATOM     22  C   UNL     1      36.355 -22.045 -18.657  0.00  0.00    -0.077 C 
BRANCH  22  23
ATOM     23  C   UNL     1      37.117 -21.834 -17.350  0.00  0.00    -0.022 C 
BRANCH  23  24
ATOM     24  C   UNL     1      36.387 -22.483 -16.173  0.00  0.00    +0.003 C 
BRANCH  24  25
ATOM     25  C   UNL     1      34.962 -22.893 -16.558  0.00  0.00    +0.028 C 
BRANCH  25  27
ATOM     26  N   UNL     1      33.839 -24.718 -13.601  0.00  0.00    -0.312 N 
ATOM     27  C   UNL     1      34.238 -23.564 -15.429  0.00  0.00    -0.006 C 
ATOM     28  C   UNL     1      32.842 -23.565 -15.231  0.00  0.00    +0.011 C 
ATOM     29  C   UNL     1      34.834 -24.270 -14.428  0.00  0.00    +0.058 C 
ATOM     30  C   UNL     1      32.611 -24.302 -14.067  0.00  0.00    +0.048 C 
ATOM     31  C   UNL     1      31.739 -23.018 -15.916  0.00  0.00    +0.011 C 
ATOM     32  C   UNL     1      31.329 -24.521 -13.554  0.00  0.00    +0.015 C 
ATOM     33  C   UNL     1      30.450 -23.228 -15.414  0.00  0.00    +0.069 C 
ATOM     34  C   UNL     1      30.250 -23.968 -14.250  0.00  0.00    +0.012 C 
ATOM     35  H   UNL     1      33.980 -25.259 -12.791  0.00  0.00    +0.152 HD
BRANCH  33  37
ATOM     36  N   UNL     1      28.414 -22.227 -16.666  0.00  0.00    -0.191 NA
ATOM     37  C   UNL     1      29.326 -22.676 -16.105  0.00  0.00    +0.100 C 
ENDBRANCH  33  37
ENDBRANCH  25  27
ENDBRANCH  24  25
ENDBRANCH  23  24
ENDBRANCH  22  23
ENDBRANCH   1  22
TORSDOF 8
ENDMDL
MODEL 4
REMARK VINA RESULT:     -11.7      2.867      5.603
REMARK  Name = 6918314
REMARK  8 active torsions:
REMARK  status: ('A' for Active; 'I' for Inactive)
REMARK    1  A    between atoms: N_1  and  C_22
REMARK    2  A    between atoms: N_2  and  C_9
REMARK    3  A    between atoms: C_16  and  C_19
REMARK    4  A    between atoms: C_22  and  C_23
REMARK    5  A    between atoms: C_23  and  C_24
REMARK    6  A    between atoms: C_24  and  C_25
REMARK    7  A    between atoms: C_25  and  C_27
REMARK    8  A    between atoms: C_33  and  C_37
REMARK                            x       y       z     vdW  Elec       q    Type
REMARK                         _______ _______ _______ _____ _____    ______ ____
ROOT
ATOM      1  N   UNL     1      35.484 -16.916 -22.557  0.00  0.00    +0.389 N 
ATOM      2  N   UNL     1      33.927 -14.542 -22.244  0.00  0.00    -0.312 N 
ATOM      3  C   UNL     1      34.722 -16.374 -23.688  0.00  0.00    -0.055 C 
ATOM      4  C   UNL     1      34.768 -16.657 -21.302  0.00  0.00    -0.055 C 
ATOM      5  C   UNL     1      34.526 -14.863 -23.545  0.00  0.00    +0.068 C 
ATOM      6  C   UNL     1      34.572 -15.156 -21.080  0.00  0.00    +0.068 C 
ATOM      7  H   UNL     1      36.392 -16.452 -22.519  0.00  0.00    -0.080 HD
ENDROOT
BRANCH   2   9
ATOM      8  O   UNL     1      31.426  -9.632 -21.815  0.00  0.00    -0.449 OA
ATOM      9  C   UNL     1      33.271 -13.313 -22.108  0.00  0.00    +0.048 C 
ATOM     10  C   UNL     1      33.635 -12.210 -22.918  0.00  0.00    +0.018 C 
ATOM     11  C   UNL     1      32.237 -13.150 -21.159  0.00  0.00    +0.018 C 
ATOM     12  C   UNL     1      32.966 -10.982 -22.769  0.00  0.00    +0.039 C 
ATOM     13  C   UNL     1      31.956 -10.888 -21.817  0.00  0.00    +0.146 C 
ATOM     14  C   UNL     1      31.558 -11.939 -20.993  0.00  0.00    +0.039 C 
ATOM     15  C   UNL     1      33.046  -9.701 -23.375  0.00  0.00    +0.045 C 
ATOM     16  C   UNL     1      32.092  -8.921 -22.762  0.00  0.00    +0.198 C 
BRANCH  16  19
ATOM     17  O   UNL     1      30.623  -7.060 -22.606  0.00  0.00    -0.267 OA
ATOM     18  N   UNL     1      32.627  -6.711 -23.611  0.00  0.00    -0.323 N 
ATOM     19  C   UNL     1      31.721  -7.562 -22.958  0.00  0.00    +0.277 C 
ATOM     20  H   UNL     1      32.396  -5.765 -23.759  0.00  0.00    +0.145 HD
ATOM     21  H   UNL     1      33.494  -7.059 -23.920  0.00  0.00    +0.145 HD
ENDBRANCH  16  19
ENDBRANCH   2   9
BRANCH   1  22
ATOM     22  C   UNL     1      35.711 -18.350 -22.731  0.00  0.00    -0.077 C 
BRANCH  22  23
ATOM     23  C   UNL     1      36.171 -18.978 -21.417  0.00  0.00    -0.022 C 
BRANCH  23  24
ATOM     24  C   UNL     1      35.233 -20.107 -20.986  0.00  0.00    +0.003 C 
BRANCH  24  25
ATOM     25  C   UNL     1      35.847 -20.943 -19.859  0.00  0.00    +0.028 C 
BRANCH  25  27
ATOM     26  N   UNL     1      32.886 -22.505 -18.403  0.00  0.00    -0.312 N 
ATOM     27  C   UNL     1      34.807 -21.652 -19.044  0.00  0.00    -0.006 C 
ATOM     28  C   UNL     1      35.017 -22.261 -17.790  0.00  0.00    +0.011 C 
ATOM     29  C   UNL     1      33.503 -21.809 -19.407  0.00  0.00    +0.058 C 
ATOM     30  C   UNL     1      33.786 -22.796 -17.402  0.00  0.00    +0.048 C 
ATOM     31  C   UNL     1      36.125 -22.420 -16.934  0.00  0.00    +0.011 C 
ATOM     32  C   UNL     1      33.608 -23.482 -16.196  0.00  0.00    +0.015 C 
ATOM     33  C   UNL     1      35.961 -23.105 -15.724  0.00  0.00    +0.069 C 
ATOM     34  C   UNL     1      34.721 -23.627 -15.363  0.00  0.00    +0.012 C 
ATOM     35  H   UNL     1      31.935 -22.762 -18.396  0.00  0.00    +0.152 HD
BRANCH  33  37
ATOM     36  N   UNL     1      37.989 -23.401 -14.139  0.00  0.00    -0.191 NA
ATOM     37  C   UNL     1      37.081 -23.268 -14.850  0.00  0.00    +0.100 C 
ENDBRANCH  33  37
ENDBRANCH  25  27
ENDBRANCH  24  25
ENDBRANCH  23  24
ENDBRANCH  22  23
ENDBRANCH   1  22
TORSDOF 8
ENDMDL
MODEL 5
REMARK VINA RESULT:     -11.4      2.354      4.788
REMARK  Name = 6918314
REMARK  8 active torsions:
REMARK  status: ('A' for Active; 'I' for Inactive)
REMARK    1  A    between atoms: N_1  and  C_22
REMARK    2  A    between atoms: N_2  and  C_9
REMARK    3  A    between atoms: C_16  and  C_19
REMARK    4  A    between atoms: C_22  and  C_23
REMARK    5  A    between atoms: C_23  and  C_24
REMARK    6  A    between atoms: C_24  and  C_25
REMARK    7  A    between atoms: C_25  and  C_27
REMARK    8  A    between atoms: C_33  and  C_37
REMARK                            x       y       z     vdW  Elec       q    Type
REMARK                         _______ _______ _______ _____ _____    ______ ____
ROOT
ATOM      1  N   UNL     1      35.603 -17.224 -22.373  0.00  0.00    +0.389 N 
ATOM      2  N   UNL     1      34.007 -14.882 -22.025  0.00  0.00    -0.312 N 
ATOM      3  C   UNL     1      34.849 -16.666 -23.501  0.00  0.00    -0.055 C 
ATOM      4  C   UNL     1      34.866 -17.007 -21.123  0.00  0.00    -0.055 C 
ATOM      5  C   UNL     1      34.629 -15.162 -23.325  0.00  0.00    +0.068 C 
ATOM      6  C   UNL     1      34.645 -15.515 -20.867  0.00  0.00    +0.068 C 
ATOM      7  H   UNL     1      36.503 -16.749 -22.310  0.00  0.00    -0.080 HD
ENDROOT
BRANCH   2   9
ATOM      8  O   UNL     1      31.419 -10.025 -21.520  0.00  0.00    -0.449 OA
ATOM      9  C   UNL     1      33.331 -13.666 -21.867  0.00  0.00    +0.048 C 
ATOM     10  C   UNL     1      33.617 -12.569 -22.718  0.00  0.00    +0.018 C 
ATOM     11  C   UNL     1      32.355 -13.510 -20.858  0.00  0.00    +0.018 C 
ATOM     12  C   UNL     1      32.929 -11.355 -22.547  0.00  0.00    +0.039 C 
ATOM     13  C   UNL     1      31.979 -11.267 -21.535  0.00  0.00    +0.146 C 
ATOM     14  C   UNL     1      31.659 -12.312 -20.670  0.00  0.00    +0.039 C 
ATOM     15  C   UNL     1      32.939 -10.084 -23.179  0.00  0.00    +0.045 C 
ATOM     16  C   UNL     1      32.007  -9.316 -22.519  0.00  0.00    +0.198 C 
BRANCH  16  19
ATOM     17  O   UNL     1      31.237  -7.480 -23.817  0.00  0.00    -0.267 OA
ATOM     18  N   UNL     1      31.592  -7.105 -21.607  0.00  0.00    -0.323 N 
ATOM     19  C   UNL     1      31.591  -7.969 -22.714  0.00  0.00    +0.277 C 
ATOM     20  H   UNL     1      31.308  -6.168 -21.713  0.00  0.00    +0.145 HD
ATOM     21  H   UNL     1      31.876  -7.436 -20.724  0.00  0.00    +0.145 HD
ENDBRANCH  16  19
ENDBRANCH   2   9
BRANCH   1  22
ATOM     22  C   UNL     1      35.854 -18.650 -22.580  0.00  0.00    -0.077 C 
BRANCH  22  23
ATOM     23  C   UNL     1      34.865 -19.486 -21.769  0.00  0.00    -0.022 C 
BRANCH  23  24
ATOM     24  C   UNL     1      35.588 -20.343 -20.728  0.00  0.00    +0.003 C 
BRANCH  24  25
ATOM     25  C   UNL     1      34.608 -21.234 -19.960  0.00  0.00    +0.028 C 
BRANCH  25  27
ATOM     26  N   UNL     1      36.663 -22.341 -17.153  0.00  0.00    -0.312 N 
ATOM     27  C   UNL     1      35.202 -21.776 -18.694  0.00  0.00    -0.006 C 
ATOM     28  C   UNL     1      34.487 -22.381 -17.641  0.00  0.00    +0.011 C 
ATOM     29  C   UNL     1      36.529 -21.757 -18.383  0.00  0.00    +0.058 C 
ATOM     30  C   UNL     1      35.432 -22.731 -16.674  0.00  0.00    +0.048 C 
ATOM     31  C   UNL     1      33.129 -22.673 -17.398  0.00  0.00    +0.011 C 
ATOM     32  C   UNL     1      35.087 -23.362 -15.475  0.00  0.00    +0.015 C 
ATOM     33  C   UNL     1      32.770 -23.303 -16.202  0.00  0.00    +0.069 C 
ATOM     34  C   UNL     1      33.734 -23.642 -15.256  0.00  0.00    +0.012 C 
ATOM     35  H   UNL     1      37.517 -22.464 -16.677  0.00  0.00    +0.152 HD
BRANCH  33  37
ATOM     36  N   UNL     1      30.278 -23.847 -15.745  0.00  0.00    -0.191 NA
ATOM     37  C   UNL     1      31.394 -23.603 -15.950  0.00  0.00    +0.100 C 
ENDBRANCH  33  37
ENDBRANCH  25  27
ENDBRANCH  24  25
ENDBRANCH  23  24
ENDBRANCH  22  23
ENDBRANCH   1  22
TORSDOF 8
ENDMDL
MODEL 6
REMARK VINA RESULT:     -11.4      4.866     11.901
REMARK  Name = 6918314
REMARK  8 active torsions:
REMARK  status: ('A' for Active; 'I' for Inactive)
REMARK    1  A    between atoms: N_1  and  C_22
REMARK    2  A    between atoms: N_2  and  C_9
REMARK    3  A    between atoms: C_16  and  C_19
REMARK    4  A    between atoms: C_22  and  C_23
REMARK    5  A    between atoms: C_23  and  C_24
REMARK    6  A    between atoms: C_24  and  C_25
REMARK    7  A    between atoms: C_25  and  C_27
REMARK    8  A    between atoms: C_33  and  C_37
REMARK                            x       y       z     vdW  Elec       q    Type
REMARK                         _______ _______ _______ _____ _____    ______ ____
ROOT
ATOM      1  N   UNL     1      35.865 -21.247 -19.887  0.00  0.00    +0.389 N 
ATOM      2  N   UNL     1      35.274 -22.212 -17.265  0.00  0.00    -0.312 N 
ATOM      3  C   UNL     1      36.764 -20.947 -18.767  0.00  0.00    -0.055 C 
ATOM      4  C   UNL     1      34.478 -21.306 -19.413  0.00  0.00    -0.055 C 
ATOM      5  C   UNL     1      36.669 -22.024 -17.683  0.00  0.00    +0.068 C 
ATOM      6  C   UNL     1      34.305 -22.394 -18.350  0.00  0.00    +0.068 C 
ATOM      7  H   UNL     1      36.117 -22.154 -20.279  0.00  0.00    -0.080 HD
ENDROOT
BRANCH   2   9
ATOM      8  O   UNL     1      34.466 -24.461 -12.282  0.00  0.00    -0.449 OA
ATOM      9  C   UNL     1      35.036 -22.795 -16.015  0.00  0.00    +0.048 C 
ATOM     10  C   UNL     1      35.981 -22.665 -14.969  0.00  0.00    +0.018 C 
ATOM     11  C   UNL     1      33.850 -23.525 -15.776  0.00  0.00    +0.018 C 
ATOM     12  C   UNL     1      35.727 -23.257 -13.719  0.00  0.00    +0.039 C 
ATOM     13  C   UNL     1      34.539 -23.961 -13.548  0.00  0.00    +0.146 C 
ATOM     14  C   UNL     1      33.575 -24.122 -14.542  0.00  0.00    +0.039 C 
ATOM     15  C   UNL     1      36.407 -23.340 -12.476  0.00  0.00    +0.045 C 
ATOM     16  C   UNL     1      35.602 -24.079 -11.641  0.00  0.00    +0.198 C 
BRANCH  16  19
ATOM     17  O   UNL     1      35.236 -25.496  -9.769  0.00  0.00    -0.267 OA
ATOM     18  N   UNL     1      36.566 -23.685  -9.448  0.00  0.00    -0.323 N 
ATOM     19  C   UNL     1      35.769 -24.481 -10.286  0.00  0.00    +0.277 C 
ATOM     20  H   UNL     1      36.698 -23.940  -8.507  0.00  0.00    +0.145 HD
ATOM     21  H   UNL     1      36.992 -22.871  -9.802  0.00  0.00    +0.145 HD
ENDBRANCH  16  19
ENDBRANCH   2   9
BRANCH   1  22
ATOM     22  C   UNL     1      36.004 -20.241 -20.940  0.00  0.00    -0.077 C 
BRANCH  22  23
ATOM     23  C   UNL     1      34.629 -19.758 -21.398  0.00  0.00    -0.022 C 
BRANCH  23  24
ATOM     24  C   UNL     1      34.708 -19.088 -22.771  0.00  0.00    +0.003 C 
BRANCH  24  25
ATOM     25  C   UNL     1      35.479 -17.766 -22.704  0.00  0.00    +0.028 C 
BRANCH  25  27
ATOM     26  N   UNL     1      34.372 -15.626 -25.448  0.00  0.00    -0.312 N 
ATOM     27  C   UNL     1      34.909 -16.727 -23.622  0.00  0.00    -0.006 C 
ATOM     28  C   UNL     1      34.176 -15.590 -23.226  0.00  0.00    +0.011 C 
ATOM     29  C   UNL     1      35.022 -16.737 -24.980  0.00  0.00    +0.058 C 
ATOM     30  C   UNL     1      33.845 -14.907 -24.398  0.00  0.00    +0.048 C 
ATOM     31  C   UNL     1      33.752 -15.060 -21.991  0.00  0.00    +0.011 C 
ATOM     32  C   UNL     1      33.111 -13.716 -24.397  0.00  0.00    +0.015 C 
ATOM     33  C   UNL     1      33.015 -13.870 -21.975  0.00  0.00    +0.069 C 
ATOM     34  C   UNL     1      32.701 -13.210 -23.160  0.00  0.00    +0.012 C 
ATOM     35  H   UNL     1      34.293 -15.377 -26.397  0.00  0.00    +0.152 HD
BRANCH  33  37
ATOM     36  N   UNL     1      32.231 -12.886 -19.709  0.00  0.00    -0.191 NA
ATOM     37  C   UNL     1      32.583 -13.326 -20.724  0.00  0.00    +0.100 C 
ENDBRANCH  33  37
ENDBRANCH  25  27
ENDBRANCH  24  25
ENDBRANCH  23  24
ENDBRANCH  22  23
ENDBRANCH   1  22
TORSDOF 8
ENDMDL
MODEL 7
REMARK VINA RESULT:     -11.4      4.788     11.717
REMARK  Name = 6918314
REMARK  8 active torsions:
REMARK  status: ('A' for Active; 'I' for Inactive)
REMARK    1  A    between atoms: N_1  and  C_22
REMARK    2  A    between atoms: N_2  and  C_9
REMARK    3  A    between atoms: C_16  and  C_19
REMARK    4  A    between atoms: C_22  and  C_23
REMARK    5  A    between atoms: C_23  and  C_24
REMARK    6  A    between atoms: C_24  and  C_25
REMARK    7  A    between atoms: C_25  and  C_27
REMARK    8  A    between atoms: C_33  and  C_37
REMARK                            x       y       z     vdW  Elec       q    Type
REMARK                         _______ _______ _______ _____ _____    ______ ____
ROOT
ATOM      1  N   UNL     1      35.892 -21.155 -20.145  0.00  0.00    +0.389 N 
ATOM      2  N   UNL     1      35.302 -22.132 -17.527  0.00  0.00    -0.312 N 
ATOM      3  C   UNL     1      36.775 -20.835 -19.017  0.00  0.00    -0.055 C 
ATOM      4  C   UNL     1      34.503 -21.246 -19.682  0.00  0.00    -0.055 C 
ATOM      5  C   UNL     1      36.695 -21.912 -17.934  0.00  0.00    +0.068 C 
ATOM      6  C   UNL     1      34.346 -22.336 -18.620  0.00  0.00    +0.068 C 
ATOM      7  H   UNL     1      36.168 -22.057 -20.534  0.00  0.00    -0.080 HD
ENDROOT
BRANCH   2   9
ATOM      8  O   UNL     1      34.504 -24.398 -12.550  0.00  0.00    -0.449 OA
ATOM      9  C   UNL     1      35.066 -22.720 -16.278  0.00  0.00    +0.048 C 
ATOM     10  C   UNL     1      36.012 -22.589 -15.232  0.00  0.00    +0.018 C 
ATOM     11  C   UNL     1      33.883 -23.455 -16.041  0.00  0.00    +0.018 C 
ATOM     12  C   UNL     1      35.760 -23.185 -13.984  0.00  0.00    +0.039 C 
ATOM     13  C   UNL     1      34.576 -23.895 -13.814  0.00  0.00    +0.146 C 
ATOM     14  C   UNL     1      33.611 -24.056 -14.808  0.00  0.00    +0.039 C 
ATOM     15  C   UNL     1      36.441 -23.269 -12.742  0.00  0.00    +0.045 C 
ATOM     16  C   UNL     1      35.639 -24.014 -11.908  0.00  0.00    +0.198 C 
BRANCH  16  19
ATOM     17  O   UNL     1      35.298 -25.450 -10.046  0.00  0.00    -0.267 OA
ATOM     18  N   UNL     1      36.581 -23.608  -9.708  0.00  0.00    -0.323 N 
ATOM     19  C   UNL     1      35.808 -24.419 -10.555  0.00  0.00    +0.277 C 
ATOM     20  H   UNL     1      36.713 -23.865  -8.767  0.00  0.00    +0.145 HD
ATOM     21  H   UNL     1      36.989 -22.783 -10.055  0.00  0.00    +0.145 HD
ENDBRANCH  16  19
ENDBRANCH   2   9
BRANCH   1  22
ATOM     22  C   UNL     1      36.018 -20.147 -21.197  0.00  0.00    -0.077 C 
BRANCH  22  23
ATOM     23  C   UNL     1      34.691 -19.985 -21.938  0.00  0.00    -0.022 C 
BRANCH  23  24
ATOM     24  C   UNL     1      34.841 -19.052 -23.141  0.00  0.00    +0.003 C 
BRANCH  24  25
ATOM     25  C   UNL     1      35.769 -17.876 -22.824  0.00  0.00    +0.028 C 
BRANCH  25  27
ATOM     26  N   UNL     1      34.193 -15.447 -20.598  0.00  0.00    -0.312 N 
ATOM     27  C   UNL     1      35.047 -16.745 -22.153  0.00  0.00    -0.006 C 
ATOM     28  C   UNL     1      34.406 -15.673 -22.808  0.00  0.00    +0.011 C 
ATOM     29  C   UNL     1      34.910 -16.595 -20.806  0.00  0.00    +0.058 C 
ATOM     30  C   UNL     1      33.872 -14.863 -21.803  0.00  0.00    +0.048 C 
ATOM     31  C   UNL     1      34.219 -15.297 -24.153  0.00  0.00    +0.011 C 
ATOM     32  C   UNL     1      33.156 -13.693 -22.078  0.00  0.00    +0.015 C 
ATOM     33  C   UNL     1      33.505 -14.129 -24.442  0.00  0.00    +0.069 C 
ATOM     34  C   UNL     1      32.983 -13.340 -23.420  0.00  0.00    +0.012 C 
ATOM     35  H   UNL     1      33.942 -15.090 -19.715  0.00  0.00    +0.152 HD
BRANCH  33  37
ATOM     36  N   UNL     1      33.152 -13.429 -26.912  0.00  0.00    -0.191 NA
ATOM     37  C   UNL     1      33.310 -13.742 -25.806  0.00  0.00    +0.100 C 
ENDBRANCH  33  37
ENDBRANCH  25  27
ENDBRANCH  24  25
ENDBRANCH  23  24
ENDBRANCH  22  23
ENDBRANCH   1  22
TORSDOF 8
ENDMDL
MODEL 8
REMARK VINA RESULT:     -11.3      5.999     11.071
REMARK  Name = 6918314
REMARK  8 active torsions:
REMARK  status: ('A' for Active; 'I' for Inactive)
REMARK    1  A    between atoms: N_1  and  C_22
REMARK    2  A    between atoms: N_2  and  C_9
REMARK    3  A    between atoms: C_16  and  C_19
REMARK    4  A    between atoms: C_22  and  C_23
REMARK    5  A    between atoms: C_23  and  C_24
REMARK    6  A    between atoms: C_24  and  C_25
REMARK    7  A    between atoms: C_25  and  C_27
REMARK    8  A    between atoms: C_33  and  C_37
REMARK                            x       y       z     vdW  Elec       q    Type
REMARK                         _______ _______ _______ _____ _____    ______ ____
ROOT
ATOM      1  N   UNL     1      32.268 -10.738 -20.359  0.00  0.00    +0.389 N 
ATOM      2  N   UNL     1      31.789  -8.185 -21.545  0.00  0.00    -0.312 N 
ATOM      3  C   UNL     1      31.720 -10.642 -21.717  0.00  0.00    -0.055 C 
ATOM      4  C   UNL     1      31.781  -9.620 -19.543  0.00  0.00    -0.055 C 
ATOM      5  C   UNL     1      32.141  -9.333 -22.389  0.00  0.00    +0.068 C 
ATOM      6  C   UNL     1      32.203  -8.277 -20.142  0.00  0.00    +0.068 C 
ATOM      7  H   UNL     1      33.286 -10.688 -20.410  0.00  0.00    -0.080 HD
ENDROOT
BRANCH   2   9
ATOM      8  O   UNL     1      31.451  -3.275 -24.060  0.00  0.00    -0.449 OA
ATOM      9  C   UNL     1      31.677  -6.930 -22.156  0.00  0.00    +0.048 C 
ATOM     10  C   UNL     1      32.450  -6.617 -23.301  0.00  0.00    +0.018 C 
ATOM     11  C   UNL     1      30.794  -5.955 -21.641  0.00  0.00    +0.018 C 
ATOM     12  C   UNL     1      32.326  -5.352 -23.903  0.00  0.00    +0.039 C 
ATOM     13  C   UNL     1      31.438  -4.437 -23.348  0.00  0.00    +0.146 C 
ATOM     14  C   UNL     1      30.654  -4.691 -22.224  0.00  0.00    +0.039 C 
ATOM     15  C   UNL     1      32.908  -4.696 -25.019  0.00  0.00    +0.045 C 
ATOM     16  C   UNL     1      32.345  -3.442 -25.070  0.00  0.00    +0.198 C 
BRANCH  16  19
ATOM     17  O   UNL     1      33.658  -1.821 -26.209  0.00  0.00    -0.267 OA
ATOM     18  N   UNL     1      31.426  -1.818 -26.622  0.00  0.00    -0.323 N 
ATOM     19  C   UNL     1      32.546  -2.356 -25.967  0.00  0.00    +0.277 C 
ATOM     20  H   UNL     1      31.537  -1.066 -27.249  0.00  0.00    +0.145 HD
ATOM     21  H   UNL     1      30.531  -2.192 -26.455  0.00  0.00    +0.145 HD
ENDBRANCH  16  19
ENDBRANCH   2   9
BRANCH   1  22
ATOM     22  C   UNL     1      31.904 -12.016 -19.748  0.00  0.00    -0.077 C 
BRANCH  22  23
ATOM     23  C   UNL     1      32.002 -13.143 -20.775  0.00  0.00    -0.022 C 
BRANCH  23  24
ATOM     24  C   UNL     1      32.859 -14.296 -20.250  0.00  0.00    +0.003 C 
BRANCH  24  25
ATOM     25  C   UNL     1      34.285 -14.229 -20.804  0.00  0.00    +0.028 C 
BRANCH  25  27
ATOM     26  N   UNL     1      34.534 -15.531 -24.207  0.00  0.00    -0.312 N 
ATOM     27  C   UNL     1      34.442 -15.014 -22.072  0.00  0.00    -0.006 C 
ATOM     28  C   UNL     1      34.735 -16.391 -22.158  0.00  0.00    +0.011 C 
ATOM     29  C   UNL     1      34.322 -14.502 -23.329  0.00  0.00    +0.058 C 
ATOM     30  C   UNL     1      34.789 -16.696 -23.520  0.00  0.00    +0.048 C 
ATOM     31  C   UNL     1      34.964 -17.420 -21.223  0.00  0.00    +0.011 C 
ATOM     32  C   UNL     1      35.060 -17.984 -23.994  0.00  0.00    +0.015 C 
ATOM     33  C   UNL     1      35.236 -18.713 -21.683  0.00  0.00    +0.069 C 
ATOM     34  C   UNL     1      35.283 -18.989 -23.048  0.00  0.00    +0.012 C 
ATOM     35  H   UNL     1      34.508 -15.450 -25.188  0.00  0.00    +0.152 HD
BRANCH  33  37
ATOM     36  N   UNL     1      35.657 -20.614 -19.973  0.00  0.00    -0.191 NA
ATOM     37  C   UNL     1      35.468 -19.762 -20.739  0.00  0.00    +0.100 C 
ENDBRANCH  33  37
ENDBRANCH  25  27
ENDBRANCH  24  25
ENDBRANCH  23  24
ENDBRANCH  22  23
ENDBRANCH   1  22
TORSDOF 8
ENDMDL
MODEL 9
REMARK VINA RESULT:     -11.1      3.996     11.068
REMARK  Name = 6918314
REMARK  8 active torsions:
REMARK  status: ('A' for Active; 'I' for Inactive)
REMARK    1  A    between atoms: N_1  and  C_22
REMARK    2  A    between atoms: N_2  and  C_9
REMARK    3  A    between atoms: C_16  and  C_19
REMARK    4  A    between atoms: C_22  and  C_23
REMARK    5  A    between atoms: C_23  and  C_24
REMARK    6  A    between atoms: C_24  and  C_25
REMARK    7  A    between atoms: C_25  and  C_27
REMARK    8  A    between atoms: C_33  and  C_37
REMARK                            x       y       z     vdW  Elec       q    Type
REMARK                         _______ _______ _______ _____ _____    ______ ____
ROOT
ATOM      1  N   UNL     1      34.764 -17.024 -24.072  0.00  0.00    +0.389 N 
ATOM      2  N   UNL     1      35.160 -18.886 -21.943  0.00  0.00    -0.312 N 
ATOM      3  C   UNL     1      34.984 -18.445 -24.361  0.00  0.00    -0.055 C 
ATOM      4  C   UNL     1      35.519 -16.635 -22.875  0.00  0.00    -0.055 C 
ATOM      5  C   UNL     1      34.525 -19.321 -23.193  0.00  0.00    +0.068 C 
ATOM      6  C   UNL     1      35.080 -17.450 -21.658  0.00  0.00    +0.068 C 
ATOM      7  H   UNL     1      33.770 -16.873 -23.896  0.00  0.00    -0.080 HD
ENDROOT
BRANCH   2   9
ATOM      8  O   UNL     1      35.276 -22.511 -17.773  0.00  0.00    -0.449 OA
ATOM      9  C   UNL     1      35.228 -19.802 -20.887  0.00  0.00    +0.048 C 
ATOM     10  C   UNL     1      34.044 -20.349 -20.332  0.00  0.00    +0.018 C 
ATOM     11  C   UNL     1      36.476 -20.196 -20.354  0.00  0.00    +0.018 C 
ATOM     12  C   UNL     1      34.130 -21.268 -19.271  0.00  0.00    +0.039 C 
ATOM     13  C   UNL     1      35.389 -21.615 -18.794  0.00  0.00    +0.146 C 
ATOM     14  C   UNL     1      36.585 -21.108 -19.300  0.00  0.00    +0.039 C 
ATOM     15  C   UNL     1      33.203 -22.003 -18.487  0.00  0.00    +0.045 C 
ATOM     16  C   UNL     1      33.948 -22.739 -17.595  0.00  0.00    +0.198 C 
BRANCH  16  19
ATOM     17  O   UNL     1      32.388 -23.790 -16.143  0.00  0.00    -0.267 OA
ATOM     18  N   UNL     1      34.555 -24.442 -15.975  0.00  0.00    -0.323 N 
ATOM     19  C   UNL     1      33.561 -23.650 -16.572  0.00  0.00    +0.277 C 
ATOM     20  H   UNL     1      34.315 -25.081 -15.265  0.00  0.00    +0.145 HD
ATOM     21  H   UNL     1      35.491 -24.359 -16.265  0.00  0.00    +0.145 HD
ENDBRANCH  16  19
ENDBRANCH   2   9
BRANCH   1  22
ATOM     22  C   UNL     1      35.155 -16.201 -25.216  0.00  0.00    -0.077 C 
BRANCH  22  23
ATOM     23  C   UNL     1      34.151 -15.067 -25.422  0.00  0.00    -0.022 C 
BRANCH  23  24
ATOM     24  C   UNL     1      33.300 -14.848 -24.170  0.00  0.00    +0.003 C 
BRANCH  24  25
ATOM     25  C   UNL     1      33.493 -13.439 -23.603  0.00  0.00    +0.028 C 
BRANCH  25  27
ATOM     26  N   UNL     1      32.298 -13.794 -20.171  0.00  0.00    -0.312 N 
ATOM     27  C   UNL     1      32.947 -13.303 -22.213  0.00  0.00    -0.006 C 
ATOM     28  C   UNL     1      32.465 -12.113 -21.629  0.00  0.00    +0.011 C 
ATOM     29  C   UNL     1      32.840 -14.320 -21.313  0.00  0.00    +0.058 C 
ATOM     30  C   UNL     1      32.060 -12.447 -20.335  0.00  0.00    +0.048 C 
ATOM     31  C   UNL     1      32.328 -10.779 -22.059  0.00  0.00    +0.011 C 
ATOM     32  C   UNL     1      31.521 -11.510 -19.447  0.00  0.00    +0.015 C 
ATOM     33  C   UNL     1      31.791  -9.830 -21.181  0.00  0.00    +0.069 C 
ATOM     34  C   UNL     1      31.394 -10.192 -19.896  0.00  0.00    +0.012 C 
ATOM     35  H   UNL     1      32.107 -14.304 -19.351  0.00  0.00    +0.152 HD
BRANCH  33  37
ATOM     36  N   UNL     1      31.531  -7.373 -21.962  0.00  0.00    -0.191 NA
ATOM     37  C   UNL     1      31.647  -8.474 -21.612  0.00  0.00    +0.100 C 
ENDBRANCH  33  37
ENDBRANCH  25  27
ENDBRANCH  24  25
ENDBRANCH  23  24
ENDBRANCH  22  23
ENDBRANCH   1  22
TORSDOF 8
ENDMDL
