MODEL 1
REMARK VINA RESULT:     -11.9      0.000      0.000
REMARK  Name = 448841
REMARK  3 active torsions:
REMARK  status: ('A' for Active; 'I' for Inactive)
REMARK    1  A    between atoms: C_1  and  C_17
REMARK    2  A    between atoms: C_9  and  C_13
REMARK    3  A    between atoms: C_18  and  C_20
REMARK                            x       y       z     vdW  Elec       q    Type
REMARK                         _______ _______ _______ _____ _____    ______ ____
ROOT
ATOM      1  C   UNL     1      34.881 -16.699 -21.733  0.00  0.00    -0.022 C 
ATOM      2  C   UNL     1      34.063 -16.038 -20.817  0.00  0.00    -0.004 C 
ATOM      3  C   UNL     1      35.193 -16.098 -22.949  0.00  0.00    -0.004 C 
ATOM      4  C   UNL     1      33.546 -14.764 -21.105  0.00  0.00    -0.000 C 
ATOM      5  C   UNL     1      34.688 -14.832 -23.252  0.00  0.00    -0.000 C 
ATOM      6  C   UNL     1      33.864 -14.152 -22.341  0.00  0.00    +0.000 C 
ATOM      7  C   UNL     1      32.721 -14.084 -20.194  0.00  0.00    +0.000 C 
ATOM      8  C   UNL     1      33.348 -12.879 -22.630  0.00  0.00    +0.003 C 
ATOM      9  C   UNL     1      32.530 -12.217 -21.713  0.00  0.00    +0.031 C 
ATOM     10  C   UNL     1      32.218 -12.819 -20.498  0.00  0.00    +0.003 C 
ENDROOT
BRANCH   9  13
ATOM     11  N   UNL     1      32.731  -9.992 -22.797  0.00  0.00    -0.343 N 
ATOM     12  N   UNL     1      30.814 -10.539 -21.576  0.00  0.00    -0.285 NA
ATOM     13  C   UNL     1      32.003 -10.899 -22.027  0.00  0.00    +0.117 C 
ATOM     14  H   UNL     1      32.355  -9.104 -22.997  0.00  0.00    +0.144 HD
ATOM     15  H   UNL     1      33.620 -10.239 -23.139  0.00  0.00    +0.144 HD
ATOM     16  H   UNL     1      30.457  -9.647 -21.788  0.00  0.00    +0.188 HD
ENDBRANCH   9  13
BRANCH   1  17
ATOM     17  C   UNL     1      35.419 -18.050 -21.411  0.00  0.00    +0.027 C 
ATOM     18  C   UNL     1      34.499 -19.230 -21.436  0.00  0.00    +0.027 C 
ATOM     19  C   UNL     1      35.542 -19.067 -22.503  0.00  0.00    +0.009 C 
BRANCH  18  20
ATOM     20  C   UNL     1      34.661 -20.299 -20.419  0.00  0.00    -0.022 C 
ATOM     21  C   UNL     1      33.537 -20.918 -19.865  0.00  0.00    -0.004 C 
ATOM     22  C   UNL     1      35.938 -20.692 -20.007  0.00  0.00    -0.004 C 
ATOM     23  C   UNL     1      33.688 -21.921 -18.907  0.00  0.00    -0.000 C 
ATOM     24  C   UNL     1      36.090 -21.694 -19.049  0.00  0.00    -0.000 C 
ATOM     25  C   UNL     1      34.965 -22.308 -18.499  0.00  0.00    -0.000 C 
ENDBRANCH  18  20
ENDBRANCH   1  17
TORSDOF 3
ENDMDL
MODEL 2
REMARK VINA RESULT:     -11.7      5.150      9.067
REMARK  Name = 448841
REMARK  3 active torsions:
REMARK  status: ('A' for Active; 'I' for Inactive)
REMARK    1  A    between atoms: C_1  and  C_17
REMARK    2  A    between atoms: C_9  and  C_13
REMARK    3  A    between atoms: C_18  and  C_20
REMARK                            x       y       z     vdW  Elec       q    Type
REMARK                         _______ _______ _______ _____ _____    ______ ____
ROOT
ATOM      1  C   UNL     1      34.766 -20.335 -20.545  0.00  0.00    -0.022 C 
ATOM      2  C   UNL     1      33.706 -20.919 -19.851  0.00  0.00    -0.004 C 
ATOM      3  C   UNL     1      36.076 -20.546 -20.122  0.00  0.00    -0.004 C 
ATOM      4  C   UNL     1      33.943 -21.723 -18.724  0.00  0.00    -0.000 C 
ATOM      5  C   UNL     1      36.329 -21.342 -19.004  0.00  0.00    -0.000 C 
ATOM      6  C   UNL     1      35.274 -21.938 -18.294  0.00  0.00    +0.000 C 
ATOM      7  C   UNL     1      32.888 -22.317 -18.013  0.00  0.00    +0.000 C 
ATOM      8  C   UNL     1      35.511 -22.741 -17.167  0.00  0.00    +0.003 C 
ATOM      9  C   UNL     1      34.451 -23.325 -16.473  0.00  0.00    +0.031 C 
ATOM     10  C   UNL     1      33.142 -23.114 -16.896  0.00  0.00    +0.003 C 
ENDROOT
BRANCH   9  13
ATOM     11  N   UNL     1      35.730 -25.108 -15.311  0.00  0.00    -0.343 N 
ATOM     12  N   UNL     1      33.976 -24.014 -14.221  0.00  0.00    -0.285 NA
ATOM     13  C   UNL     1      34.713 -24.155 -15.309  0.00  0.00    +0.117 C 
ATOM     14  H   UNL     1      35.889 -25.660 -14.512  0.00  0.00    +0.144 HD
ATOM     15  H   UNL     1      36.287 -25.231 -16.113  0.00  0.00    +0.144 HD
ATOM     16  H   UNL     1      34.153 -24.575 -13.431  0.00  0.00    +0.188 HD
ENDBRANCH   9  13
BRANCH   1  17
ATOM     17  C   UNL     1      34.497 -19.485 -21.738  0.00  0.00    +0.027 C 
ATOM     18  C   UNL     1      35.524 -18.486 -22.171  0.00  0.00    +0.027 C 
ATOM     19  C   UNL     1      35.282 -19.718 -22.992  0.00  0.00    +0.009 C 
BRANCH  18  20
ATOM     20  C   UNL     1      35.081 -17.167 -22.689  0.00  0.00    -0.022 C 
ATOM     21  C   UNL     1      34.945 -16.962 -24.065  0.00  0.00    -0.004 C 
ATOM     22  C   UNL     1      34.798 -16.122 -21.805  0.00  0.00    -0.004 C 
ATOM     23  C   UNL     1      34.531 -15.722 -24.553  0.00  0.00    -0.000 C 
ATOM     24  C   UNL     1      34.384 -14.882 -22.292  0.00  0.00    -0.000 C 
ATOM     25  C   UNL     1      34.251 -14.683 -23.666  0.00  0.00    -0.000 C 
ENDBRANCH  18  20
ENDBRANCH   1  17
TORSDOF 3
ENDMDL
MODEL 3
REMARK VINA RESULT:     -11.6      4.996      9.010
REMARK  Name = 448841
REMARK  3 active torsions:
REMARK  status: ('A' for Active; 'I' for Inactive)
REMARK    1  A    between atoms: C_1  and  C_17
REMARK    2  A    between atoms: C_9  and  C_13
REMARK    3  A    between atoms: C_18  and  C_20
REMARK                            x       y       z     vdW  Elec       q    Type
REMARK                         _______ _______ _______ _____ _____    ______ ____
ROOT
ATOM      1  C   UNL     1      35.000 -20.115 -20.780  0.00  0.00    -0.022 C 
ATOM      2  C   UNL     1      36.034 -20.498 -19.926  0.00  0.00    -0.004 C 
ATOM      3  C   UNL     1      33.698 -20.541 -20.533  0.00  0.00    -0.004 C 
ATOM      4  C   UNL     1      35.779 -21.314 -18.812  0.00  0.00    -0.000 C 
ATOM      5  C   UNL     1      33.427 -21.353 -19.430  0.00  0.00    -0.000 C 
ATOM      6  C   UNL     1      34.455 -21.748 -18.560  0.00  0.00    +0.000 C 
ATOM      7  C   UNL     1      36.808 -21.710 -17.942  0.00  0.00    +0.000 C 
ATOM      8  C   UNL     1      34.200 -22.563 -17.446  0.00  0.00    +0.003 C 
ATOM      9  C   UNL     1      35.234 -22.947 -16.592  0.00  0.00    +0.031 C 
ATOM     10  C   UNL     1      36.536 -22.520 -16.840  0.00  0.00    +0.003 C 
ENDROOT
BRANCH   9  13
ATOM     11  N   UNL     1      34.124 -23.358 -14.409  0.00  0.00    -0.343 N 
ATOM     12  N   UNL     1      35.493 -24.995 -15.362  0.00  0.00    -0.285 NA
ATOM     13  C   UNL     1      34.953 -23.791 -15.442  0.00  0.00    +0.117 C 
ATOM     14  H   UNL     1      33.947 -23.946 -13.640  0.00  0.00    +0.144 HD
ATOM     15  H   UNL     1      33.715 -22.463 -14.449  0.00  0.00    +0.144 HD
ATOM     16  H   UNL     1      35.303 -25.568 -14.584  0.00  0.00    +0.188 HD
ENDBRANCH   9  13
BRANCH   1  17
ATOM     17  C   UNL     1      35.288 -19.250 -21.957  0.00  0.00    +0.027 C 
ATOM     18  C   UNL     1      35.520 -17.785 -21.751  0.00  0.00    +0.027 C 
ATOM     19  C   UNL     1      36.664 -18.682 -22.128  0.00  0.00    +0.009 C 
BRANCH  18  20
ATOM     20  C   UNL     1      34.995 -16.819 -22.747  0.00  0.00    -0.022 C 
ATOM     21  C   UNL     1      34.501 -15.578 -22.332  0.00  0.00    -0.004 C 
ATOM     22  C   UNL     1      34.988 -17.143 -24.107  0.00  0.00    -0.004 C 
ATOM     23  C   UNL     1      34.005 -14.671 -23.268  0.00  0.00    -0.000 C 
ATOM     24  C   UNL     1      34.492 -16.236 -25.043  0.00  0.00    -0.000 C 
ATOM     25  C   UNL     1      34.000 -15.000 -24.623  0.00  0.00    -0.000 C 
ENDBRANCH  18  20
ENDBRANCH   1  17
TORSDOF 3
ENDMDL
MODEL 4
REMARK VINA RESULT:     -11.3      5.507      9.413
REMARK  Name = 448841
REMARK  3 active torsions:
REMARK  status: ('A' for Active; 'I' for Inactive)
REMARK    1  A    between atoms: C_1  and  C_17
REMARK    2  A    between atoms: C_9  and  C_13
REMARK    3  A    between atoms: C_18  and  C_20
REMARK                            x       y       z     vdW  Elec       q    Type
REMARK                         _______ _______ _______ _____ _____    ______ ____
ROOT
ATOM      1  C   UNL     1      35.432 -20.887 -19.860  0.00  0.00    -0.022 C 
ATOM      2  C   UNL     1      36.320 -21.246 -18.847  0.00  0.00    -0.004 C 
ATOM      3  C   UNL     1      34.102 -21.293 -19.797  0.00  0.00    -0.004 C 
ATOM      4  C   UNL     1      35.890 -22.018 -17.755  0.00  0.00    -0.000 C 
ATOM      5  C   UNL     1      33.656 -22.061 -18.719  0.00  0.00    -0.000 C 
ATOM      6  C   UNL     1      34.537 -22.431 -17.690  0.00  0.00    +0.000 C 
ATOM      7  C   UNL     1      36.770 -22.389 -16.727  0.00  0.00    +0.000 C 
ATOM      8  C   UNL     1      34.106 -23.202 -16.599  0.00  0.00    +0.003 C 
ATOM      9  C   UNL     1      34.995 -23.561 -15.585  0.00  0.00    +0.031 C 
ATOM     10  C   UNL     1      36.324 -23.155 -15.649  0.00  0.00    +0.003 C 
ENDROOT
BRANCH   9  13
ATOM     11  N   UNL     1      35.318 -25.378 -13.924  0.00  0.00    -0.343 N 
ATOM     12  N   UNL     1      33.344 -24.127 -13.933  0.00  0.00    -0.285 NA
ATOM     13  C   UNL     1      34.532 -24.359 -14.462  0.00  0.00    +0.117 C 
ATOM     14  H   UNL     1      34.985 -25.907 -13.163  0.00  0.00    +0.144 HD
ATOM     15  H   UNL     1      36.205 -25.569 -14.306  0.00  0.00    +0.144 HD
ATOM     16  H   UNL     1      33.030 -24.667 -13.172  0.00  0.00    +0.188 HD
ENDBRANCH   9  13
BRANCH   1  17
ATOM     17  C   UNL     1      35.906 -20.069 -21.011  0.00  0.00    +0.027 C 
ATOM     18  C   UNL     1      35.679 -18.590 -21.000  0.00  0.00    +0.027 C 
ATOM     19  C   UNL     1      37.064 -19.140 -20.819  0.00  0.00    +0.009 C 
BRANCH  18  20
ATOM     20  C   UNL     1      35.331 -17.899 -22.267  0.00  0.00    -0.022 C 
ATOM     21  C   UNL     1      35.293 -16.502 -22.319  0.00  0.00    -0.004 C 
ATOM     22  C   UNL     1      35.038 -18.640 -23.415  0.00  0.00    -0.004 C 
ATOM     23  C   UNL     1      34.963 -15.852 -23.509  0.00  0.00    -0.000 C 
ATOM     24  C   UNL     1      34.708 -17.991 -24.605  0.00  0.00    -0.000 C 
ATOM     25  C   UNL     1      34.670 -16.597 -24.651  0.00  0.00    -0.000 C 
ENDBRANCH  18  20
ENDBRANCH   1  17
TORSDOF 3
ENDMDL
MODEL 5
REMARK VINA RESULT:     -11.2      2.921      5.432
REMARK  Name = 448841
REMARK  3 active torsions:
REMARK  status: ('A' for Active; 'I' for Inactive)
REMARK    1  A    between atoms: C_1  and  C_17
REMARK    2  A    between atoms: C_9  and  C_13
REMARK    3  A    between atoms: C_18  and  C_20
REMARK                            x       y       z     vdW  Elec       q    Type
REMARK                         _______ _______ _______ _____ _____    ______ ____
ROOT
ATOM      1  C   UNL     1      32.228 -12.552 -20.894  0.00  0.00    -0.022 C 
ATOM      2  C   UNL     1      32.341 -11.670 -21.968  0.00  0.00    -0.004 C 
ATOM      3  C   UNL     1      31.914 -12.070 -19.626  0.00  0.00    -0.004 C 
ATOM      4  C   UNL     1      32.141 -10.291 -21.789  0.00  0.00    -0.000 C 
ATOM      5  C   UNL     1      31.711 -10.702 -19.430  0.00  0.00    -0.000 C 
ATOM      6  C   UNL     1      31.821  -9.800 -20.500  0.00  0.00    +0.000 C 
ATOM      7  C   UNL     1      32.251  -9.389 -22.859  0.00  0.00    +0.000 C 
ATOM      8  C   UNL     1      31.621  -8.423 -20.320  0.00  0.00    +0.003 C 
ATOM      9  C   UNL     1      31.734  -7.539 -21.395  0.00  0.00    +0.031 C 
ATOM     10  C   UNL     1      32.048  -8.023 -22.662  0.00  0.00    +0.003 C 
ENDROOT
BRANCH   9  13
ATOM     11  N   UNL     1      30.343  -5.492 -21.597  0.00  0.00    -0.343 N 
ATOM     12  N   UNL     1      32.463  -5.386 -20.618  0.00  0.00    -0.285 NA
ATOM     13  C   UNL     1      31.523  -6.116 -21.192  0.00  0.00    +0.117 C 
ATOM     14  H   UNL     1      30.222  -4.527 -21.450  0.00  0.00    +0.144 HD
ATOM     15  H   UNL     1      29.632  -6.018 -22.030  0.00  0.00    +0.144 HD
ATOM     16  H   UNL     1      32.321  -4.421 -20.479  0.00  0.00    +0.188 HD
ENDBRANCH   9  13
BRANCH   1  17
ATOM     17  C   UNL     1      32.445 -14.011 -21.102  0.00  0.00    +0.027 C 
ATOM     18  C   UNL     1      33.766 -14.614 -20.740  0.00  0.00    +0.027 C 
ATOM     19  C   UNL     1      32.551 -14.911 -19.910  0.00  0.00    +0.009 C 
BRANCH  18  20
ATOM     20  C   UNL     1      34.338 -15.680 -21.600  0.00  0.00    -0.022 C 
ATOM     21  C   UNL     1      34.885 -16.830 -21.024  0.00  0.00    -0.004 C 
ATOM     22  C   UNL     1      34.334 -15.540 -22.991  0.00  0.00    -0.004 C 
ATOM     23  C   UNL     1      35.425 -17.831 -21.832  0.00  0.00    -0.000 C 
ATOM     24  C   UNL     1      34.874 -16.541 -23.799  0.00  0.00    -0.000 C 
ATOM     25  C   UNL     1      35.419 -17.686 -23.219  0.00  0.00    -0.000 C 
ENDBRANCH  18  20
ENDBRANCH   1  17
TORSDOF 3
ENDMDL
MODEL 6
REMARK VINA RESULT:     -11.1      3.938      9.169
REMARK  Name = 448841
REMARK  3 active torsions:
REMARK  status: ('A' for Active; 'I' for Inactive)
REMARK    1  A    between atoms: C_1  and  C_17
REMARK    2  A    between atoms: C_9  and  C_13
REMARK    3  A    between atoms: C_18  and  C_20
REMARK                            x       y       z     vdW  Elec       q    Type
REMARK                         _______ _______ _______ _____ _____    ______ ____
ROOT
ATOM      1  C   UNL     1      33.931 -13.209 -22.843  0.00  0.00    -0.022 C 
ATOM      2  C   UNL     1      34.291 -14.320 -23.604  0.00  0.00    -0.004 C 
ATOM      3  C   UNL     1      33.883 -13.301 -21.455  0.00  0.00    -0.004 C 
ATOM      4  C   UNL     1      34.610 -15.540 -22.987  0.00  0.00    -0.000 C 
ATOM      5  C   UNL     1      34.197 -14.506 -20.824  0.00  0.00    -0.000 C 
ATOM      6  C   UNL     1      34.563 -15.635 -21.575  0.00  0.00    +0.000 C 
ATOM      7  C   UNL     1      34.975 -16.669 -23.738  0.00  0.00    +0.000 C 
ATOM      8  C   UNL     1      34.881 -16.854 -20.956  0.00  0.00    +0.003 C 
ATOM      9  C   UNL     1      35.243 -17.966 -21.718  0.00  0.00    +0.031 C 
ATOM     10  C   UNL     1      35.289 -17.873 -23.106  0.00  0.00    +0.003 C 
ENDROOT
BRANCH   9  13
ATOM     11  N   UNL     1      36.835 -19.449 -20.522  0.00  0.00    -0.343 N 
ATOM     12  N   UNL     1      34.660 -20.176 -20.975  0.00  0.00    -0.285 NA
ATOM     13  C   UNL     1      35.570 -19.221 -21.063  0.00  0.00    +0.117 C 
ATOM     14  H   UNL     1      37.035 -20.307 -20.083  0.00  0.00    +0.144 HD
ATOM     15  H   UNL     1      37.527 -18.752 -20.580  0.00  0.00    +0.144 HD
ATOM     16  H   UNL     1      34.881 -21.027 -20.531  0.00  0.00    +0.188 HD
ENDBRANCH   9  13
BRANCH   1  17
ATOM     17  C   UNL     1      33.595 -11.923 -23.515  0.00  0.00    +0.027 C 
ATOM     18  C   UNL     1      34.676 -10.913 -23.746  0.00  0.00    +0.027 C 
ATOM     19  C   UNL     1      34.095 -11.671 -24.904  0.00  0.00    +0.009 C 
BRANCH  18  20
ATOM     20  C   UNL     1      34.366  -9.470 -23.593  0.00  0.00    -0.022 C 
ATOM     21  C   UNL     1      35.307  -8.505 -23.965  0.00  0.00    -0.004 C 
ATOM     22  C   UNL     1      33.132  -9.065 -23.074  0.00  0.00    -0.004 C 
ATOM     23  C   UNL     1      35.018  -7.148 -23.819  0.00  0.00    -0.000 C 
ATOM     24  C   UNL     1      32.842  -7.709 -22.928  0.00  0.00    -0.000 C 
ATOM     25  C   UNL     1      33.785  -6.751 -23.300  0.00  0.00    -0.000 C 
ENDBRANCH  18  20
ENDBRANCH   1  17
TORSDOF 3
ENDMDL
MODEL 7
REMARK VINA RESULT:     -11.0      4.561      7.672
REMARK  Name = 448841
REMARK  3 active torsions:
REMARK  status: ('A' for Active; 'I' for Inactive)
REMARK    1  A    between atoms: C_1  and  C_17
REMARK    2  A    between atoms: C_9  and  C_13
REMARK    3  A    between atoms: C_18  and  C_20
REMARK                            x       y       z     vdW  Elec       q    Type
REMARK                         _______ _______ _______ _____ _____    ______ ____
ROOT
ATOM      1  C   UNL     1      34.538 -22.597 -17.603  0.00  0.00    -0.022 C 
ATOM      2  C   UNL     1      35.685 -22.020 -18.145  0.00  0.00    -0.004 C 
ATOM      3  C   UNL     1      33.291 -22.330 -18.164  0.00  0.00    -0.004 C 
ATOM      4  C   UNL     1      35.603 -21.166 -19.258  0.00  0.00    -0.000 C 
ATOM      5  C   UNL     1      33.191 -21.484 -19.270  0.00  0.00    -0.000 C 
ATOM      6  C   UNL     1      34.336 -20.894 -19.829  0.00  0.00    +0.000 C 
ATOM      7  C   UNL     1      36.748 -20.576 -19.816  0.00  0.00    +0.000 C 
ATOM      8  C   UNL     1      34.252 -20.041 -20.940  0.00  0.00    +0.003 C 
ATOM      9  C   UNL     1      35.401 -19.463 -21.483  0.00  0.00    +0.031 C 
ATOM     10  C   UNL     1      36.646 -19.731 -20.921  0.00  0.00    +0.003 C 
ENDROOT
BRANCH   9  13
ATOM     11  N   UNL     1      35.885 -17.318 -22.636  0.00  0.00    -0.343 N 
ATOM     12  N   UNL     1      34.633 -18.976 -23.707  0.00  0.00    -0.285 NA
ATOM     13  C   UNL     1      35.298 -18.583 -22.635  0.00  0.00    +0.117 C 
ATOM     14  H   UNL     1      35.802 -16.738 -23.427  0.00  0.00    +0.144 HD
ATOM     15  H   UNL     1      36.382 -17.006 -21.846  0.00  0.00    +0.144 HD
ATOM     16  H   UNL     1      34.562 -18.380 -24.488  0.00  0.00    +0.188 HD
ENDBRANCH   9  13
BRANCH   1  17
ATOM     17  C   UNL     1      34.644 -23.499 -16.423  0.00  0.00    +0.027 C 
ATOM     18  C   UNL     1      35.485 -23.084 -15.257  0.00  0.00    +0.027 C 
ATOM     19  C   UNL     1      33.990 -23.100 -15.137  0.00  0.00    +0.009 C 
BRANCH  18  20
ATOM     20  C   UNL     1      36.284 -24.106 -14.537  0.00  0.00    -0.022 C 
ATOM     21  C   UNL     1      37.132 -23.729 -13.491  0.00  0.00    -0.004 C 
ATOM     22  C   UNL     1      36.196 -25.453 -14.900  0.00  0.00    -0.004 C 
ATOM     23  C   UNL     1      37.884 -24.690 -12.815  0.00  0.00    -0.000 C 
ATOM     24  C   UNL     1      36.948 -26.414 -14.225  0.00  0.00    -0.000 C 
ATOM     25  C   UNL     1      37.792 -26.032 -13.183  0.00  0.00    -0.000 C 
ENDBRANCH  18  20
ENDBRANCH   1  17
TORSDOF 3
ENDMDL
MODEL 8
REMARK VINA RESULT:     -10.9      4.971      8.725
REMARK  Name = 448841
REMARK  3 active torsions:
REMARK  status: ('A' for Active; 'I' for Inactive)
REMARK    1  A    between atoms: C_1  and  C_17
REMARK    2  A    between atoms: C_9  and  C_13
REMARK    3  A    between atoms: C_18  and  C_20
REMARK                            x       y       z     vdW  Elec       q    Type
REMARK                         _______ _______ _______ _____ _____    ______ ____
ROOT
ATOM      1  C   UNL     1      34.979 -19.658 -21.547  0.00  0.00    -0.022 C 
ATOM      2  C   UNL     1      34.041 -20.346 -20.777  0.00  0.00    -0.004 C 
ATOM      3  C   UNL     1      36.325 -19.680 -21.191  0.00  0.00    -0.004 C 
ATOM      4  C   UNL     1      34.438 -21.066 -19.638  0.00  0.00    -0.000 C 
ATOM      5  C   UNL     1      36.737 -20.392 -20.063  0.00  0.00    -0.000 C 
ATOM      6  C   UNL     1      35.807 -21.090 -19.276  0.00  0.00    +0.000 C 
ATOM      7  C   UNL     1      33.508 -21.764 -18.851  0.00  0.00    +0.000 C 
ATOM      8  C   UNL     1      36.204 -21.810 -18.139  0.00  0.00    +0.003 C 
ATOM      9  C   UNL     1      35.266 -22.499 -17.368  0.00  0.00    +0.031 C 
ATOM     10  C   UNL     1      33.921 -22.475 -17.724  0.00  0.00    +0.003 C 
ENDROOT
BRANCH   9  13
ATOM     11  N   UNL     1      36.889 -22.940 -15.541  0.00  0.00    -0.343 N 
ATOM     12  N   UNL     1      34.945 -24.225 -15.727  0.00  0.00    -0.285 NA
ATOM     13  C   UNL     1      35.694 -23.240 -16.193  0.00  0.00    +0.117 C 
ATOM     14  H   UNL     1      37.159 -23.455 -14.747  0.00  0.00    +0.144 HD
ATOM     15  H   UNL     1      37.462 -22.212 -15.874  0.00  0.00    +0.144 HD
ATOM     16  H   UNL     1      35.234 -24.728 -14.931  0.00  0.00    +0.188 HD
ENDBRANCH   9  13
BRANCH   1  17
ATOM     17  C   UNL     1      34.540 -18.898 -22.750  0.00  0.00    +0.027 C 
ATOM     18  C   UNL     1      35.403 -17.790 -23.271  0.00  0.00    +0.027 C 
ATOM     19  C   UNL     1      35.285 -19.075 -24.038  0.00  0.00    +0.009 C 
BRANCH  18  20
ATOM     20  C   UNL     1      34.763 -16.563 -23.807  0.00  0.00    -0.022 C 
ATOM     21  C   UNL     1      34.526 -16.434 -25.178  0.00  0.00    -0.004 C 
ATOM     22  C   UNL     1      34.395 -15.527 -22.943  0.00  0.00    -0.004 C 
ATOM     23  C   UNL     1      33.927 -15.279 -25.683  0.00  0.00    -0.000 C 
ATOM     24  C   UNL     1      33.796 -14.372 -23.447  0.00  0.00    -0.000 C 
ATOM     25  C   UNL     1      33.563 -14.248 -24.816  0.00  0.00    -0.000 C 
ENDBRANCH  18  20
ENDBRANCH   1  17
TORSDOF 3
ENDMDL
MODEL 9
REMARK VINA RESULT:     -10.9      3.922      9.166
REMARK  Name = 448841
REMARK  3 active torsions:
REMARK  status: ('A' for Active; 'I' for Inactive)
REMARK    1  A    between atoms: C_1  and  C_17
REMARK    2  A    between atoms: C_9  and  C_13
REMARK    3  A    between atoms: C_18  and  C_20
REMARK                            x       y       z     vdW  Elec       q    Type
REMARK                         _______ _______ _______ _____ _____    ______ ____
ROOT
ATOM      1  C   UNL     1      32.484 -12.756 -20.840  0.00  0.00    -0.022 C 
ATOM      2  C   UNL     1      33.126 -13.043 -22.045  0.00  0.00    -0.004 C 
ATOM      3  C   UNL     1      32.456 -13.705 -19.822  0.00  0.00    -0.004 C 
ATOM      4  C   UNL     1      33.749 -14.285 -22.248  0.00  0.00    -0.000 C 
ATOM      5  C   UNL     1      33.071 -14.945 -20.007  0.00  0.00    -0.000 C 
ATOM      6  C   UNL     1      33.721 -15.251 -21.213  0.00  0.00    +0.000 C 
ATOM      7  C   UNL     1      34.399 -14.592 -23.454  0.00  0.00    +0.000 C 
ATOM      8  C   UNL     1      34.344 -16.492 -21.414  0.00  0.00    +0.003 C 
ATOM      9  C   UNL     1      34.986 -16.780 -22.620  0.00  0.00    +0.031 C 
ATOM     10  C   UNL     1      35.013 -15.830 -23.637  0.00  0.00    +0.003 C 
ENDROOT
BRANCH   9  13
ATOM     11  N   UNL     1      34.984 -19.105 -23.492  0.00  0.00    -0.343 N 
ATOM     12  N   UNL     1      36.841 -18.281 -22.336  0.00  0.00    -0.285 NA
ATOM     13  C   UNL     1      35.626 -18.070 -22.813  0.00  0.00    +0.117 C 
ATOM     14  H   UNL     1      35.436 -19.971 -23.611  0.00  0.00    +0.144 HD
ATOM     15  H   UNL     1      34.078 -18.968 -23.853  0.00  0.00    +0.144 HD
ATOM     16  H   UNL     1      37.276 -19.155 -22.466  0.00  0.00    +0.188 HD
ENDBRANCH   9  13
BRANCH   1  17
ATOM     17  C   UNL     1      31.828 -11.433 -20.643  0.00  0.00    +0.027 C 
ATOM     18  C   UNL     1      31.773 -10.466 -21.784  0.00  0.00    +0.027 C 
ATOM     19  C   UNL     1      30.523 -11.157 -21.323  0.00  0.00    +0.009 C 
BRANCH  18  20
ATOM     20  C   UNL     1      31.944  -9.016 -21.515  0.00  0.00    -0.022 C 
ATOM     21  C   UNL     1      31.614  -8.075 -22.496  0.00  0.00    -0.004 C 
ATOM     22  C   UNL     1      32.436  -8.582 -20.281  0.00  0.00    -0.004 C 
ATOM     23  C   UNL     1      31.777  -6.713 -22.245  0.00  0.00    -0.000 C 
ATOM     24  C   UNL     1      32.600  -7.220 -20.030  0.00  0.00    -0.000 C 
ATOM     25  C   UNL     1      32.270  -6.285 -21.012  0.00  0.00    -0.000 C 
ENDBRANCH  18  20
ENDBRANCH   1  17
TORSDOF 3
ENDMDL
