MODEL 1
REMARK VINA RESULT:     -12.1      0.000      0.000
REMARK  Name = 3488
REMARK  8 active torsions:
REMARK  status: ('A' for Active; 'I' for Inactive)
REMARK    1  A    between atoms: C_1  and  S_7
REMARK    2  A    between atoms: C_2  and  C_22
REMARK    3  A    between atoms: S_7  and  N_12
REMARK    4  A    between atoms: N_11  and  C_16
REMARK    5  A    between atoms: C_22  and  C_23
REMARK    6  A    between atoms: C_23  and  N_25
REMARK    7  A    between atoms: C_26  and  C_29
REMARK    8  A    between atoms: C_30  and  O_35
REMARK                            x       y       z     vdW  Elec       q    Type
REMARK                         _______ _______ _______ _____ _____    ______ ____
ROOT
ATOM      1  C   UNL     1      34.283 -21.997 -18.750  0.00  0.00    +0.125 C 
ATOM      2  C   UNL     1      35.494 -20.183 -20.455  0.00  0.00    -0.020 C 
ATOM      3  C   UNL     1      35.664 -21.957 -18.823  0.00  0.00    +0.020 C 
ATOM      4  C   UNL     1      33.492 -21.152 -19.508  0.00  0.00    +0.020 C 
ATOM      5  C   UNL     1      36.274 -21.043 -19.682  0.00  0.00    -0.003 C 
ATOM      6  C   UNL     1      34.102 -20.236 -20.367  0.00  0.00    -0.003 C 
ENDROOT
BRANCH   1   7
ATOM      7  S   UNL     1      33.509 -23.156 -17.661  0.00  0.00    +0.077 S 
ATOM      8  O   UNL     1      33.444 -24.437 -18.339  0.00  0.00    -0.150 OA
ATOM      9  O   UNL     1      32.303 -22.524 -17.165  0.00  0.00    -0.150 OA
BRANCH   7  12
ATOM     10  O   UNL     1      33.480 -24.592 -14.907  0.00  0.00    -0.251 OA
ATOM     11  N   UNL     1      35.594 -23.844 -14.343  0.00  0.00    -0.289 N 
ATOM     12  N   UNL     1      34.662 -23.241 -16.401  0.00  0.00    -0.169 N 
ATOM     13  C   UNL     1      34.495 -23.955 -15.173  0.00  0.00    +0.319 C 
ATOM     14  H   UNL     1      36.361 -23.308 -14.647  0.00  0.00    +0.151 HD
ATOM     15  H   UNL     1      35.510 -22.759 -16.533  0.00  0.00    +0.178 HD
BRANCH  11  16
ATOM     16  C   UNL     1      35.667 -24.482 -13.047  0.00  0.00    +0.073 C 
ATOM     17  C   UNL     1      35.992 -23.463 -11.949  0.00  0.00    +0.020 C 
ATOM     18  C   UNL     1      36.679 -25.632 -13.054  0.00  0.00    +0.020 C 
ATOM     19  C   UNL     1      37.438 -22.973 -12.017  0.00  0.00    +0.002 C 
ATOM     20  C   UNL     1      38.124 -25.139 -13.120  0.00  0.00    +0.002 C 
ATOM     21  C   UNL     1      38.428 -24.135 -12.011  0.00  0.00    +0.000 C 
ENDBRANCH  11  16
ENDBRANCH   7  12
ENDBRANCH   1   7
BRANCH   2  22
ATOM     22  C   UNL     1      36.145 -19.205 -21.374  0.00  0.00    +0.048 C 
BRANCH  22  23
ATOM     23  C   UNL     1      35.384 -18.999 -22.689  0.00  0.00    +0.094 C 
BRANCH  23  25
ATOM     24  O   UNL     1      34.940 -17.653 -25.185  0.00  0.00    -0.270 OA
ATOM     25  N   UNL     1      34.959 -17.637 -22.866  0.00  0.00    -0.300 N 
ATOM     26  C   UNL     1      34.770 -17.067 -24.119  0.00  0.00    +0.249 C 
ATOM     27  H   UNL     1      34.797 -17.084 -22.067  0.00  0.00    +0.150 HD
BRANCH  26  29
ATOM     28 CL   UNL     1      32.849 -13.101 -26.800  0.00  0.00    -0.082 Cl
ATOM     29  C   UNL     1      34.356 -15.640 -24.133  0.00  0.00    +0.088 C 
ATOM     30  C   UNL     1      34.472 -14.881 -22.986  0.00  0.00    +0.143 C 
ATOM     31  C   UNL     1      33.862 -15.119 -25.313  0.00  0.00    +0.019 C 
ATOM     32  C   UNL     1      34.079 -13.544 -23.019  0.00  0.00    +0.038 C 
ATOM     33  C   UNL     1      33.468 -13.781 -25.345  0.00  0.00    +0.058 C 
ATOM     34  C   UNL     1      33.577 -12.993 -24.199  0.00  0.00    +0.015 C 
BRANCH  30  35
ATOM     35  O   UNL     1      34.960 -15.400 -21.824  0.00  0.00    -0.471 OA
ATOM     36  C   UNL     1      34.233 -15.111 -20.632  0.00  0.00    +0.252 C 
ENDBRANCH  30  35
ENDBRANCH  26  29
ENDBRANCH  23  25
ENDBRANCH  22  23
ENDBRANCH   2  22
TORSDOF 8
ENDMDL
MODEL 2
REMARK VINA RESULT:     -11.6      1.468      2.300
REMARK  Name = 3488
REMARK  8 active torsions:
REMARK  status: ('A' for Active; 'I' for Inactive)
REMARK    1  A    between atoms: C_1  and  S_7
REMARK    2  A    between atoms: C_2  and  C_22
REMARK    3  A    between atoms: S_7  and  N_12
REMARK    4  A    between atoms: N_11  and  C_16
REMARK    5  A    between atoms: C_22  and  C_23
REMARK    6  A    between atoms: C_23  and  N_25
REMARK    7  A    between atoms: C_26  and  C_29
REMARK    8  A    between atoms: C_30  and  O_35
REMARK                            x       y       z     vdW  Elec       q    Type
REMARK                         _______ _______ _______ _____ _____    ______ ____
ROOT
ATOM      1  C   UNL     1      34.262 -22.066 -18.623  0.00  0.00    +0.125 C 
ATOM      2  C   UNL     1      35.467 -20.242 -20.322  0.00  0.00    -0.020 C 
ATOM      3  C   UNL     1      33.469 -21.266 -19.427  0.00  0.00    +0.020 C 
ATOM      4  C   UNL     1      35.642 -21.977 -18.648  0.00  0.00    +0.020 C 
ATOM      5  C   UNL     1      34.077 -20.346 -20.284  0.00  0.00    -0.003 C 
ATOM      6  C   UNL     1      36.251 -21.058 -19.504  0.00  0.00    -0.003 C 
ENDROOT
BRANCH   1   7
ATOM      7  S   UNL     1      33.492 -23.231 -17.539  0.00  0.00    +0.077 S 
ATOM      8  O   UNL     1      33.336 -24.481 -18.257  0.00  0.00    -0.150 OA
ATOM      9  O   UNL     1      32.341 -22.567 -16.959  0.00  0.00    -0.150 OA
BRANCH   7  12
ATOM     10  O   UNL     1      33.458 -24.553 -14.728  0.00  0.00    -0.251 OA
ATOM     11  N   UNL     1      35.677 -24.053 -14.317  0.00  0.00    -0.289 N 
ATOM     12  N   UNL     1      34.701 -23.413 -16.343  0.00  0.00    -0.169 N 
ATOM     13  C   UNL     1      34.524 -24.057 -15.078  0.00  0.00    +0.319 C 
ATOM     14  H   UNL     1      36.484 -23.628 -14.686  0.00  0.00    +0.151 HD
ATOM     15  H   UNL     1      35.592 -23.045 -16.543  0.00  0.00    +0.178 HD
BRANCH  11  16
ATOM     16  C   UNL     1      35.751 -24.649 -13.000  0.00  0.00    +0.073 C 
ATOM     17  C   UNL     1      35.943 -23.577 -11.921  0.00  0.00    +0.020 C 
ATOM     18  C   UNL     1      36.857 -25.706 -12.935  0.00  0.00    +0.020 C 
ATOM     19  C   UNL     1      37.344 -22.966 -11.948  0.00  0.00    +0.002 C 
ATOM     20  C   UNL     1      38.257 -25.092 -12.959  0.00  0.00    +0.002 C 
ATOM     21  C   UNL     1      38.427 -24.038 -11.870  0.00  0.00    +0.000 C 
ENDBRANCH  11  16
ENDBRANCH   7  12
ENDBRANCH   1   7
BRANCH   2  22
ATOM     22  C   UNL     1      36.117 -19.259 -21.236  0.00  0.00    +0.048 C 
BRANCH  22  23
ATOM     23  C   UNL     1      35.380 -19.082 -22.570  0.00  0.00    +0.094 C 
BRANCH  23  25
ATOM     24  O   UNL     1      35.378 -16.997 -20.598  0.00  0.00    -0.270 OA
ATOM     25  N   UNL     1      34.811 -17.770 -22.710  0.00  0.00    -0.300 N 
ATOM     26  C   UNL     1      34.858 -16.820 -21.696  0.00  0.00    +0.249 C 
ATOM     27  H   UNL     1      34.369 -17.533 -23.558  0.00  0.00    +0.150 HD
BRANCH  26  29
ATOM     28 CL   UNL     1      32.075 -12.845 -19.947  0.00  0.00    -0.082 Cl
ATOM     29  C   UNL     1      34.200 -15.520 -21.987  0.00  0.00    +0.088 C 
ATOM     30  C   UNL     1      34.266 -14.987 -23.257  0.00  0.00    +0.143 C 
ATOM     31  C   UNL     1      33.535 -14.884 -20.957  0.00  0.00    +0.019 C 
ATOM     32  C   UNL     1      33.642 -13.765 -23.511  0.00  0.00    +0.038 C 
ATOM     33  C   UNL     1      32.912 -13.662 -21.210  0.00  0.00    +0.058 C 
ATOM     34  C   UNL     1      32.964 -13.103 -22.487  0.00  0.00    +0.015 C 
BRANCH  30  35
ATOM     35  O   UNL     1      34.924 -15.618 -24.272  0.00  0.00    -0.471 OA
ATOM     36  C   UNL     1      34.236 -15.732 -25.515  0.00  0.00    +0.252 C 
ENDBRANCH  30  35
ENDBRANCH  26  29
ENDBRANCH  23  25
ENDBRANCH  22  23
ENDBRANCH   2  22
TORSDOF 8
ENDMDL
MODEL 3
REMARK VINA RESULT:     -11.4      6.541     10.261
REMARK  Name = 3488
REMARK  8 active torsions:
REMARK  status: ('A' for Active; 'I' for Inactive)
REMARK    1  A    between atoms: C_1  and  S_7
REMARK    2  A    between atoms: C_2  and  C_22
REMARK    3  A    between atoms: S_7  and  N_12
REMARK    4  A    between atoms: N_11  and  C_16
REMARK    5  A    between atoms: C_22  and  C_23
REMARK    6  A    between atoms: C_23  and  N_25
REMARK    7  A    between atoms: C_26  and  C_29
REMARK    8  A    between atoms: C_30  and  O_35
REMARK                            x       y       z     vdW  Elec       q    Type
REMARK                         _______ _______ _______ _____ _____    ______ ____
ROOT
ATOM      1  C   UNL     1      32.968 -12.895 -22.575  0.00  0.00    +0.125 C 
ATOM      2  C   UNL     1      31.769 -11.463 -20.531  0.00  0.00    -0.020 C 
ATOM      3  C   UNL     1      32.693 -13.530 -21.377  0.00  0.00    +0.020 C 
ATOM      4  C   UNL     1      32.658 -11.561 -22.777  0.00  0.00    +0.020 C 
ATOM      5  C   UNL     1      32.089 -12.808 -20.346  0.00  0.00    -0.003 C 
ATOM      6  C   UNL     1      32.053 -10.839 -21.748  0.00  0.00    -0.003 C 
ENDROOT
BRANCH   1   7
ATOM      7  S   UNL     1      33.734 -13.809 -23.880  0.00  0.00    +0.077 S 
ATOM      8  O   UNL     1      34.740 -12.964 -24.493  0.00  0.00    -0.150 OA
ATOM      9  O   UNL     1      32.665 -14.377 -24.677  0.00  0.00    -0.150 OA
BRANCH   7  12
ATOM     10  O   UNL     1      34.798 -16.603 -24.723  0.00  0.00    -0.251 OA
ATOM     11  N   UNL     1      35.529 -17.117 -22.590  0.00  0.00    -0.289 N 
ATOM     12  N   UNL     1      34.504 -15.056 -22.999  0.00  0.00    -0.169 N 
ATOM     13  C   UNL     1      34.940 -16.306 -23.540  0.00  0.00    +0.319 C 
ATOM     14  H   UNL     1      35.596 -16.788 -21.665  0.00  0.00    +0.151 HD
ATOM     15  H   UNL     1      34.660 -14.899 -22.039  0.00  0.00    +0.178 HD
BRANCH  11  16
ATOM     16  C   UNL     1      36.055 -18.430 -22.896  0.00  0.00    +0.073 C 
ATOM     17  C   UNL     1      34.969 -19.503 -22.760  0.00  0.00    +0.020 C 
ATOM     18  C   UNL     1      37.269 -18.755 -22.020  0.00  0.00    +0.020 C 
ATOM     19  C   UNL     1      34.589 -19.770 -21.304  0.00  0.00    +0.002 C 
ATOM     20  C   UNL     1      36.885 -19.023 -20.564  0.00  0.00    +0.002 C 
ATOM     21  C   UNL     1      35.812 -20.102 -20.454  0.00  0.00    +0.000 C 
ENDBRANCH  11  16
ENDBRANCH   7  12
ENDBRANCH   1   7
BRANCH   2  22
ATOM     22  C   UNL     1      31.124 -10.690 -19.430  0.00  0.00    +0.048 C 
BRANCH  22  23
ATOM     23  C   UNL     1      31.827  -9.362 -19.120  0.00  0.00    +0.094 C 
BRANCH  23  25
ATOM     24  O   UNL     1      33.175  -6.833 -19.277  0.00  0.00    -0.270 OA
ATOM     25  N   UNL     1      31.937  -8.519 -20.279  0.00  0.00    -0.300 N 
ATOM     26  C   UNL     1      32.612  -7.305 -20.262  0.00  0.00    +0.249 C 
ATOM     27  H   UNL     1      31.517  -8.813 -21.120  0.00  0.00    +0.150 HD
BRANCH  26  29
ATOM     28 CL   UNL     1      30.793  -3.294 -22.947  0.00  0.00    -0.082 Cl
ATOM     29  C   UNL     1      32.613  -6.539 -21.535  0.00  0.00    +0.088 C 
ATOM     30  C   UNL     1      33.407  -6.952 -22.584  0.00  0.00    +0.143 C 
ATOM     31  C   UNL     1      31.804  -5.423 -21.621  0.00  0.00    +0.019 C 
ATOM     32  C   UNL     1      33.394  -6.220 -23.771  0.00  0.00    +0.038 C 
ATOM     33  C   UNL     1      31.791  -4.690 -22.808  0.00  0.00    +0.058 C 
ATOM     34  C   UNL     1      32.585  -5.088 -23.883  0.00  0.00    +0.015 C 
BRANCH  30  35
ATOM     35  O   UNL     1      34.205  -8.055 -22.495  0.00  0.00    -0.471 OA
ATOM     36  C   UNL     1      34.919  -8.432 -23.669  0.00  0.00    +0.252 C 
ENDBRANCH  30  35
ENDBRANCH  26  29
ENDBRANCH  23  25
ENDBRANCH  22  23
ENDBRANCH   2  22
TORSDOF 8
ENDMDL
MODEL 4
REMARK VINA RESULT:     -11.3      3.988     11.555
REMARK  Name = 3488
REMARK  8 active torsions:
REMARK  status: ('A' for Active; 'I' for Inactive)
REMARK    1  A    between atoms: C_1  and  S_7
REMARK    2  A    between atoms: C_2  and  C_22
REMARK    3  A    between atoms: S_7  and  N_12
REMARK    4  A    between atoms: N_11  and  C_16
REMARK    5  A    between atoms: C_22  and  C_23
REMARK    6  A    between atoms: C_23  and  N_25
REMARK    7  A    between atoms: C_26  and  C_29
REMARK    8  A    between atoms: C_30  and  O_35
REMARK                            x       y       z     vdW  Elec       q    Type
REMARK                         _______ _______ _______ _____ _____    ______ ____
ROOT
ATOM      1  C   UNL     1      34.871 -20.452 -20.407  0.00  0.00    +0.125 C 
ATOM      2  C   UNL     1      34.026 -22.307 -18.533  0.00  0.00    -0.020 C 
ATOM      3  C   UNL     1      35.812 -21.229 -19.754  0.00  0.00    +0.020 C 
ATOM      4  C   UNL     1      33.518 -20.580 -20.147  0.00  0.00    +0.020 C 
ATOM      5  C   UNL     1      35.386 -22.164 -18.809  0.00  0.00    -0.003 C 
ATOM      6  C   UNL     1      33.091 -21.516 -19.203  0.00  0.00    -0.003 C 
ENDROOT
BRANCH   1   7
ATOM      7  S   UNL     1      35.410 -19.267 -21.603  0.00  0.00    +0.077 S 
ATOM      8  O   UNL     1      34.742 -19.556 -22.857  0.00  0.00    -0.150 OA
ATOM      9  O   UNL     1      36.858 -19.229 -21.532  0.00  0.00    -0.150 OA
BRANCH   7  12
ATOM     10  O   UNL     1      35.870 -16.277 -22.308  0.00  0.00    -0.251 OA
ATOM     11  N   UNL     1      34.427 -15.527 -20.665  0.00  0.00    -0.289 N 
ATOM     12  N   UNL     1      34.775 -17.823 -20.943  0.00  0.00    -0.169 N 
ATOM     13  C   UNL     1      35.092 -16.500 -21.386  0.00  0.00    +0.319 C 
ATOM     14  H   UNL     1      33.822 -15.808 -19.941  0.00  0.00    +0.151 HD
ATOM     15  H   UNL     1      34.137 -17.911 -20.197  0.00  0.00    +0.178 HD
BRANCH  11  16
ATOM     16  C   UNL     1      34.579 -14.113 -20.928  0.00  0.00    +0.073 C 
ATOM     17  C   UNL     1      33.525 -13.296 -20.171  0.00  0.00    +0.020 C 
ATOM     18  C   UNL     1      34.531 -13.824 -22.431  0.00  0.00    +0.020 C 
ATOM     19  C   UNL     1      32.124 -13.463 -20.758  0.00  0.00    +0.002 C 
ATOM     20  C   UNL     1      33.128 -13.989 -23.015  0.00  0.00    +0.002 C 
ATOM     21  C   UNL     1      32.100 -13.158 -22.253  0.00  0.00    +0.000 C 
ENDBRANCH  11  16
ENDBRANCH   7  12
ENDBRANCH   1   7
BRANCH   2  22
ATOM     22  C   UNL     1      33.570 -23.306 -17.524  0.00  0.00    +0.048 C 
BRANCH  22  23
ATOM     23  C   UNL     1      33.777 -22.850 -16.074  0.00  0.00    +0.094 C 
BRANCH  23  25
ATOM     24  O   UNL     1      36.477 -22.137 -15.412  0.00  0.00    -0.270 OA
ATOM     25  N   UNL     1      34.733 -23.666 -15.376  0.00  0.00    -0.300 N 
ATOM     26  C   UNL     1      36.025 -23.236 -15.098  0.00  0.00    +0.249 C 
ATOM     27  H   UNL     1      34.463 -24.567 -15.084  0.00  0.00    +0.150 HD
BRANCH  26  29
ATOM     28 CL   UNL     1      40.581 -25.642 -14.868  0.00  0.00    -0.082 Cl
ATOM     29  C   UNL     1      36.900 -24.207 -14.394  0.00  0.00    +0.088 C 
ATOM     30  C   UNL     1      36.439 -24.853 -13.265  0.00  0.00    +0.143 C 
ATOM     31  C   UNL     1      38.164 -24.432 -14.904  0.00  0.00    +0.019 C 
ATOM     32  C   UNL     1      37.276 -25.762 -12.618  0.00  0.00    +0.038 C 
ATOM     33  C   UNL     1      39.001 -25.340 -14.256  0.00  0.00    +0.058 C 
ATOM     34  C   UNL     1      38.557 -26.006 -13.114  0.00  0.00    +0.015 C 
BRANCH  30  35
ATOM     35  O   UNL     1      35.191 -24.629 -12.764  0.00  0.00    -0.471 OA
ATOM     36  C   UNL     1      35.110 -23.971 -11.502  0.00  0.00    +0.252 C 
ENDBRANCH  30  35
ENDBRANCH  26  29
ENDBRANCH  23  25
ENDBRANCH  22  23
ENDBRANCH   2  22
TORSDOF 8
ENDMDL
MODEL 5
REMARK VINA RESULT:     -11.0      3.302      5.360
REMARK  Name = 3488
REMARK  8 active torsions:
REMARK  status: ('A' for Active; 'I' for Inactive)
REMARK    1  A    between atoms: C_1  and  S_7
REMARK    2  A    between atoms: C_2  and  C_22
REMARK    3  A    between atoms: S_7  and  N_12
REMARK    4  A    between atoms: N_11  and  C_16
REMARK    5  A    between atoms: C_22  and  C_23
REMARK    6  A    between atoms: C_23  and  N_25
REMARK    7  A    between atoms: C_26  and  C_29
REMARK    8  A    between atoms: C_30  and  O_35
REMARK                            x       y       z     vdW  Elec       q    Type
REMARK                         _______ _______ _______ _____ _____    ______ ____
ROOT
ATOM      1  C   UNL     1      36.148 -23.591 -15.021  0.00  0.00    +0.125 C 
ATOM      2  C   UNL     1      36.797 -21.981 -17.178  0.00  0.00    -0.020 C 
ATOM      3  C   UNL     1      35.156 -23.226 -15.914  0.00  0.00    +0.020 C 
ATOM      4  C   UNL     1      37.457 -23.171 -15.180  0.00  0.00    +0.020 C 
ATOM      5  C   UNL     1      35.483 -22.414 -17.001  0.00  0.00    -0.003 C 
ATOM      6  C   UNL     1      37.785 -22.360 -16.268  0.00  0.00    -0.003 C 
ENDROOT
BRANCH   1   7
ATOM      7  S   UNL     1      35.734 -24.618 -13.643  0.00  0.00    +0.077 S 
ATOM      8  O   UNL     1      35.728 -23.793 -12.451  0.00  0.00    -0.150 OA
ATOM      9  O   UNL     1      36.583 -25.790 -13.724  0.00  0.00    -0.150 OA
BRANCH   7  12
ATOM     10  O   UNL     1      32.986 -23.568 -12.645  0.00  0.00    -0.251 OA
ATOM     11  N   UNL     1      31.790 -25.027 -13.981  0.00  0.00    -0.289 N 
ATOM     12  N   UNL     1      34.128 -25.058 -14.034  0.00  0.00    -0.169 N 
ATOM     13  C   UNL     1      32.949 -24.470 -13.477  0.00  0.00    +0.319 C 
ATOM     14  H   UNL     1      31.865 -25.749 -14.646  0.00  0.00    +0.151 HD
ATOM     15  H   UNL     1      34.006 -25.775 -14.699  0.00  0.00    +0.178 HD
BRANCH  11  16
ATOM     16  C   UNL     1      30.470 -24.597 -13.575  0.00  0.00    +0.073 C 
ATOM     17  C   UNL     1      29.386 -25.472 -14.213  0.00  0.00    +0.020 C 
ATOM     18  C   UNL     1      30.250 -23.116 -13.897  0.00  0.00    +0.020 C 
ATOM     19  C   UNL     1      29.232 -25.213 -15.712  0.00  0.00    +0.002 C 
ATOM     20  C   UNL     1      30.095 -22.860 -15.397  0.00  0.00    +0.002 C 
ATOM     21  C   UNL     1      29.002 -23.733 -16.007  0.00  0.00    +0.000 C 
ENDBRANCH  11  16
ENDBRANCH   7  12
ENDBRANCH   1   7
BRANCH   2  22
ATOM     22  C   UNL     1      37.146 -21.113 -18.339  0.00  0.00    +0.048 C 
BRANCH  22  23
ATOM     23  C   UNL     1      36.151 -21.215 -19.503  0.00  0.00    +0.094 C 
BRANCH  23  25
ATOM     24  O   UNL     1      33.760 -20.047 -20.578  0.00  0.00    -0.270 OA
ATOM     25  N   UNL     1      36.054 -19.989 -20.247  0.00  0.00    -0.300 N 
ATOM     26  C   UNL     1      34.848 -19.499 -20.731  0.00  0.00    +0.249 C 
ATOM     27  H   UNL     1      36.877 -19.476 -20.423  0.00  0.00    +0.150 HD
BRANCH  26  29
ATOM     28 CL   UNL     1      34.437 -14.357 -20.745  0.00  0.00    -0.082 Cl
ATOM     29  C   UNL     1      34.920 -18.233 -21.505  0.00  0.00    +0.088 C 
ATOM     30  C   UNL     1      35.225 -18.268 -22.850  0.00  0.00    +0.143 C 
ATOM     31  C   UNL     1      34.675 -17.049 -20.838  0.00  0.00    +0.019 C 
ATOM     32  C   UNL     1      35.288 -17.069 -23.560  0.00  0.00    +0.038 C 
ATOM     33  C   UNL     1      34.738 -15.850 -21.548  0.00  0.00    +0.058 C 
ATOM     34  C   UNL     1      35.044 -15.859 -22.909  0.00  0.00    +0.015 C 
BRANCH  30  35
ATOM     35  O   UNL     1      35.467 -19.439 -23.505  0.00  0.00    -0.471 OA
ATOM     36  C   UNL     1      34.452 -19.905 -24.392  0.00  0.00    +0.252 C 
ENDBRANCH  30  35
ENDBRANCH  26  29
ENDBRANCH  23  25
ENDBRANCH  22  23
ENDBRANCH   2  22
TORSDOF 8
ENDMDL
MODEL 6
REMARK VINA RESULT:     -10.9      6.226     10.034
REMARK  Name = 3488
REMARK  8 active torsions:
REMARK  status: ('A' for Active; 'I' for Inactive)
REMARK    1  A    between atoms: C_1  and  S_7
REMARK    2  A    between atoms: C_2  and  C_22
REMARK    3  A    between atoms: S_7  and  N_12
REMARK    4  A    between atoms: N_11  and  C_16
REMARK    5  A    between atoms: C_22  and  C_23
REMARK    6  A    between atoms: C_23  and  N_25
REMARK    7  A    between atoms: C_26  and  C_29
REMARK    8  A    between atoms: C_30  and  O_35
REMARK                            x       y       z     vdW  Elec       q    Type
REMARK                         _______ _______ _______ _____ _____    ______ ____
ROOT
ATOM      1  C   UNL     1      32.933 -13.116 -22.308  0.00  0.00    +0.125 C 
ATOM      2  C   UNL     1      31.684 -11.653 -20.317  0.00  0.00    -0.020 C 
ATOM      3  C   UNL     1      32.866 -13.638 -21.028  0.00  0.00    +0.020 C 
ATOM      4  C   UNL     1      32.391 -11.880 -22.617  0.00  0.00    +0.020 C 
ATOM      5  C   UNL     1      32.236 -12.900 -20.024  0.00  0.00    -0.003 C 
ATOM      6  C   UNL     1      31.761 -11.143 -21.614  0.00  0.00    -0.003 C 
ENDROOT
BRANCH   1   7
ATOM      7  S   UNL     1      33.732 -14.049 -23.579  0.00  0.00    +0.077 S 
ATOM      8  O   UNL     1      34.966 -13.372 -23.928  0.00  0.00    -0.150 OA
ATOM      9  O   UNL     1      32.730 -14.322 -24.591  0.00  0.00    -0.150 OA
BRANCH   7  12
ATOM     10  O   UNL     1      35.221 -16.635 -24.444  0.00  0.00    -0.251 OA
ATOM     11  N   UNL     1      34.950 -17.643 -22.381  0.00  0.00    -0.289 N 
ATOM     12  N   UNL     1      34.097 -15.495 -22.743  0.00  0.00    -0.169 N 
ATOM     13  C   UNL     1      34.801 -16.614 -23.291  0.00  0.00    +0.319 C 
ATOM     14  H   UNL     1      34.576 -17.530 -21.478  0.00  0.00    +0.151 HD
ATOM     15  H   UNL     1      33.799 -15.562 -21.807  0.00  0.00    +0.178 HD
BRANCH  11  16
ATOM     16  C   UNL     1      35.632 -18.879 -22.698  0.00  0.00    +0.073 C 
ATOM     17  C   UNL     1      34.914 -20.079 -22.070  0.00  0.00    +0.020 C 
ATOM     18  C   UNL     1      37.101 -18.823 -22.269  0.00  0.00    +0.020 C 
ATOM     19  C   UNL     1      35.087 -20.134 -20.552  0.00  0.00    +0.002 C 
ATOM     20  C   UNL     1      37.270 -18.881 -20.751  0.00  0.00    +0.002 C 
ATOM     21  C   UNL     1      36.559 -20.089 -20.150  0.00  0.00    +0.000 C 
ENDBRANCH  11  16
ENDBRANCH   7  12
ENDBRANCH   1   7
BRANCH   2  22
ATOM     22  C   UNL     1      31.011 -10.865 -19.244  0.00  0.00    +0.048 C 
BRANCH  22  23
ATOM     23  C   UNL     1      31.664  -9.501 -18.984  0.00  0.00    +0.094 C 
BRANCH  23  25
ATOM     24  O   UNL     1      33.133  -7.048 -19.234  0.00  0.00    -0.270 OA
ATOM     25  N   UNL     1      31.946  -8.790 -20.201  0.00  0.00    -0.300 N 
ATOM     26  C   UNL     1      32.669  -7.603 -20.226  0.00  0.00    +0.249 C 
ATOM     27  H   UNL     1      31.613  -9.158 -21.052  0.00  0.00    +0.150 HD
BRANCH  26  29
ATOM     28 CL   UNL     1      35.788  -6.679 -24.229  0.00  0.00    -0.082 Cl
ATOM     29  C   UNL     1      32.851  -6.977 -21.561  0.00  0.00    +0.088 C 
ATOM     30  C   UNL     1      31.807  -6.286 -22.143  0.00  0.00    +0.143 C 
ATOM     31  C   UNL     1      34.078  -7.111 -22.179  0.00  0.00    +0.019 C 
ATOM     32  C   UNL     1      31.998  -5.705 -23.396  0.00  0.00    +0.038 C 
ATOM     33  C   UNL     1      34.268  -6.530 -23.433  0.00  0.00    +0.058 C 
ATOM     34  C   UNL     1      33.229  -5.826 -24.041  0.00  0.00    +0.015 C 
BRANCH  30  35
ATOM     35  O   UNL     1      30.597  -6.156 -21.529  0.00  0.00    -0.471 OA
ATOM     36  C   UNL     1      30.085  -4.834 -21.383  0.00  0.00    +0.252 C 
ENDBRANCH  30  35
ENDBRANCH  26  29
ENDBRANCH  23  25
ENDBRANCH  22  23
ENDBRANCH   2  22
TORSDOF 8
ENDMDL
MODEL 7
REMARK VINA RESULT:     -10.4      4.223     11.591
REMARK  Name = 3488
REMARK  8 active torsions:
REMARK  status: ('A' for Active; 'I' for Inactive)
REMARK    1  A    between atoms: C_1  and  S_7
REMARK    2  A    between atoms: C_2  and  C_22
REMARK    3  A    between atoms: S_7  and  N_12
REMARK    4  A    between atoms: N_11  and  C_16
REMARK    5  A    between atoms: C_22  and  C_23
REMARK    6  A    between atoms: C_23  and  N_25
REMARK    7  A    between atoms: C_26  and  C_29
REMARK    8  A    between atoms: C_30  and  O_35
REMARK                            x       y       z     vdW  Elec       q    Type
REMARK                         _______ _______ _______ _____ _____    ______ ____
ROOT
ATOM      1  C   UNL     1      34.686 -20.503 -20.248  0.00  0.00    +0.125 C 
ATOM      2  C   UNL     1      33.643 -22.189 -18.315  0.00  0.00    -0.020 C 
ATOM      3  C   UNL     1      33.318 -20.527 -20.039  0.00  0.00    +0.020 C 
ATOM      4  C   UNL     1      35.545 -21.302 -19.513  0.00  0.00    +0.020 C 
ATOM      5  C   UNL     1      32.792 -21.377 -19.065  0.00  0.00    -0.003 C 
ATOM      6  C   UNL     1      35.020 -22.151 -18.538  0.00  0.00    -0.003 C 
ENDROOT
BRANCH   1   7
ATOM      7  S   UNL     1      35.352 -19.427 -21.482  0.00  0.00    +0.077 S 
ATOM      8  O   UNL     1      34.784 -19.804 -22.762  0.00  0.00    -0.150 OA
ATOM      9  O   UNL     1      36.788 -19.408 -21.291  0.00  0.00    -0.150 OA
BRANCH   7  12
ATOM     10  O   UNL     1      36.035 -16.502 -22.275  0.00  0.00    -0.251 OA
ATOM     11  N   UNL     1      34.417 -15.605 -20.889  0.00  0.00    -0.289 N 
ATOM     12  N   UNL     1      34.697 -17.925 -20.994  0.00  0.00    -0.169 N 
ATOM     13  C   UNL     1      35.130 -16.643 -21.458  0.00  0.00    +0.319 C 
ATOM     14  H   UNL     1      33.708 -15.820 -20.241  0.00  0.00    +0.151 HD
ATOM     15  H   UNL     1      33.961 -17.945 -20.340  0.00  0.00    +0.178 HD
BRANCH  11  16
ATOM     16  C   UNL     1      34.666 -14.215 -21.203  0.00  0.00    +0.073 C 
ATOM     17  C   UNL     1      33.755 -13.294 -20.383  0.00  0.00    +0.020 C 
ATOM     18  C   UNL     1      34.515 -13.954 -22.704  0.00  0.00    +0.020 C 
ATOM     19  C   UNL     1      32.300 -13.350 -20.846  0.00  0.00    +0.002 C 
ATOM     20  C   UNL     1      33.058 -14.008 -23.164  0.00  0.00    +0.002 C 
ATOM     21  C   UNL     1      32.173 -13.075 -22.342  0.00  0.00    +0.000 C 
ENDBRANCH  11  16
ENDBRANCH   7  12
ENDBRANCH   1   7
BRANCH   2  22
ATOM     22  C   UNL     1      33.081 -23.098 -17.274  0.00  0.00    +0.048 C 
BRANCH  22  23
ATOM     23  C   UNL     1      34.048 -24.209 -16.845  0.00  0.00    +0.094 C 
BRANCH  23  25
ATOM     24  O   UNL     1      35.530 -26.020 -15.183  0.00  0.00    -0.270 OA
ATOM     25  N   UNL     1      34.754 -23.882 -15.636  0.00  0.00    -0.300 N 
ATOM     26  C   UNL     1      35.447 -24.829 -14.893  0.00  0.00    +0.249 C 
ATOM     27  H   UNL     1      34.745 -22.949 -15.321  0.00  0.00    +0.150 HD
BRANCH  26  29
ATOM     28 CL   UNL     1      35.419 -24.582  -9.741  0.00  0.00    -0.082 Cl
ATOM     29  C   UNL     1      36.102 -24.337 -13.653  0.00  0.00    +0.088 C 
ATOM     30  C   UNL     1      37.256 -23.586 -13.739  0.00  0.00    +0.143 C 
ATOM     31  C   UNL     1      35.520 -24.655 -12.442  0.00  0.00    +0.019 C 
ATOM     32  C   UNL     1      37.855 -23.133 -12.564  0.00  0.00    +0.038 C 
ATOM     33  C   UNL     1      36.120 -24.202 -11.267  0.00  0.00    +0.058 C 
ATOM     34  C   UNL     1      37.287 -23.441 -11.327  0.00  0.00    +0.015 C 
BRANCH  30  35
ATOM     35  O   UNL     1      37.827 -23.274 -14.937  0.00  0.00    -0.471 OA
ATOM     36  C   UNL     1      37.480 -22.016 -15.511  0.00  0.00    +0.252 C 
ENDBRANCH  30  35
ENDBRANCH  26  29
ENDBRANCH  23  25
ENDBRANCH  22  23
ENDBRANCH   2  22
TORSDOF 8
ENDMDL
MODEL 8
REMARK VINA RESULT:     -10.2      1.547      2.061
REMARK  Name = 3488
REMARK  8 active torsions:
REMARK  status: ('A' for Active; 'I' for Inactive)
REMARK    1  A    between atoms: C_1  and  S_7
REMARK    2  A    between atoms: C_2  and  C_22
REMARK    3  A    between atoms: S_7  and  N_12
REMARK    4  A    between atoms: N_11  and  C_16
REMARK    5  A    between atoms: C_22  and  C_23
REMARK    6  A    between atoms: C_23  and  N_25
REMARK    7  A    between atoms: C_26  and  C_29
REMARK    8  A    between atoms: C_30  and  O_35
REMARK                            x       y       z     vdW  Elec       q    Type
REMARK                         _______ _______ _______ _____ _____    ______ ____
ROOT
ATOM      1  C   UNL     1      33.232 -22.624 -17.129  0.00  0.00    +0.125 C 
ATOM      2  C   UNL     1      34.196 -21.461 -19.450  0.00  0.00    -0.020 C 
ATOM      3  C   UNL     1      32.353 -21.964 -17.969  0.00  0.00    +0.020 C 
ATOM      4  C   UNL     1      34.582 -22.717 -17.421  0.00  0.00    +0.020 C 
ATOM      5  C   UNL     1      32.839 -21.377 -19.139  0.00  0.00    -0.003 C 
ATOM      6  C   UNL     1      35.068 -22.132 -18.591  0.00  0.00    -0.003 C 
ENDROOT
BRANCH   1   7
ATOM      7  S   UNL     1      32.617 -23.366 -15.647  0.00  0.00    +0.077 S 
ATOM      8  O   UNL     1      31.752 -24.469 -16.021  0.00  0.00    -0.150 OA
ATOM      9  O   UNL     1      32.119 -22.290 -14.814  0.00  0.00    -0.150 OA
BRANCH   7  12
ATOM     10  O   UNL     1      33.363 -24.198 -12.749  0.00  0.00    -0.251 OA
ATOM     11  N   UNL     1      35.518 -24.799 -13.331  0.00  0.00    -0.289 N 
ATOM     12  N   UNL     1      34.059 -23.984 -14.968  0.00  0.00    -0.169 N 
ATOM     13  C   UNL     1      34.247 -24.322 -13.590  0.00  0.00    +0.319 C 
ATOM     14  H   UNL     1      36.159 -24.861 -14.076  0.00  0.00    +0.151 HD
ATOM     15  H   UNL     1      34.823 -24.119 -15.576  0.00  0.00    +0.178 HD
BRANCH  11  16
ATOM     16  C   UNL     1      35.949 -25.212 -12.013  0.00  0.00    +0.073 C 
ATOM     17  C   UNL     1      36.122 -24.003 -11.087  0.00  0.00    +0.020 C 
ATOM     18  C   UNL     1      37.233 -26.042 -12.089  0.00  0.00    +0.020 C 
ATOM     19  C   UNL     1      37.346 -23.162 -11.447  0.00  0.00    +0.002 C 
ATOM     20  C   UNL     1      38.456 -25.198 -12.447  0.00  0.00    +0.002 C 
ATOM     21  C   UNL     1      38.615 -24.008 -11.504  0.00  0.00    +0.000 C 
ENDBRANCH  11  16
ENDBRANCH   7  12
ENDBRANCH   1   7
BRANCH   2  22
ATOM     22  C   UNL     1      34.716 -20.834 -20.699  0.00  0.00    +0.048 C 
BRANCH  22  23
ATOM     23  C   UNL     1      35.512 -19.546 -20.453  0.00  0.00    +0.094 C 
BRANCH  23  25
ATOM     24  O   UNL     1      36.728 -17.980 -22.529  0.00  0.00    -0.270 OA
ATOM     25  N   UNL     1      34.935 -18.412 -21.122  0.00  0.00    -0.300 N 
ATOM     26  C   UNL     1      35.601 -17.711 -22.121  0.00  0.00    +0.249 C 
ATOM     27  H   UNL     1      34.031 -18.118 -20.863  0.00  0.00    +0.150 HD
BRANCH  26  29
ATOM     28 CL   UNL     1      33.950 -15.238 -26.335  0.00  0.00    -0.082 Cl
ATOM     29  C   UNL     1      34.880 -16.545 -22.694  0.00  0.00    +0.088 C 
ATOM     30  C   UNL     1      34.342 -15.591 -21.855  0.00  0.00    +0.143 C 
ATOM     31  C   UNL     1      34.773 -16.460 -24.068  0.00  0.00    +0.019 C 
ATOM     32  C   UNL     1      33.669 -14.504 -22.413  0.00  0.00    +0.038 C 
ATOM     33  C   UNL     1      34.099 -15.373 -24.626  0.00  0.00    +0.058 C 
ATOM     34  C   UNL     1      33.548 -14.395 -23.798  0.00  0.00    +0.015 C 
BRANCH  30  35
ATOM     35  O   UNL     1      34.449 -15.679 -20.499  0.00  0.00    -0.471 OA
ATOM     36  C   UNL     1      33.302 -15.315 -19.735  0.00  0.00    +0.252 C 
ENDBRANCH  30  35
ENDBRANCH  26  29
ENDBRANCH  23  25
ENDBRANCH  22  23
ENDBRANCH   2  22
TORSDOF 8
ENDMDL
MODEL 9
REMARK VINA RESULT:     -10.0      4.619     11.520
REMARK  Name = 3488
REMARK  8 active torsions:
REMARK  status: ('A' for Active; 'I' for Inactive)
REMARK    1  A    between atoms: C_1  and  S_7
REMARK    2  A    between atoms: C_2  and  C_22
REMARK    3  A    between atoms: S_7  and  N_12
REMARK    4  A    between atoms: N_11  and  C_16
REMARK    5  A    between atoms: C_22  and  C_23
REMARK    6  A    between atoms: C_23  and  N_25
REMARK    7  A    between atoms: C_26  and  C_29
REMARK    8  A    between atoms: C_30  and  O_35
REMARK                            x       y       z     vdW  Elec       q    Type
REMARK                         _______ _______ _______ _____ _____    ______ ____
ROOT
ATOM      1  C   UNL     1      34.641 -16.190 -22.616  0.00  0.00    +0.125 C 
ATOM      2  C   UNL     1      35.371 -18.627 -21.523  0.00  0.00    -0.020 C 
ATOM      3  C   UNL     1      34.938 -17.247 -23.459  0.00  0.00    +0.020 C 
ATOM      4  C   UNL     1      34.701 -16.322 -21.240  0.00  0.00    +0.020 C 
ATOM      5  C   UNL     1      35.305 -18.475 -22.908  0.00  0.00    -0.003 C 
ATOM      6  C   UNL     1      35.067 -17.550 -20.688  0.00  0.00    -0.003 C 
ENDROOT
BRANCH   1   7
ATOM      7  S   UNL     1      34.176 -14.634 -23.314  0.00  0.00    +0.077 S 
ATOM      8  O   UNL     1      33.129 -14.873 -24.289  0.00  0.00    -0.150 OA
ATOM      9  O   UNL     1      35.402 -13.964 -23.700  0.00  0.00    -0.150 OA
BRANCH   7  12
ATOM     10  O   UNL     1      31.796 -12.662 -23.003  0.00  0.00    -0.251 OA
ATOM     11  N   UNL     1      32.077 -12.471 -20.716  0.00  0.00    -0.289 N 
ATOM     12  N   UNL     1      33.509 -13.850 -21.949  0.00  0.00    -0.169 N 
ATOM     13  C   UNL     1      32.394 -12.954 -21.972  0.00  0.00    +0.319 C 
ATOM     14  H   UNL     1      32.618 -12.765 -19.949  0.00  0.00    +0.151 HD
ATOM     15  H   UNL     1      33.927 -14.031 -21.076  0.00  0.00    +0.178 HD
BRANCH  11  16
ATOM     16  C   UNL     1      30.985 -11.553 -20.480  0.00  0.00    +0.073 C 
ATOM     17  C   UNL     1      31.002 -10.404 -21.494  0.00  0.00    +0.020 C 
ATOM     18  C   UNL     1      31.010 -11.025 -19.042  0.00  0.00    +0.020 C 
ATOM     19  C   UNL     1      32.148  -9.424 -21.248  0.00  0.00    +0.002 C 
ATOM     20  C   UNL     1      32.156 -10.043 -18.799  0.00  0.00    +0.002 C 
ATOM     21  C   UNL     1      32.145  -8.903 -19.813  0.00  0.00    +0.000 C 
ENDBRANCH  11  16
ENDBRANCH   7  12
ENDBRANCH   1   7
BRANCH   2  22
ATOM     22  C   UNL     1      35.764 -19.939 -20.933  0.00  0.00    +0.048 C 
BRANCH  22  23
ATOM     23  C   UNL     1      34.570 -20.830 -20.569  0.00  0.00    +0.094 C 
BRANCH  23  25
ATOM     24  O   UNL     1      33.646 -23.342 -19.532  0.00  0.00    -0.270 OA
ATOM     25  N   UNL     1      34.606 -21.258 -19.197  0.00  0.00    -0.300 N 
ATOM     26  C   UNL     1      34.133 -22.498 -18.785  0.00  0.00    +0.249 C 
ATOM     27  H   UNL     1      34.980 -20.647 -18.520  0.00  0.00    +0.150 HD
BRANCH  26  29
ATOM     28 CL   UNL     1      31.737 -24.067 -14.495  0.00  0.00    -0.082 Cl
ATOM     29  C   UNL     1      34.216 -22.778 -17.328  0.00  0.00    +0.088 C 
ATOM     30  C   UNL     1      35.406 -22.582 -16.658  0.00  0.00    +0.143 C 
ATOM     31  C   UNL     1      33.079 -23.232 -16.688  0.00  0.00    +0.019 C 
ATOM     32  C   UNL     1      35.464 -22.850 -15.291  0.00  0.00    +0.038 C 
ATOM     33  C   UNL     1      33.138 -23.501 -15.321  0.00  0.00    +0.058 C 
ATOM     34  C   UNL     1      34.329 -23.309 -14.622  0.00  0.00    +0.015 C 
BRANCH  30  35
ATOM     35  O   UNL     1      36.526 -22.133 -17.293  0.00  0.00    -0.471 OA
ATOM     36  C   UNL     1      37.480 -21.429 -16.502  0.00  0.00    +0.252 C 
ENDBRANCH  30  35
ENDBRANCH  26  29
ENDBRANCH  23  25
ENDBRANCH  22  23
ENDBRANCH   2  22
TORSDOF 8
ENDMDL
