MODEL 1
REMARK VINA RESULT:     -11.8      0.000      0.000
REMARK  Name = 54576693
REMARK  3 active torsions:
REMARK  status: ('A' for Active; 'I' for Inactive)
REMARK    1  A    between atoms: N_2  and  C_19
REMARK    2  A    between atoms: N_4  and  C_14
REMARK    3  A    between atoms: C_19  and  C_24
REMARK                            x       y       z     vdW  Elec       q    Type
REMARK                         _______ _______ _______ _____ _____    ______ ____
ROOT
ATOM      1  O   UNL     1      32.319 -21.920 -18.376  0.00  0.00    -0.252 OA
ATOM      2  N   UNL     1      35.751 -19.517 -21.079  0.00  0.00    +0.392 N 
ATOM      3  N   UNL     1      34.289 -21.398 -19.471  0.00  0.00    -0.268 N 
ATOM      4  N   UNL     1      34.286 -22.937 -17.681  0.00  0.00    -0.266 N 
ATOM      5  C   UNL     1      34.389 -19.205 -20.626  0.00  0.00    -0.055 C 
ATOM      6  C   UNL     1      36.448 -20.319 -20.065  0.00  0.00    -0.055 C 
ATOM      7  C   UNL     1      35.706 -21.628 -19.780  0.00  0.00    +0.072 C 
ATOM      8  C   UNL     1      33.600 -20.491 -20.390  0.00  0.00    +0.072 C 
ATOM      9  C   UNL     1      33.537 -22.075 -18.484  0.00  0.00    +0.308 C 
ATOM     10  H   UNL     1      35.693 -20.059 -21.941  0.00  0.00    -0.079 HD
ATOM     11  H   UNL     1      35.076 -23.349 -18.101  0.00  0.00    +0.156 HD
ENDROOT
BRANCH   4  14
ATOM     12 CL   UNL     1      36.701 -23.073 -15.795  0.00  0.00    -0.081 Cl
ATOM     13  N   UNL     1      32.404 -23.889 -14.653  0.00  0.00    -0.241 NA
ATOM     14  C   UNL     1      34.037 -23.286 -16.330  0.00  0.00    +0.082 C 
ATOM     15  C   UNL     1      35.053 -23.379 -15.385  0.00  0.00    +0.074 C 
ATOM     16  C   UNL     1      32.741 -23.548 -15.916  0.00  0.00    +0.114 C 
ATOM     17  C   UNL     1      34.745 -23.728 -14.074  0.00  0.00    +0.033 C 
ATOM     18  C   UNL     1      33.417 -23.970 -13.762  0.00  0.00    +0.100 C 
ENDBRANCH   4  14
BRANCH   2  19
ATOM     19  C   UNL     1      36.492 -18.288 -21.360  0.00  0.00    -0.050 C 
BRANCH  19  24
ATOM     20  F   UNL     1      34.359 -14.346 -26.430  0.00  0.00    -0.125 F 
ATOM     21  F   UNL     1      32.619 -15.661 -26.251  0.00  0.00    -0.125 F 
ATOM     22  O   UNL     1      34.639 -16.418 -25.551  0.00  0.00    -0.395 OA
ATOM     23  O   UNL     1      33.443 -14.675 -24.382  0.00  0.00    -0.395 OA
ATOM     24  C   UNL     1      35.665 -17.301 -22.140  0.00  0.00    -0.040 C 
ATOM     25  C   UNL     1      35.595 -17.402 -23.531  0.00  0.00    +0.034 C 
ATOM     26  C   UNL     1      34.969 -16.287 -21.459  0.00  0.00    -0.003 C 
ATOM     27  C   UNL     1      34.824 -16.476 -24.203  0.00  0.00    +0.181 C 
ATOM     28  C   UNL     1      34.141 -15.481 -23.536  0.00  0.00    +0.182 C 
ATOM     29  C   UNL     1      34.194 -15.361 -22.163  0.00  0.00    +0.040 C 
ATOM     30  C   UNL     1      33.769 -15.279 -25.642  0.00  0.00    +0.589 C 
ENDBRANCH  19  24
ENDBRANCH   2  19
TORSDOF 3
ENDMDL
MODEL 2
REMARK VINA RESULT:     -11.7      1.207      1.785
REMARK  Name = 54576693
REMARK  3 active torsions:
REMARK  status: ('A' for Active; 'I' for Inactive)
REMARK    1  A    between atoms: N_2  and  C_19
REMARK    2  A    between atoms: N_4  and  C_14
REMARK    3  A    between atoms: C_19  and  C_24
REMARK                            x       y       z     vdW  Elec       q    Type
REMARK                         _______ _______ _______ _____ _____    ______ ____
ROOT
ATOM      1  O   UNL     1      32.272 -21.946 -18.220  0.00  0.00    -0.252 OA
ATOM      2  N   UNL     1      35.711 -19.748 -21.085  0.00  0.00    +0.392 N 
ATOM      3  N   UNL     1      34.219 -21.538 -19.402  0.00  0.00    -0.268 N 
ATOM      4  N   UNL     1      34.209 -23.064 -17.600  0.00  0.00    -0.266 N 
ATOM      5  C   UNL     1      34.388 -19.361 -20.577  0.00  0.00    -0.055 C 
ATOM      6  C   UNL     1      36.406 -20.581 -20.095  0.00  0.00    -0.055 C 
ATOM      7  C   UNL     1      35.608 -21.846 -19.768  0.00  0.00    +0.072 C 
ATOM      8  C   UNL     1      33.541 -20.600 -20.299  0.00  0.00    +0.072 C 
ATOM      9  C   UNL     1      33.475 -22.167 -18.378  0.00  0.00    +0.308 C 
ATOM     10  H   UNL     1      35.588 -20.292 -21.940  0.00  0.00    -0.079 HD
ATOM     11  H   UNL     1      34.957 -23.520 -18.049  0.00  0.00    +0.156 HD
ENDROOT
BRANCH   4  14
ATOM     12 CL   UNL     1      36.662 -23.062 -15.759  0.00  0.00    -0.081 Cl
ATOM     13  N   UNL     1      32.422 -24.017 -14.516  0.00  0.00    -0.241 NA
ATOM     14  C   UNL     1      33.999 -23.390 -16.238  0.00  0.00    +0.082 C 
ATOM     15  C   UNL     1      35.035 -23.422 -15.310  0.00  0.00    +0.074 C 
ATOM     16  C   UNL     1      32.722 -23.693 -15.793  0.00  0.00    +0.114 C 
ATOM     17  C   UNL     1      34.766 -23.752 -13.986  0.00  0.00    +0.033 C 
ATOM     18  C   UNL     1      33.454 -24.038 -13.643  0.00  0.00    +0.100 C 
ENDBRANCH   4  14
BRANCH   2  19
ATOM     19  C   UNL     1      36.505 -18.563 -21.407  0.00  0.00    -0.050 C 
BRANCH  19  24
ATOM     20  F   UNL     1      32.167 -13.554 -22.778  0.00  0.00    -0.125 F 
ATOM     21  F   UNL     1      34.021 -12.607 -23.452  0.00  0.00    -0.125 F 
ATOM     22  O   UNL     1      34.134 -14.245 -21.887  0.00  0.00    -0.395 OA
ATOM     23  O   UNL     1      33.531 -14.697 -24.181  0.00  0.00    -0.395 OA
ATOM     24  C   UNL     1      35.706 -17.548 -22.181  0.00  0.00    -0.040 C 
ATOM     25  C   UNL     1      35.323 -16.353 -21.566  0.00  0.00    +0.034 C 
ATOM     26  C   UNL     1      35.355 -17.811 -23.517  0.00  0.00    -0.003 C 
ATOM     27  C   UNL     1      34.593 -15.453 -22.316  0.00  0.00    +0.181 C 
ATOM     28  C   UNL     1      34.249 -15.711 -23.625  0.00  0.00    +0.182 C 
ATOM     29  C   UNL     1      34.616 -16.883 -24.254  0.00  0.00    +0.040 C 
ATOM     30  C   UNL     1      33.469 -13.787 -23.075  0.00  0.00    +0.589 C 
ENDBRANCH  19  24
ENDBRANCH   2  19
TORSDOF 3
ENDMDL
MODEL 3
REMARK VINA RESULT:     -11.6      5.046      9.543
REMARK  Name = 54576693
REMARK  3 active torsions:
REMARK  status: ('A' for Active; 'I' for Inactive)
REMARK    1  A    between atoms: N_2  and  C_19
REMARK    2  A    between atoms: N_4  and  C_14
REMARK    3  A    between atoms: C_19  and  C_24
REMARK                            x       y       z     vdW  Elec       q    Type
REMARK                         _______ _______ _______ _____ _____    ______ ____
ROOT
ATOM      1  O   UNL     1      37.199 -21.538 -17.626  0.00  0.00    -0.252 OA
ATOM      2  N   UNL     1      33.638 -23.782 -14.953  0.00  0.00    +0.392 N 
ATOM      3  N   UNL     1      35.317 -22.752 -17.047  0.00  0.00    -0.268 N 
ATOM      4  N   UNL     1      35.486 -21.749 -19.177  0.00  0.00    -0.266 N 
ATOM      5  C   UNL     1      34.806 -22.954 -14.628  0.00  0.00    -0.055 C 
ATOM      6  C   UNL     1      33.046 -23.343 -16.223  0.00  0.00    -0.055 C 
ATOM      7  C   UNL     1      34.055 -23.432 -17.372  0.00  0.00    +0.072 C 
ATOM      8  C   UNL     1      35.861 -23.068 -15.725  0.00  0.00    +0.072 C 
ATOM      9  C   UNL     1      36.084 -21.965 -17.935  0.00  0.00    +0.308 C 
ATOM     10  H   UNL     1      33.941 -24.752 -15.052  0.00  0.00    -0.079 HD
ATOM     11  H   UNL     1      34.887 -22.460 -19.503  0.00  0.00    +0.156 HD
ENDROOT
BRANCH   4  14
ATOM     12 CL   UNL     1      32.940 -20.518 -20.367  0.00  0.00    -0.081 Cl
ATOM     13  N   UNL     1      37.162 -19.058 -21.065  0.00  0.00    -0.241 NA
ATOM     14  C   UNL     1      35.642 -20.621 -20.021  0.00  0.00    +0.082 C 
ATOM     15  C   UNL     1      34.561 -19.980 -20.617  0.00  0.00    +0.074 C 
ATOM     16  C   UNL     1      36.910 -20.125 -20.275  0.00  0.00    +0.114 C 
ATOM     17  C   UNL     1      34.779 -18.879 -21.437  0.00  0.00    +0.033 C 
ATOM     18  C   UNL     1      36.087 -18.460 -21.627  0.00  0.00    +0.100 C 
ENDBRANCH   4  14
BRANCH   2  19
ATOM     19  C   UNL     1      32.649 -23.721 -13.877  0.00  0.00    -0.050 C 
BRANCH  19  24
ATOM     20  F   UNL     1      26.427 -21.924 -15.836  0.00  0.00    -0.125 F 
ATOM     21  F   UNL     1      27.191 -22.679 -17.743  0.00  0.00    -0.125 F 
ATOM     22  O   UNL     1      28.665 -21.919 -16.197  0.00  0.00    -0.395 OA
ATOM     23  O   UNL     1      27.416 -23.963 -15.888  0.00  0.00    -0.395 OA
ATOM     24  C   UNL     1      31.242 -23.820 -14.403  0.00  0.00    -0.040 C 
ATOM     25  C   UNL     1      30.672 -22.731 -15.067  0.00  0.00    +0.034 C 
ATOM     26  C   UNL     1      30.515 -25.010 -14.224  0.00  0.00    -0.003 C 
ATOM     27  C   UNL     1      29.380 -22.869 -15.532  0.00  0.00    +0.181 C 
ATOM     28  C   UNL     1      28.667 -24.035 -15.356  0.00  0.00    +0.182 C 
ATOM     29  C   UNL     1      29.208 -25.125 -14.705  0.00  0.00    +0.040 C 
ATOM     30  C   UNL     1      27.434 -22.627 -16.410  0.00  0.00    +0.589 C 
ENDBRANCH  19  24
ENDBRANCH   2  19
TORSDOF 3
ENDMDL
MODEL 4
REMARK VINA RESULT:     -11.6      6.038     10.991
REMARK  Name = 54576693
REMARK  3 active torsions:
REMARK  status: ('A' for Active; 'I' for Inactive)
REMARK    1  A    between atoms: N_2  and  C_19
REMARK    2  A    between atoms: N_4  and  C_14
REMARK    3  A    between atoms: C_19  and  C_24
REMARK                            x       y       z     vdW  Elec       q    Type
REMARK                         _______ _______ _______ _____ _____    ______ ____
ROOT
ATOM      1  O   UNL     1      37.215 -19.771 -19.701  0.00  0.00    -0.252 OA
ATOM      2  N   UNL     1      34.545 -23.209 -17.269  0.00  0.00    +0.392 N 
ATOM      3  N   UNL     1      35.712 -21.467 -19.236  0.00  0.00    -0.268 N 
ATOM      4  N   UNL     1      35.415 -20.091 -21.131  0.00  0.00    -0.266 N 
ATOM      5  C   UNL     1      35.542 -22.205 -16.874  0.00  0.00    -0.055 C 
ATOM      6  C   UNL     1      33.730 -22.699 -18.379  0.00  0.00    -0.055 C 
ATOM      7  C   UNL     1      34.594 -22.350 -19.594  0.00  0.00    +0.072 C 
ATOM      8  C   UNL     1      36.462 -21.878 -18.047  0.00  0.00    +0.072 C 
ATOM      9  C   UNL     1      36.187 -20.381 -20.005  0.00  0.00    +0.308 C 
ATOM     10  H   UNL     1      35.032 -24.049 -17.581  0.00  0.00    -0.079 HD
ATOM     11  H   UNL     1      34.946 -20.851 -21.546  0.00  0.00    +0.156 HD
ENDROOT
BRANCH   4  14
ATOM     12 CL   UNL     1      35.135 -20.036 -24.185  0.00  0.00    -0.081 Cl
ATOM     13  N   UNL     1      35.015 -16.437 -21.451  0.00  0.00    -0.241 NA
ATOM     14  C   UNL     1      35.231 -18.827 -21.743  0.00  0.00    +0.082 C 
ATOM     15  C   UNL     1      35.092 -18.678 -23.120  0.00  0.00    +0.074 C 
ATOM     16  C   UNL     1      35.185 -17.685 -20.961  0.00  0.00    +0.114 C 
ATOM     17  C   UNL     1      34.916 -17.410 -23.662  0.00  0.00    +0.033 C 
ATOM     18  C   UNL     1      34.884 -16.332 -22.792  0.00  0.00    +0.100 C 
ENDBRANCH   4  14
BRANCH   2  19
ATOM     19  C   UNL     1      33.698 -23.567 -16.132  0.00  0.00    -0.050 C 
BRANCH  19  24
ATOM     20  F   UNL     1      36.721 -23.654 -10.078  0.00  0.00    -0.125 F 
ATOM     21  F   UNL     1      35.350 -25.338  -9.810  0.00  0.00    -0.125 F 
ATOM     22  O   UNL     1      34.821 -23.725 -11.314  0.00  0.00    -0.395 OA
ATOM     23  O   UNL     1      36.645 -25.267 -11.669  0.00  0.00    -0.395 OA
ATOM     24  C   UNL     1      34.511 -24.043 -14.957  0.00  0.00    -0.040 C 
ATOM     25  C   UNL     1      34.201 -23.590 -13.672  0.00  0.00    +0.034 C 
ATOM     26  C   UNL     1      35.572 -24.941 -15.164  0.00  0.00    -0.003 C 
ATOM     27  C   UNL     1      34.973 -24.055 -12.626  0.00  0.00    +0.181 C 
ATOM     28  C   UNL     1      36.014 -24.935 -12.829  0.00  0.00    +0.182 C 
ATOM     29  C   UNL     1      36.339 -25.397 -14.088  0.00  0.00    +0.040 C 
ATOM     30  C   UNL     1      35.882 -24.496 -10.731  0.00  0.00    +0.589 C 
ENDBRANCH  19  24
ENDBRANCH   2  19
TORSDOF 3
ENDMDL
MODEL 5
REMARK VINA RESULT:     -11.3      4.353      6.397
REMARK  Name = 54576693
REMARK  3 active torsions:
REMARK  status: ('A' for Active; 'I' for Inactive)
REMARK    1  A    between atoms: N_2  and  C_19
REMARK    2  A    between atoms: N_4  and  C_14
REMARK    3  A    between atoms: C_19  and  C_24
REMARK                            x       y       z     vdW  Elec       q    Type
REMARK                         _______ _______ _______ _____ _____    ______ ____
ROOT
ATOM      1  O   UNL     1      35.278 -19.120 -23.283  0.00  0.00    -0.252 OA
ATOM      2  N   UNL     1      34.007 -14.299 -23.347  0.00  0.00    +0.392 N 
ATOM      3  N   UNL     1      34.941 -16.924 -22.639  0.00  0.00    -0.268 N 
ATOM      4  N   UNL     1      35.083 -18.638 -21.021  0.00  0.00    -0.266 N 
ATOM      5  C   UNL     1      33.903 -15.407 -24.304  0.00  0.00    -0.055 C 
ATOM      6  C   UNL     1      33.833 -14.798 -21.977  0.00  0.00    -0.055 C 
ATOM      7  C   UNL     1      34.883 -15.858 -21.629  0.00  0.00    +0.072 C 
ATOM      8  C   UNL     1      34.977 -16.455 -24.025  0.00  0.00    +0.072 C 
ATOM      9  C   UNL     1      35.105 -18.303 -22.376  0.00  0.00    +0.308 C 
ATOM     10  H   UNL     1      34.935 -13.883 -23.427  0.00  0.00    -0.079 HD
ATOM     11  H   UNL     1      35.411 -17.951 -20.397  0.00  0.00    +0.156 HD
ENDROOT
BRANCH   4  14
ATOM     12 CL   UNL     1      37.230 -20.522 -19.902  0.00  0.00    -0.081 Cl
ATOM     13  N   UNL     1      32.772 -21.279 -19.882  0.00  0.00    -0.241 NA
ATOM     14  C   UNL     1      34.643 -19.855 -20.445  0.00  0.00    +0.082 C 
ATOM     15  C   UNL     1      35.524 -20.787 -19.907  0.00  0.00    +0.074 C 
ATOM     16  C   UNL     1      33.289 -20.147 -20.408  0.00  0.00    +0.114 C 
ATOM     17  C   UNL     1      35.030 -21.965 -19.356  0.00  0.00    +0.033 C 
ATOM     18  C   UNL     1      33.659 -22.161 -19.368  0.00  0.00    +0.100 C 
ENDBRANCH   4  14
BRANCH   2  19
ATOM     19  C   UNL     1      33.016 -13.266 -23.646  0.00  0.00    -0.050 C 
BRANCH  19  24
ATOM     20  F   UNL     1      33.855  -6.552 -23.774  0.00  0.00    -0.125 F 
ATOM     21  F   UNL     1      35.416  -7.074 -22.332  0.00  0.00    -0.125 F 
ATOM     22  O   UNL     1      33.649  -8.473 -22.586  0.00  0.00    -0.395 OA
ATOM     23  O   UNL     1      35.326  -8.194 -24.302  0.00  0.00    -0.395 OA
ATOM     24  C   UNL     1      33.656 -11.918 -23.850  0.00  0.00    -0.040 C 
ATOM     25  C   UNL     1      33.276 -10.842 -23.045  0.00  0.00    +0.034 C 
ATOM     26  C   UNL     1      34.633 -11.756 -24.849  0.00  0.00    -0.003 C 
ATOM     27  C   UNL     1      33.891  -9.627 -23.268  0.00  0.00    +0.181 C 
ATOM     28  C   UNL     1      34.848  -9.468 -24.247  0.00  0.00    +0.182 C 
ATOM     29  C   UNL     1      35.240 -10.515 -25.055  0.00  0.00    +0.040 C 
ATOM     30  C   UNL     1      34.561  -7.586 -23.252  0.00  0.00    +0.589 C 
ENDBRANCH  19  24
ENDBRANCH   2  19
TORSDOF 3
ENDMDL
MODEL 6
REMARK VINA RESULT:     -11.2      6.060     10.704
REMARK  Name = 54576693
REMARK  3 active torsions:
REMARK  status: ('A' for Active; 'I' for Inactive)
REMARK    1  A    between atoms: N_2  and  C_19
REMARK    2  A    between atoms: N_4  and  C_14
REMARK    3  A    between atoms: C_19  and  C_24
REMARK                            x       y       z     vdW  Elec       q    Type
REMARK                         _______ _______ _______ _____ _____    ______ ____
ROOT
ATOM      1  O   UNL     1      37.268 -19.473 -20.482  0.00  0.00    -0.252 OA
ATOM      2  N   UNL     1      34.886 -22.815 -17.649  0.00  0.00    +0.392 N 
ATOM      3  N   UNL     1      35.715 -21.016 -19.733  0.00  0.00    -0.268 N 
ATOM      4  N   UNL     1      35.118 -19.408 -21.355  0.00  0.00    -0.266 N 
ATOM      5  C   UNL     1      36.090 -21.991 -17.483  0.00  0.00    -0.055 C 
ATOM      6  C   UNL     1      33.883 -22.088 -18.438  0.00  0.00    -0.055 C 
ATOM      7  C   UNL     1      34.423 -21.710 -19.820  0.00  0.00    +0.072 C 
ATOM      8  C   UNL     1      36.692 -21.647 -18.843  0.00  0.00    +0.072 C 
ATOM      9  C   UNL     1      36.117 -19.915 -20.522  0.00  0.00    +0.308 C 
ATOM     10  H   UNL     1      35.139 -23.668 -18.150  0.00  0.00    -0.079 HD
ATOM     11  H   UNL     1      34.447 -20.053 -21.673  0.00  0.00    +0.156 HD
ENDROOT
BRANCH   4  14
ATOM     12 CL   UNL     1      34.871 -18.936 -24.376  0.00  0.00    -0.081 Cl
ATOM     13  N   UNL     1      34.788 -15.737 -21.182  0.00  0.00    -0.241 NA
ATOM     14  C   UNL     1      34.963 -18.069 -21.792  0.00  0.00    +0.082 C 
ATOM     15  C   UNL     1      34.842 -17.734 -23.137  0.00  0.00    +0.074 C 
ATOM     16  C   UNL     1      34.931 -17.042 -20.863  0.00  0.00    +0.114 C 
ATOM     17  C   UNL     1      34.694 -16.401 -23.505  0.00  0.00    +0.033 C 
ATOM     18  C   UNL     1      34.673 -15.449 -22.498  0.00  0.00    +0.100 C 
ENDBRANCH   4  14
BRANCH   2  19
ATOM     19  C   UNL     1      34.339 -23.195 -16.347  0.00  0.00    -0.050 C 
BRANCH  19  24
ATOM     20  F   UNL     1      38.094 -26.478 -11.775  0.00  0.00    -0.125 F 
ATOM     21  F   UNL     1      39.606 -26.192 -13.331  0.00  0.00    -0.125 F 
ATOM     22  O   UNL     1      37.417 -26.219 -13.923  0.00  0.00    -0.395 OA
ATOM     23  O   UNL     1      38.384 -24.407 -12.652  0.00  0.00    -0.395 OA
ATOM     24  C   UNL     1      35.426 -23.484 -15.347  0.00  0.00    -0.040 C 
ATOM     25  C   UNL     1      35.867 -24.797 -15.163  0.00  0.00    +0.034 C 
ATOM     26  C   UNL     1      35.989 -22.430 -14.607  0.00  0.00    -0.003 C 
ATOM     27  C   UNL     1      36.865 -25.014 -14.236  0.00  0.00    +0.181 C 
ATOM     28  C   UNL     1      37.417 -23.980 -13.510  0.00  0.00    +0.182 C 
ATOM     29  C   UNL     1      36.999 -22.675 -13.673  0.00  0.00    +0.040 C 
ATOM     30  C   UNL     1      38.368 -25.815 -12.926  0.00  0.00    +0.589 C 
ENDBRANCH  19  24
ENDBRANCH   2  19
TORSDOF 3
ENDMDL
MODEL 7
REMARK VINA RESULT:     -11.1      8.536     11.388
REMARK  Name = 54576693
REMARK  3 active torsions:
REMARK  status: ('A' for Active; 'I' for Inactive)
REMARK    1  A    between atoms: N_2  and  C_19
REMARK    2  A    between atoms: N_4  and  C_14
REMARK    3  A    between atoms: C_19  and  C_24
REMARK                            x       y       z     vdW  Elec       q    Type
REMARK                         _______ _______ _______ _____ _____    ______ ____
ROOT
ATOM      1  O   UNL     1      32.080 -13.635 -19.996  0.00  0.00    -0.252 OA
ATOM      2  N   UNL     1      31.999  -8.688 -20.615  0.00  0.00    +0.392 N 
ATOM      3  N   UNL     1      31.963 -11.540 -20.971  0.00  0.00    -0.268 N 
ATOM      4  N   UNL     1      32.631 -13.416 -22.240  0.00  0.00    -0.266 N 
ATOM      5  C   UNL     1      32.177  -9.582 -19.464  0.00  0.00    -0.055 C 
ATOM      6  C   UNL     1      32.593  -9.288 -21.816  0.00  0.00    -0.055 C 
ATOM      7  C   UNL     1      31.959 -10.645 -22.136  0.00  0.00    +0.072 C 
ATOM      8  C   UNL     1      31.502 -10.927 -19.724  0.00  0.00    +0.072 C 
ATOM      9  C   UNL     1      32.226 -12.928 -20.996  0.00  0.00    +0.308 C 
ATOM     10  H   UNL     1      31.000  -8.557 -20.776  0.00  0.00    -0.079 HD
ATOM     11  H   UNL     1      32.279 -12.943 -23.029  0.00  0.00    +0.156 HD
ENDROOT
BRANCH   4  14
ATOM     12 CL   UNL     1      33.081 -14.200 -25.171  0.00  0.00    -0.081 Cl
ATOM     13  N   UNL     1      34.913 -16.238 -21.575  0.00  0.00    -0.241 NA
ATOM     14  C   UNL     1      33.490 -14.514 -22.494  0.00  0.00    +0.082 C 
ATOM     15  C   UNL     1      33.768 -14.960 -23.782  0.00  0.00    +0.074 C 
ATOM     16  C   UNL     1      34.082 -15.181 -21.435  0.00  0.00    +0.114 C 
ATOM     17  C   UNL     1      34.618 -16.045 -23.967  0.00  0.00    +0.033 C 
ATOM     18  C   UNL     1      35.161 -16.643 -22.841  0.00  0.00    +0.100 C 
ENDBRANCH   4  14
BRANCH   2  19
ATOM     19  C   UNL     1      32.594  -7.380 -20.346  0.00  0.00    -0.050 C 
BRANCH  19  24
ATOM     20  F   UNL     1      32.158  -2.085 -24.537  0.00  0.00    -0.125 F 
ATOM     21  F   UNL     1      31.254  -3.617 -25.812  0.00  0.00    -0.125 F 
ATOM     22  O   UNL     1      32.699  -4.259 -24.186  0.00  0.00    -0.395 OA
ATOM     23  O   UNL     1      30.506  -3.382 -23.684  0.00  0.00    -0.395 OA
ATOM     24  C   UNL     1      32.004  -6.306 -21.221  0.00  0.00    -0.040 C 
ATOM     25  C   UNL     1      32.728  -5.827 -22.315  0.00  0.00    +0.034 C 
ATOM     26  C   UNL     1      30.727  -5.795 -20.929  0.00  0.00    -0.003 C 
ATOM     27  C   UNL     1      32.146  -4.843 -23.088  0.00  0.00    +0.181 C 
ATOM     28  C   UNL     1      30.894  -4.343 -22.801  0.00  0.00    +0.182 C 
ATOM     29  C   UNL     1      30.159  -4.799 -21.727  0.00  0.00    +0.040 C 
ATOM     30  C   UNL     1      31.653  -3.343 -24.545  0.00  0.00    +0.589 C 
ENDBRANCH  19  24
ENDBRANCH   2  19
TORSDOF 3
ENDMDL
MODEL 8
REMARK VINA RESULT:     -11.1      9.073     13.700
REMARK  Name = 54576693
REMARK  3 active torsions:
REMARK  status: ('A' for Active; 'I' for Inactive)
REMARK    1  A    between atoms: N_2  and  C_19
REMARK    2  A    between atoms: N_4  and  C_14
REMARK    3  A    between atoms: C_19  and  C_24
REMARK                            x       y       z     vdW  Elec       q    Type
REMARK                         _______ _______ _______ _____ _____    ______ ____
ROOT
ATOM      1  O   UNL     1      32.229  -5.661 -20.730  0.00  0.00    -0.252 OA
ATOM      2  N   UNL     1      32.190 -10.630 -21.145  0.00  0.00    +0.392 N 
ATOM      3  N   UNL     1      32.584  -7.807 -21.518  0.00  0.00    -0.268 N 
ATOM      4  N   UNL     1      32.648  -5.964 -22.993  0.00  0.00    -0.266 N 
ATOM      5  C   UNL     1      31.616  -9.668 -20.195  0.00  0.00    -0.055 C 
ATOM      6  C   UNL     1      32.198 -10.059 -22.498  0.00  0.00    -0.055 C 
ATOM      7  C   UNL     1      33.007  -8.760 -22.553  0.00  0.00    +0.072 C 
ATOM      8  C   UNL     1      32.436  -8.380 -20.180  0.00  0.00    +0.072 C 
ATOM      9  C   UNL     1      32.460  -6.409 -21.683  0.00  0.00    +0.308 C 
ATOM     10  H   UNL     1      33.153 -10.827 -20.869  0.00  0.00    -0.079 HD
ATOM     11  H   UNL     1      33.260  -6.497 -23.551  0.00  0.00    +0.156 HD
ENDROOT
BRANCH   4  14
ATOM     12 CL   UNL     1      33.965  -4.911 -25.555  0.00  0.00    -0.081 Cl
ATOM     13  N   UNL     1      30.300  -3.174 -23.556  0.00  0.00    -0.241 NA
ATOM     14  C   UNL     1      32.058  -4.833 -23.608  0.00  0.00    +0.082 C 
ATOM     15  C   UNL     1      32.567  -4.267 -24.773  0.00  0.00    +0.074 C 
ATOM     16  C   UNL     1      30.933  -4.253 -23.045  0.00  0.00    +0.114 C 
ATOM     17  C   UNL     1      31.944  -3.155 -25.329  0.00  0.00    +0.033 C 
ATOM     18  C   UNL     1      30.824  -2.651 -24.688  0.00  0.00    +0.100 C 
ENDBRANCH   4  14
BRANCH   2  19
ATOM     19  C   UNL     1      31.441 -11.885 -21.121  0.00  0.00    -0.050 C 
BRANCH  19  24
ATOM     20  F   UNL     1      34.317 -17.294 -23.996  0.00  0.00    -0.125 F 
ATOM     21  F   UNL     1      36.074 -15.997 -23.851  0.00  0.00    -0.125 F 
ATOM     22  O   UNL     1      34.016 -15.048 -23.926  0.00  0.00    -0.395 OA
ATOM     23  O   UNL     1      34.784 -16.303 -22.011  0.00  0.00    -0.395 OA
ATOM     24  C   UNL     1      32.339 -13.077 -21.323  0.00  0.00    -0.040 C 
ATOM     25  C   UNL     1      32.721 -13.445 -22.616  0.00  0.00    +0.034 C 
ATOM     26  C   UNL     1      32.787 -13.807 -20.209  0.00  0.00    -0.003 C 
ATOM     27  C   UNL     1      33.545 -14.543 -22.752  0.00  0.00    +0.181 C 
ATOM     28  C   UNL     1      33.983 -15.260 -21.659  0.00  0.00    +0.182 C 
ATOM     29  C   UNL     1      33.621 -14.916 -20.373  0.00  0.00    +0.040 C 
ATOM     30  C   UNL     1      34.791 -16.153 -23.438  0.00  0.00    +0.589 C 
ENDBRANCH  19  24
ENDBRANCH   2  19
TORSDOF 3
ENDMDL
MODEL 9
REMARK VINA RESULT:     -11.0      5.541     10.442
REMARK  Name = 54576693
REMARK  3 active torsions:
REMARK  status: ('A' for Active; 'I' for Inactive)
REMARK    1  A    between atoms: N_2  and  C_19
REMARK    2  A    between atoms: N_4  and  C_14
REMARK    3  A    between atoms: C_19  and  C_24
REMARK                            x       y       z     vdW  Elec       q    Type
REMARK                         _______ _______ _______ _____ _____    ______ ____
ROOT
ATOM      1  O   UNL     1      33.272 -12.989 -25.364  0.00  0.00    -0.252 OA
ATOM      2  N   UNL     1      35.041 -17.054 -23.080  0.00  0.00    +0.392 N 
ATOM      3  N   UNL     1      33.818 -14.535 -23.731  0.00  0.00    -0.268 N 
ATOM      4  N   UNL     1      33.451 -12.273 -23.164  0.00  0.00    -0.266 N 
ATOM      5  C   UNL     1      35.056 -16.556 -24.462  0.00  0.00    -0.055 C 
ATOM      6  C   UNL     1      35.122 -15.930 -22.139  0.00  0.00    -0.055 C 
ATOM      7  C   UNL     1      33.958 -14.953 -22.330  0.00  0.00    +0.072 C 
ATOM      8  C   UNL     1      33.870 -15.626 -24.706  0.00  0.00    +0.072 C 
ATOM      9  C   UNL     1      33.503 -13.231 -24.177  0.00  0.00    +0.308 C 
ATOM     10  H   UNL     1      34.163 -17.550 -22.920  0.00  0.00    -0.079 HD
ATOM     11  H   UNL     1      33.179 -12.593 -22.274  0.00  0.00    +0.156 HD
ENDROOT
BRANCH   4  14
ATOM     12 CL   UNL     1      31.470 -10.308 -21.890  0.00  0.00    -0.081 Cl
ATOM     13  N   UNL     1      35.256  -9.192 -24.095  0.00  0.00    -0.241 NA
ATOM     14  C   UNL     1      33.745 -10.891 -23.273  0.00  0.00    +0.082 C 
ATOM     15  C   UNL     1      32.920  -9.908 -22.736  0.00  0.00    +0.074 C 
ATOM     16  C   UNL     1      34.891 -10.483 -23.937  0.00  0.00    +0.114 C 
ATOM     17  C   UNL     1      33.262  -8.568 -22.877  0.00  0.00    +0.033 C 
ATOM     18  C   UNL     1      34.430  -8.265 -23.559  0.00  0.00    +0.100 C 
ENDBRANCH   4  14
BRANCH   2  19
ATOM     19  C   UNL     1      36.142 -17.990 -22.859  0.00  0.00    -0.050 C 
BRANCH  19  24
ATOM     20  F   UNL     1      32.689 -21.413 -18.153  0.00  0.00    -0.125 F 
ATOM     21  F   UNL     1      33.150 -23.060 -19.518  0.00  0.00    -0.125 F 
ATOM     22  O   UNL     1      33.077 -20.947 -20.338  0.00  0.00    -0.395 OA
ATOM     23  O   UNL     1      34.828 -21.689 -18.850  0.00  0.00    -0.395 OA
ATOM     24  C   UNL     1      35.824 -18.981 -21.771  0.00  0.00    -0.040 C 
ATOM     25  C   UNL     1      34.521 -19.464 -21.634  0.00  0.00    +0.034 C 
ATOM     26  C   UNL     1      36.844 -19.413 -20.905  0.00  0.00    -0.003 C 
ATOM     27  C   UNL     1      34.278 -20.372 -20.623  0.00  0.00    +0.181 C 
ATOM     28  C   UNL     1      35.277 -20.796 -19.774  0.00  0.00    +0.182 C 
ATOM     29  C   UNL     1      36.572 -20.334 -19.890  0.00  0.00    +0.040 C 
ATOM     30  C   UNL     1      33.445 -21.770 -19.220  0.00  0.00    +0.589 C 
ENDBRANCH  19  24
ENDBRANCH   2  19
TORSDOF 3
ENDMDL
