MODEL 1
REMARK VINA RESULT:     -13.5      0.000      0.000
REMARK  Name = 24767976
REMARK  5 active torsions:
REMARK  status: ('A' for Active; 'I' for Inactive)
REMARK    1  A    between atoms: C_1  and  N_9
REMARK    2  A    between atoms: C_2  and  O_19
REMARK    3  A    between atoms: C_10  and  C_14
REMARK    4  A    between atoms: O_19  and  C_27
REMARK    5  A    between atoms: C_31  and  C_33
REMARK                            x       y       z     vdW  Elec       q    Type
REMARK                         _______ _______ _______ _____ _____    ______ ____
ROOT
ATOM      1  C   UNL     1      35.356 -21.673 -18.677  0.00  0.00    +0.050 C 
ATOM      2  C   UNL     1      35.616 -20.092 -20.484  0.00  0.00    +0.148 C 
ATOM      3  C   UNL     1      33.978 -21.684 -18.883  0.00  0.00    -0.008 C 
ATOM      4  C   UNL     1      36.176 -20.877 -19.478  0.00  0.00    +0.052 C 
ATOM      5  C   UNL     1      33.417 -20.898 -19.891  0.00  0.00    +0.000 C 
ATOM      6  C   UNL     1      34.237 -20.102 -20.692  0.00  0.00    +0.037 C 
ATOM      7  C   UNL     1      33.075 -22.526 -18.041  0.00  0.00    +0.032 C 
ENDROOT
BRANCH   1   9
ATOM      8  O   UNL     1      37.190 -20.899 -16.435  0.00  0.00    -0.268 OA
ATOM      9  N   UNL     1      35.936 -22.454 -17.674  0.00  0.00    -0.279 N 
ATOM     10  C   UNL     1      36.790 -22.039 -16.646  0.00  0.00    +0.265 C 
ATOM     11  H   UNL     1      35.718 -23.415 -17.694  0.00  0.00    +0.155 HD
BRANCH  10  14
ATOM     12  N   UNL     1      36.479 -23.889 -14.942  0.00  0.00    -0.206 N 
ATOM     13  N   UNL     1      37.159 -24.796 -14.219  0.00  0.00    -0.182 NA
ATOM     14  C   UNL     1      37.270 -23.118 -15.742  0.00  0.00    +0.124 C 
ATOM     15  C   UNL     1      38.556 -23.549 -15.528  0.00  0.00    +0.037 C 
ATOM     16  C   UNL     1      38.427 -24.584 -14.581  0.00  0.00    +0.078 C 
ATOM     17  C   UNL     1      35.042 -23.816 -14.812  0.00  0.00    +0.140 C 
ATOM     18  C   UNL     1      39.502 -25.401 -13.994  0.00  0.00    +0.054 C 
ENDBRANCH  10  14
ENDBRANCH   1   9
BRANCH   2  19
ATOM     19  O   UNL     1      36.433 -19.297 -21.284  0.00  0.00    -0.435 OA
BRANCH  19  27
ATOM     20  N   UNL     1      33.777 -15.053 -23.123  0.00  0.00    -0.373 NA
ATOM     21  N   UNL     1      34.530 -16.381 -21.497  0.00  0.00    -0.173 N 
ATOM     22  N   UNL     1      35.163 -17.413 -20.873  0.00  0.00    -0.138 NA
ATOM     23  C   UNL     1      33.373 -14.578 -21.901  0.00  0.00    +0.187 C 
ATOM     24  C   UNL     1      33.824 -15.381 -20.881  0.00  0.00    +0.193 C 
ATOM     25  C   UNL     1      34.473 -16.140 -22.860  0.00  0.00    +0.204 C 
ATOM     26  C   UNL     1      35.140 -17.057 -23.706  0.00  0.00    +0.054 C 
ATOM     27  C   UNL     1      35.751 -18.212 -21.703  0.00  0.00    +0.245 C 
ATOM     28  C   UNL     1      35.788 -18.101 -23.176  0.00  0.00    +0.063 C 
ATOM     29  O   UNL     1      32.304 -13.237 -19.427  0.00  0.00    -0.275 OA
ATOM     30  N   UNL     1      32.613 -13.441 -21.759  0.00  0.00    -0.261 N 
ATOM     31  C   UNL     1      32.131 -12.846 -20.574  0.00  0.00    +0.227 C 
ATOM     32  H   UNL     1      32.373 -12.982 -22.594  0.00  0.00    +0.157 HD
BRANCH  31  33
ATOM     33  C   UNL     1      31.329 -11.600 -20.787  0.00  0.00    +0.077 C 
ATOM     34  C   UNL     1      31.866 -10.292 -20.282  0.00  0.00    +0.010 C 
ATOM     35  C   UNL     1      30.690 -10.933 -19.604  0.00  0.00    +0.010 C 
ENDBRANCH  31  33
ENDBRANCH  19  27
ENDBRANCH   2  19
TORSDOF 5
ENDMDL
MODEL 2
REMARK VINA RESULT:     -12.2      1.915      2.152
REMARK  Name = 24767976
REMARK  5 active torsions:
REMARK  status: ('A' for Active; 'I' for Inactive)
REMARK    1  A    between atoms: C_1  and  N_9
REMARK    2  A    between atoms: C_2  and  O_19
REMARK    3  A    between atoms: C_10  and  C_14
REMARK    4  A    between atoms: O_19  and  C_27
REMARK    5  A    between atoms: C_31  and  C_33
REMARK                            x       y       z     vdW  Elec       q    Type
REMARK                         _______ _______ _______ _____ _____    ______ ____
ROOT
ATOM      1  C   UNL     1      35.131 -22.193 -17.990  0.00  0.00    +0.050 C 
ATOM      2  C   UNL     1      35.752 -20.790 -19.856  0.00  0.00    +0.148 C 
ATOM      3  C   UNL     1      33.787 -22.056 -18.333  0.00  0.00    -0.008 C 
ATOM      4  C   UNL     1      36.114 -21.561 -18.752  0.00  0.00    +0.052 C 
ATOM      5  C   UNL     1      33.424 -21.284 -19.438  0.00  0.00    +0.000 C 
ATOM      6  C   UNL     1      34.407 -20.652 -20.199  0.00  0.00    +0.037 C 
ATOM      7  C   UNL     1      32.713 -22.722 -17.535  0.00  0.00    +0.032 C 
ENDROOT
BRANCH   1   9
ATOM      8  O   UNL     1      36.967 -21.536 -15.712  0.00  0.00    -0.268 OA
ATOM      9  N   UNL     1      35.514 -22.962 -16.888  0.00  0.00    -0.279 N 
ATOM     10  C   UNL     1      36.380 -22.604 -15.848  0.00  0.00    +0.265 C 
ATOM     11  H   UNL     1      35.129 -23.867 -16.837  0.00  0.00    +0.155 HD
BRANCH  10  14
ATOM     12  N   UNL     1      35.657 -24.219 -14.032  0.00  0.00    -0.206 N 
ATOM     13  N   UNL     1      36.130 -25.150 -13.187  0.00  0.00    -0.182 NA
ATOM     14  C   UNL     1      36.615 -23.657 -14.825  0.00  0.00    +0.124 C 
ATOM     15  C   UNL     1      37.796 -24.263 -14.473  0.00  0.00    +0.037 C 
ATOM     16  C   UNL     1      37.437 -25.173 -13.461  0.00  0.00    +0.078 C 
ATOM     17  C   UNL     1      34.246 -23.910 -14.026  0.00  0.00    +0.140 C 
ATOM     18  C   UNL     1      38.323 -26.091 -12.724  0.00  0.00    +0.054 C 
ENDBRANCH  10  14
ENDBRANCH   1   9
BRANCH   2  19
ATOM     19  O   UNL     1      36.732 -20.158 -20.616  0.00  0.00    -0.435 OA
BRANCH  19  27
ATOM     20  N   UNL     1      34.445 -16.830 -24.102  0.00  0.00    -0.373 NA
ATOM     21  N   UNL     1      35.410 -17.317 -22.151  0.00  0.00    -0.173 N 
ATOM     22  N   UNL     1      36.009 -18.033 -21.158  0.00  0.00    -0.138 NA
ATOM     23  C   UNL     1      34.528 -15.705 -23.322  0.00  0.00    +0.187 C 
ATOM     24  C   UNL     1      35.119 -15.979 -22.113  0.00  0.00    +0.193 C 
ATOM     25  C   UNL     1      34.982 -17.792 -23.379  0.00  0.00    +0.204 C 
ATOM     26  C   UNL     1      35.182 -19.168 -23.645  0.00  0.00    +0.054 C 
ATOM     27  C   UNL     1      36.161 -19.281 -21.465  0.00  0.00    +0.245 C 
ATOM     28  C   UNL     1      35.763 -19.946 -22.724  0.00  0.00    +0.063 C 
ATOM     29  O   UNL     1      34.528 -13.040 -21.922  0.00  0.00    -0.275 OA
ATOM     30  N   UNL     1      34.065 -14.478 -23.736  0.00  0.00    -0.261 N 
ATOM     31  C   UNL     1      34.085 -13.250 -23.043  0.00  0.00    +0.227 C 
ATOM     32  H   UNL     1      33.667 -14.454 -24.634  0.00  0.00    +0.157 HD
BRANCH  31  33
ATOM     33  C   UNL     1      33.493 -12.101 -23.799  0.00  0.00    +0.077 C 
ATOM     34  C   UNL     1      34.244 -11.533 -24.968  0.00  0.00    +0.010 C 
ATOM     35  C   UNL     1      34.137 -10.749 -23.693  0.00  0.00    +0.010 C 
ENDBRANCH  31  33
ENDBRANCH  19  27
ENDBRANCH   2  19
TORSDOF 5
ENDMDL
MODEL 3
REMARK VINA RESULT:     -11.9      2.039     10.816
REMARK  Name = 24767976
REMARK  5 active torsions:
REMARK  status: ('A' for Active; 'I' for Inactive)
REMARK    1  A    between atoms: C_1  and  N_9
REMARK    2  A    between atoms: C_2  and  O_19
REMARK    3  A    between atoms: C_10  and  C_14
REMARK    4  A    between atoms: O_19  and  C_27
REMARK    5  A    between atoms: C_31  and  C_33
REMARK                            x       y       z     vdW  Elec       q    Type
REMARK                         _______ _______ _______ _____ _____    ______ ____
ROOT
ATOM      1  C   UNL     1      34.822 -19.181 -21.116  0.00  0.00    +0.050 C 
ATOM      2  C   UNL     1      34.090 -21.129 -19.889  0.00  0.00    +0.148 C 
ATOM      3  C   UNL     1      36.151 -19.534 -20.884  0.00  0.00    -0.008 C 
ATOM      4  C   UNL     1      33.791 -19.979 -20.618  0.00  0.00    +0.052 C 
ATOM      5  C   UNL     1      36.450 -20.685 -20.154  0.00  0.00    +0.000 C 
ATOM      6  C   UNL     1      35.419 -21.483 -19.657  0.00  0.00    +0.037 C 
ATOM      7  C   UNL     1      37.275 -18.698 -21.405  0.00  0.00    +0.032 C 
ENDROOT
BRANCH   1   9
ATOM      8  O   UNL     1      34.929 -16.291 -20.325  0.00  0.00    -0.268 OA
ATOM      9  N   UNL     1      34.503 -18.033 -21.845  0.00  0.00    -0.279 N 
ATOM     10  C   UNL     1      34.571 -16.700 -21.425  0.00  0.00    +0.265 C 
ATOM     11  H   UNL     1      34.190 -18.180 -22.768  0.00  0.00    +0.155 HD
BRANCH  10  14
ATOM     12  N   UNL     1      33.402 -14.574 -22.158  0.00  0.00    -0.206 N 
ATOM     13  N   UNL     1      33.136 -13.826 -23.243  0.00  0.00    -0.182 NA
ATOM     14  C   UNL     1      34.134 -15.693 -22.428  0.00  0.00    +0.124 C 
ATOM     15  C   UNL     1      34.362 -15.676 -23.782  0.00  0.00    +0.037 C 
ATOM     16  C   UNL     1      33.725 -14.503 -24.231  0.00  0.00    +0.078 C 
ATOM     17  C   UNL     1      32.913 -14.147 -20.868  0.00  0.00    +0.140 C 
ATOM     18  C   UNL     1      33.657 -13.992 -25.610  0.00  0.00    +0.054 C 
ENDBRANCH  10  14
ENDBRANCH   1   9
BRANCH   2  19
ATOM     19  O   UNL     1      33.062 -21.926 -19.392  0.00  0.00    -0.435 OA
BRANCH  19  27
ATOM     20  N   UNL     1      34.123 -23.675 -14.466  0.00  0.00    -0.373 NA
ATOM     21  N   UNL     1      34.708 -23.003 -16.511  0.00  0.00    -0.173 N 
ATOM     22  N   UNL     1      34.604 -22.557 -17.793  0.00  0.00    -0.138 NA
ATOM     23  C   UNL     1      35.488 -23.703 -14.599  0.00  0.00    +0.187 C 
ATOM     24  C   UNL     1      35.874 -23.293 -15.852  0.00  0.00    +0.193 C 
ATOM     25  C   UNL     1      33.670 -23.251 -15.628  0.00  0.00    +0.204 C 
ATOM     26  C   UNL     1      32.355 -23.020 -16.096  0.00  0.00    +0.054 C 
ATOM     27  C   UNL     1      33.377 -22.366 -18.157  0.00  0.00    +0.245 C 
ATOM     28  C   UNL     1      32.161 -22.580 -17.345  0.00  0.00    +0.063 C 
ATOM     29  O   UNL     1      38.491 -23.895 -14.506  0.00  0.00    -0.275 OA
ATOM     30  N   UNL     1      36.327 -24.097 -13.584  0.00  0.00    -0.261 N 
ATOM     31  C   UNL     1      37.735 -24.173 -13.584  0.00  0.00    +0.227 C 
ATOM     32  H   UNL     1      35.887 -24.361 -12.745  0.00  0.00    +0.157 HD
BRANCH  31  33
ATOM     33  C   UNL     1      38.332 -24.646 -12.295  0.00  0.00    +0.077 C 
ATOM     34  C   UNL     1      37.992 -26.019 -11.794  0.00  0.00    +0.010 C 
ATOM     35  C   UNL     1      37.443 -24.809 -11.097  0.00  0.00    +0.010 C 
ENDBRANCH  31  33
ENDBRANCH  19  27
ENDBRANCH   2  19
TORSDOF 5
ENDMDL
MODEL 4
REMARK VINA RESULT:     -10.9      4.792     13.846
REMARK  Name = 24767976
REMARK  5 active torsions:
REMARK  status: ('A' for Active; 'I' for Inactive)
REMARK    1  A    between atoms: C_1  and  N_9
REMARK    2  A    between atoms: C_2  and  O_19
REMARK    3  A    between atoms: C_10  and  C_14
REMARK    4  A    between atoms: O_19  and  C_27
REMARK    5  A    between atoms: C_31  and  C_33
REMARK                            x       y       z     vdW  Elec       q    Type
REMARK                         _______ _______ _______ _____ _____    ______ ____
ROOT
ATOM      1  C   UNL     1      32.084  -8.008 -21.606  0.00  0.00    +0.050 C 
ATOM      2  C   UNL     1      31.456 -10.265 -21.019  0.00  0.00    +0.148 C 
ATOM      3  C   UNL     1      32.462  -7.769 -20.286  0.00  0.00    -0.008 C 
ATOM      4  C   UNL     1      31.580  -9.256 -21.973  0.00  0.00    +0.052 C 
ATOM      5  C   UNL     1      32.338  -8.779 -19.331  0.00  0.00    +0.000 C 
ATOM      6  C   UNL     1      31.834 -10.027 -19.698  0.00  0.00    +0.037 C 
ATOM      7  C   UNL     1      33.005  -6.442 -19.864  0.00  0.00    +0.032 C 
ENDROOT
BRANCH   1   9
ATOM      8  O   UNL     1      34.493  -7.034 -23.102  0.00  0.00    -0.268 OA
ATOM      9  N   UNL     1      32.202  -7.009 -22.576  0.00  0.00    -0.279 N 
ATOM     10  C   UNL     1      33.357  -6.592 -23.246  0.00  0.00    +0.265 C 
ATOM     11  H   UNL     1      31.369  -6.540 -22.817  0.00  0.00    +0.155 HD
BRANCH  10  14
ATOM     12  N   UNL     1      32.338  -4.408 -24.032  0.00  0.00    -0.206 N 
ATOM     13  N   UNL     1      32.346  -3.538 -25.056  0.00  0.00    -0.182 NA
ATOM     14  C   UNL     1      33.167  -5.477 -24.211  0.00  0.00    +0.124 C 
ATOM     15  C   UNL     1      33.757  -5.294 -25.438  0.00  0.00    +0.037 C 
ATOM     16  C   UNL     1      33.215  -4.084 -25.911  0.00  0.00    +0.078 C 
ATOM     17  C   UNL     1      31.494  -4.147 -22.890  0.00  0.00    +0.140 C 
ATOM     18  C   UNL     1      33.505  -3.410 -27.188  0.00  0.00    +0.054 C 
ENDBRANCH  10  14
ENDBRANCH   1   9
BRANCH   2  19
ATOM     19  O   UNL     1      30.953 -11.511 -21.385  0.00  0.00    -0.435 OA
BRANCH  19  27
ATOM     20  N   UNL     1      35.001 -14.564 -23.041  0.00  0.00    -0.373 NA
ATOM     21  N   UNL     1      33.202 -14.147 -21.790  0.00  0.00    -0.173 N 
ATOM     22  N   UNL     1      32.127 -13.495 -21.265  0.00  0.00    -0.138 NA
ATOM     23  C   UNL     1      34.731 -15.637 -22.230  0.00  0.00    +0.187 C 
ATOM     24  C   UNL     1      33.626 -15.404 -21.448  0.00  0.00    +0.193 C 
ATOM     25  C   UNL     1      34.069 -13.675 -22.762  0.00  0.00    +0.204 C 
ATOM     26  C   UNL     1      33.825 -12.378 -23.272  0.00  0.00    +0.054 C 
ATOM     27  C   UNL     1      31.961 -12.317 -21.773  0.00  0.00    +0.245 C 
ATOM     28  C   UNL     1      32.789 -11.667 -22.810  0.00  0.00    +0.063 C 
ATOM     29  O   UNL     1      34.463 -18.168 -20.623  0.00  0.00    -0.275 OA
ATOM     30  N   UNL     1      35.494 -16.781 -22.230  0.00  0.00    -0.261 N 
ATOM     31  C   UNL     1      35.332 -17.948 -21.457  0.00  0.00    +0.227 C 
ATOM     32  H   UNL     1      36.255 -16.785 -22.854  0.00  0.00    +0.157 HD
BRANCH  31  33
ATOM     33  C   UNL     1      36.354 -19.012 -21.716  0.00  0.00    +0.077 C 
ATOM     34  C   UNL     1      37.233 -19.469 -20.589  0.00  0.00    +0.010 C 
ATOM     35  C   UNL     1      37.808 -18.644 -21.703  0.00  0.00    +0.010 C 
ENDBRANCH  31  33
ENDBRANCH  19  27
ENDBRANCH   2  19
TORSDOF 5
ENDMDL
MODEL 5
REMARK VINA RESULT:     -10.8      3.550     12.362
REMARK  Name = 24767976
REMARK  5 active torsions:
REMARK  status: ('A' for Active; 'I' for Inactive)
REMARK    1  A    between atoms: C_1  and  N_9
REMARK    2  A    between atoms: C_2  and  O_19
REMARK    3  A    between atoms: C_10  and  C_14
REMARK    4  A    between atoms: O_19  and  C_27
REMARK    5  A    between atoms: C_31  and  C_33
REMARK                            x       y       z     vdW  Elec       q    Type
REMARK                         _______ _______ _______ _____ _____    ______ ____
ROOT
ATOM      1  C   UNL     1      32.561 -10.927 -22.363  0.00  0.00    +0.050 C 
ATOM      2  C   UNL     1      33.718 -12.856 -23.242  0.00  0.00    +0.148 C 
ATOM      3  C   UNL     1      31.914 -11.738 -21.431  0.00  0.00    -0.008 C 
ATOM      4  C   UNL     1      33.463 -11.485 -23.268  0.00  0.00    +0.052 C 
ATOM      5  C   UNL     1      32.170 -13.110 -21.406  0.00  0.00    +0.000 C 
ATOM      6  C   UNL     1      33.072 -13.669 -22.311  0.00  0.00    +0.037 C 
ATOM      7  C   UNL     1      30.943 -11.167 -20.449  0.00  0.00    +0.032 C 
ENDROOT
BRANCH   1   9
ATOM      8  O   UNL     1      34.348  -8.669 -23.198  0.00  0.00    -0.268 OA
ATOM      9  N   UNL     1      32.319  -9.551 -22.403  0.00  0.00    -0.279 N 
ATOM     10  C   UNL     1      33.194  -8.535 -22.804  0.00  0.00    +0.265 C 
ATOM     11  H   UNL     1      31.424  -9.261 -22.114  0.00  0.00    +0.155 HD
BRANCH  10  14
ATOM     12  N   UNL     1      32.394  -6.483 -21.549  0.00  0.00    -0.206 N 
ATOM     13  N   UNL     1      31.906  -5.245 -21.735  0.00  0.00    -0.182 NA
ATOM     14  C   UNL     1      32.652  -7.154 -22.709  0.00  0.00    +0.124 C 
ATOM     15  C   UNL     1      32.309  -6.295 -23.724  0.00  0.00    +0.037 C 
ATOM     16  C   UNL     1      31.857  -5.135 -23.065  0.00  0.00    +0.078 C 
ATOM     17  C   UNL     1      32.591  -6.970 -20.203  0.00  0.00    +0.140 C 
ATOM     18  C   UNL     1      31.365  -3.890 -23.679  0.00  0.00    +0.054 C 
ENDBRANCH  10  14
ENDBRANCH   1   9
BRANCH   2  19
ATOM     19  O   UNL     1      34.618 -13.414 -24.147  0.00  0.00    -0.435 OA
BRANCH  19  27
ATOM     20  N   UNL     1      34.851 -18.711 -23.557  0.00  0.00    -0.373 NA
ATOM     21  N   UNL     1      35.181 -16.613 -22.873  0.00  0.00    -0.173 N 
ATOM     22  N   UNL     1      35.192 -15.251 -22.871  0.00  0.00    -0.138 NA
ATOM     23  C   UNL     1      35.425 -18.705 -22.311  0.00  0.00    +0.187 C 
ATOM     24  C   UNL     1      35.639 -17.423 -21.867  0.00  0.00    +0.193 C 
ATOM     25  C   UNL     1      34.711 -17.440 -23.880  0.00  0.00    +0.204 C 
ATOM     26  C   UNL     1      34.184 -16.817 -25.035  0.00  0.00    +0.054 C 
ATOM     27  C   UNL     1      34.697 -14.746 -23.954  0.00  0.00    +0.245 C 
ATOM     28  C   UNL     1      34.156 -15.481 -25.117  0.00  0.00    +0.063 C 
ATOM     29  O   UNL     1      36.671 -19.100 -19.600  0.00  0.00    -0.275 OA
ATOM     30  N   UNL     1      35.732 -19.858 -21.628  0.00  0.00    -0.261 N 
ATOM     31  C   UNL     1      36.318 -19.998 -20.354  0.00  0.00    +0.227 C 
ATOM     32  H   UNL     1      35.512 -20.698 -22.091  0.00  0.00    +0.157 HD
BRANCH  31  33
ATOM     33  C   UNL     1      36.510 -21.415 -19.910  0.00  0.00    +0.077 C 
ATOM     34  C   UNL     1      35.405 -22.100 -19.159  0.00  0.00    +0.010 C 
ATOM     35  C   UNL     1      36.666 -21.706 -18.446  0.00  0.00    +0.010 C 
ENDBRANCH  31  33
ENDBRANCH  19  27
ENDBRANCH   2  19
TORSDOF 5
ENDMDL
MODEL 6
REMARK VINA RESULT:     -10.6      3.647      7.666
REMARK  Name = 24767976
REMARK  5 active torsions:
REMARK  status: ('A' for Active; 'I' for Inactive)
REMARK    1  A    between atoms: C_1  and  N_9
REMARK    2  A    between atoms: C_2  and  O_19
REMARK    3  A    between atoms: C_10  and  C_14
REMARK    4  A    between atoms: O_19  and  C_27
REMARK    5  A    between atoms: C_31  and  C_33
REMARK                            x       y       z     vdW  Elec       q    Type
REMARK                         _______ _______ _______ _____ _____    ______ ____
ROOT
ATOM      1  C   UNL     1      33.998 -15.546 -21.539  0.00  0.00    +0.050 C 
ATOM      2  C   UNL     1      32.448 -13.716 -21.254  0.00  0.00    +0.148 C 
ATOM      3  C   UNL     1      34.502 -14.942 -22.690  0.00  0.00    -0.008 C 
ATOM      4  C   UNL     1      32.971 -14.934 -20.820  0.00  0.00    +0.052 C 
ATOM      5  C   UNL     1      33.978 -13.724 -23.124  0.00  0.00    +0.000 C 
ATOM      6  C   UNL     1      32.951 -13.111 -22.406  0.00  0.00    +0.037 C 
ATOM      7  C   UNL     1      35.601 -15.576 -23.479  0.00  0.00    +0.032 C 
ENDROOT
BRANCH   1   9
ATOM      8  O   UNL     1      34.496 -18.106 -23.019  0.00  0.00    -0.268 OA
ATOM      9  N   UNL     1      34.510 -16.766 -21.087  0.00  0.00    -0.279 N 
ATOM     10  C   UNL     1      34.723 -17.936 -21.825  0.00  0.00    +0.265 C 
ATOM     11  H   UNL     1      34.750 -16.807 -20.133  0.00  0.00    +0.155 HD
BRANCH  10  14
ATOM     12  N   UNL     1      36.578 -19.343 -20.823  0.00  0.00    -0.206 N 
ATOM     13  N   UNL     1      36.798 -20.451 -20.095  0.00  0.00    -0.182 NA
ATOM     14  C   UNL     1      35.257 -19.088 -21.052  0.00  0.00    +0.124 C 
ATOM     15  C   UNL     1      34.566 -20.098 -20.430  0.00  0.00    +0.037 C 
ATOM     16  C   UNL     1      35.566 -20.908 -19.857  0.00  0.00    +0.078 C 
ATOM     17  C   UNL     1      37.704 -18.561 -21.278  0.00  0.00    +0.140 C 
ATOM     18  C   UNL     1      35.381 -22.137 -19.067  0.00  0.00    +0.054 C 
ENDBRANCH  10  14
ENDBRANCH   1   9
BRANCH   2  19
ATOM     19  O   UNL     1      31.422 -13.104 -20.538  0.00  0.00    -0.435 OA
BRANCH  19  27
ATOM     20  N   UNL     1      32.260  -7.850 -20.155  0.00  0.00    -0.373 NA
ATOM     21  N   UNL     1      31.829  -9.721 -21.290  0.00  0.00    -0.173 N 
ATOM     22  N   UNL     1      31.596 -11.037 -21.553  0.00  0.00    -0.138 NA
ATOM     23  C   UNL     1      32.125  -7.571 -21.491  0.00  0.00    +0.187 C 
ATOM     24  C   UNL     1      31.859  -8.709 -22.213  0.00  0.00    +0.193 C 
ATOM     25  C   UNL     1      32.079  -9.151 -20.052  0.00  0.00    +0.204 C 
ATOM     26  C   UNL     1      32.098 -10.017 -18.934  0.00  0.00    +0.054 C 
ATOM     27  C   UNL     1      31.628 -11.772 -20.489  0.00  0.00    +0.245 C 
ATOM     28  C   UNL     1      31.879 -11.327 -19.102  0.00  0.00    +0.063 C 
ATOM     29  O   UNL     1      31.899  -6.570 -24.321  0.00  0.00    -0.275 OA
ATOM     30  N   UNL     1      32.248  -6.300 -22.002  0.00  0.00    -0.261 N 
ATOM     31  C   UNL     1      32.134  -5.875 -23.342  0.00  0.00    +0.227 C 
ATOM     32  H   UNL     1      32.440  -5.594 -21.346  0.00  0.00    +0.157 HD
BRANCH  31  33
ATOM     33  C   UNL     1      32.325  -4.404 -23.545  0.00  0.00    +0.077 C 
ATOM     34  C   UNL     1      31.155  -3.569 -23.977  0.00  0.00    +0.010 C 
ATOM     35  C   UNL     1      32.275  -3.847 -24.937  0.00  0.00    +0.010 C 
ENDBRANCH  31  33
ENDBRANCH  19  27
ENDBRANCH   2  19
TORSDOF 5
ENDMDL
MODEL 7
REMARK VINA RESULT:     -10.6      2.678      3.051
REMARK  Name = 24767976
REMARK  5 active torsions:
REMARK  status: ('A' for Active; 'I' for Inactive)
REMARK    1  A    between atoms: C_1  and  N_9
REMARK    2  A    between atoms: C_2  and  O_19
REMARK    3  A    between atoms: C_10  and  C_14
REMARK    4  A    between atoms: O_19  and  C_27
REMARK    5  A    between atoms: C_31  and  C_33
REMARK                            x       y       z     vdW  Elec       q    Type
REMARK                         _______ _______ _______ _____ _____    ______ ____
ROOT
ATOM      1  C   UNL     1      35.018 -22.247 -18.194  0.00  0.00    +0.050 C 
ATOM      2  C   UNL     1      35.321 -21.059 -20.274  0.00  0.00    +0.148 C 
ATOM      3  C   UNL     1      33.640 -22.058 -18.285  0.00  0.00    -0.008 C 
ATOM      4  C   UNL     1      35.859 -21.748 -19.189  0.00  0.00    +0.052 C 
ATOM      5  C   UNL     1      33.101 -21.368 -19.372  0.00  0.00    +0.000 C 
ATOM      6  C   UNL     1      33.942 -20.868 -20.367  0.00  0.00    +0.037 C 
ATOM      7  C   UNL     1      32.715 -22.581 -17.234  0.00  0.00    +0.032 C 
ENDROOT
BRANCH   1   9
ATOM      8  O   UNL     1      37.018 -21.351 -16.148  0.00  0.00    -0.268 OA
ATOM      9  N   UNL     1      35.576 -22.936 -17.114  0.00  0.00    -0.279 N 
ATOM     10  C   UNL     1      36.512 -22.467 -16.185  0.00  0.00    +0.265 C 
ATOM     11  H   UNL     1      35.275 -23.866 -16.992  0.00  0.00    +0.155 HD
BRANCH  10  14
ATOM     12  N   UNL     1      36.122 -24.044 -14.239  0.00  0.00    -0.206 N 
ATOM     13  N   UNL     1      36.755 -24.901 -13.421  0.00  0.00    -0.182 NA
ATOM     14  C   UNL     1      36.939 -23.454 -15.158  0.00  0.00    +0.124 C 
ATOM     15  C   UNL     1      38.194 -23.960 -14.924  0.00  0.00    +0.037 C 
ATOM     16  C   UNL     1      38.021 -24.846 -13.844  0.00  0.00    +0.078 C 
ATOM     17  C   UNL     1      34.701 -23.834 -14.080  0.00  0.00    +0.140 C 
ATOM     18  C   UNL     1      39.050 -25.666 -13.183  0.00  0.00    +0.054 C 
ENDBRANCH  10  14
ENDBRANCH   1   9
BRANCH   2  19
ATOM     19  O   UNL     1      36.160 -20.559 -21.268  0.00  0.00    -0.435 OA
BRANCH  19  27
ATOM     20  N   UNL     1      34.750 -15.533 -22.362  0.00  0.00    -0.373 NA
ATOM     21  N   UNL     1      35.067 -17.674 -22.898  0.00  0.00    -0.173 N 
ATOM     22  N   UNL     1      35.389 -18.993 -22.779  0.00  0.00    -0.138 NA
ATOM     23  C   UNL     1      34.424 -15.743 -23.678  0.00  0.00    +0.187 C 
ATOM     24  C   UNL     1      34.612 -17.057 -24.033  0.00  0.00    +0.193 C 
ATOM     25  C   UNL     1      35.135 -16.708 -21.908  0.00  0.00    +0.204 C 
ATOM     26  C   UNL     1      35.586 -17.121 -20.632  0.00  0.00    +0.054 C 
ATOM     27  C   UNL     1      35.793 -19.303 -21.590  0.00  0.00    +0.245 C 
ATOM     28  C   UNL     1      35.924 -18.400 -20.427  0.00  0.00    +0.063 C 
ATOM     29  O   UNL     1      33.620 -15.808 -26.578  0.00  0.00    -0.275 OA
ATOM     30  N   UNL     1      33.972 -14.740 -24.502  0.00  0.00    -0.261 N 
ATOM     31  C   UNL     1      33.605 -14.815 -25.862  0.00  0.00    +0.227 C 
ATOM     32  H   UNL     1      33.895 -13.851 -24.089  0.00  0.00    +0.157 HD
BRANCH  31  33
ATOM     33  C   UNL     1      33.152 -13.517 -26.455  0.00  0.00    +0.077 C 
ATOM     34  C   UNL     1      34.180 -12.504 -26.865  0.00  0.00    +0.010 C 
ATOM     35  C   UNL     1      33.318 -12.255 -25.661  0.00  0.00    +0.010 C 
ENDBRANCH  31  33
ENDBRANCH  19  27
ENDBRANCH   2  19
TORSDOF 5
ENDMDL
