MODEL 1
REMARK VINA RESULT:     -13.2      0.000      0.000
REMARK  Name = 24941249
REMARK  6 active torsions:
REMARK  status: ('A' for Active; 'I' for Inactive)
REMARK    1  A    between atoms: N_1  and  C_13
REMARK    2  A    between atoms: N_2  and  C_26
REMARK    3  A    between atoms: C_14  and  C_19
REMARK    4  A    between atoms: C_19  and  C_20
REMARK    5  A    between atoms: C_20  and  C_23
REMARK    6  A    between atoms: C_26  and  C_28
REMARK                            x       y       z     vdW  Elec       q    Type
REMARK                         _______ _______ _______ _____ _____    ______ ____
ROOT
ATOM      1  N   UNL     1      33.230 -13.851 -23.132  0.00  0.00    -0.230 N 
ATOM      2  N   UNL     1      35.308 -17.777 -21.093  0.00  0.00    -0.316 N 
ATOM      3  N   UNL     1      33.071 -13.442 -24.402  0.00  0.00    -0.169 NA
ATOM      4  N   UNL     1      35.225 -17.400 -23.442  0.00  0.00    -0.229 NA
ATOM      5  C   UNL     1      33.888 -15.044 -23.006  0.00  0.00    +0.088 A 
ATOM      6  C   UNL     1      34.179 -15.441 -24.305  0.00  0.00    +0.052 A 
ATOM      7  C   UNL     1      33.650 -14.413 -25.113  0.00  0.00    +0.082 A 
ATOM      8  C   UNL     1      34.246 -15.794 -21.891  0.00  0.00    +0.053 C 
ATOM      9  C   UNL     1      34.917 -16.969 -22.194  0.00  0.00    +0.130 C 
ATOM     10  C   UNL     1      34.860 -16.642 -24.505  0.00  0.00    +0.103 C 
ATOM     11  C   UNL     1      33.677 -14.319 -26.583  0.00  0.00    +0.054 C 
ATOM     12  H   UNL     1      35.090 -17.472 -20.183  0.00  0.00    +0.148 HD
ENDROOT
BRANCH   1  13
ATOM     13  C   UNL     1      32.735 -13.067 -22.089  0.00  0.00    +0.082 C 
ATOM     14  C   UNL     1      31.901 -10.950 -21.277  0.00  0.00    -0.020 C 
ATOM     15  C   UNL     1      32.396 -11.734 -22.320  0.00  0.00    +0.015 C 
ATOM     16  C   UNL     1      32.579 -13.617 -20.817  0.00  0.00    +0.019 C 
ATOM     17  C   UNL     1      31.745 -11.499 -20.005  0.00  0.00    -0.004 C 
ATOM     18  C   UNL     1      32.084 -12.833 -19.774  0.00  0.00    +0.001 C 
BRANCH  14  19
ATOM     19  C   UNL     1      31.540  -9.524 -21.522  0.00  0.00    +0.036 C 
BRANCH  19  20
ATOM     20  C   UNL     1      32.769  -8.655 -21.811  0.00  0.00    +0.089 C 
BRANCH  20  23
ATOM     21  O   UNL     1      32.671  -6.280 -21.327  0.00  0.00    -0.275 OA
ATOM     22  N   UNL     1      33.124  -7.744 -19.612  0.00  0.00    -0.329 N 
ATOM     23  C   UNL     1      32.842  -7.426 -20.924  0.00  0.00    +0.220 C 
ATOM     24  H   UNL     1      33.198  -7.030 -18.939  0.00  0.00    +0.145 HD
ATOM     25  H   UNL     1      33.252  -8.684 -19.351  0.00  0.00    +0.145 HD
ENDBRANCH  20  23
ENDBRANCH  19  20
ENDBRANCH  14  19
ENDBRANCH   1  13
BRANCH   2  26
ATOM     26  C   UNL     1      36.002 -19.010 -21.256  0.00  0.00    +0.093 C 
ATOM     27  C   UNL     1      37.470 -18.820 -20.875  0.00  0.00    +0.026 C 
BRANCH  26  28
ATOM     28  C   UNL     1      35.322 -20.102 -20.459  0.00  0.00    -0.005 C 
ATOM     29  C   UNL     1      36.087 -21.040 -19.766  0.00  0.00    -0.003 C 
ATOM     30  C   UNL     1      33.930 -20.170 -20.416  0.00  0.00    -0.003 C 
ATOM     31  C   UNL     1      35.460 -22.047 -19.032  0.00  0.00    -0.000 C 
ATOM     32  C   UNL     1      33.302 -21.176 -19.682  0.00  0.00    -0.000 C 
ATOM     33  C   UNL     1      34.068 -22.115 -18.989  0.00  0.00    -0.000 C 
ENDBRANCH  26  28
ENDBRANCH   2  26
TORSDOF 6
ENDMDL
MODEL 2
REMARK VINA RESULT:     -11.8      8.026     13.346
REMARK  Name = 24941249
REMARK  6 active torsions:
REMARK  status: ('A' for Active; 'I' for Inactive)
REMARK    1  A    between atoms: N_1  and  C_13
REMARK    2  A    between atoms: N_2  and  C_26
REMARK    3  A    between atoms: C_14  and  C_19
REMARK    4  A    between atoms: C_19  and  C_20
REMARK    5  A    between atoms: C_20  and  C_23
REMARK    6  A    between atoms: C_26  and  C_28
REMARK                            x       y       z     vdW  Elec       q    Type
REMARK                         _______ _______ _______ _____ _____    ______ ____
ROOT
ATOM      1  N   UNL     1      34.046 -24.258 -13.405  0.00  0.00    -0.230 N 
ATOM      2  N   UNL     1      34.745 -22.430 -17.883  0.00  0.00    -0.316 N 
ATOM      3  N   UNL     1      32.957 -24.665 -12.730  0.00  0.00    -0.169 NA
ATOM      4  N   UNL     1      32.610 -23.044 -17.029  0.00  0.00    -0.229 NA
ATOM      5  C   UNL     1      33.784 -23.804 -14.668  0.00  0.00    +0.088 A 
ATOM      6  C   UNL     1      32.409 -23.926 -14.825  0.00  0.00    +0.052 A 
ATOM      7  C   UNL     1      31.963 -24.461 -13.598  0.00  0.00    +0.082 A 
ATOM      8  C   UNL     1      34.614 -23.306 -15.666  0.00  0.00    +0.053 C 
ATOM      9  C   UNL     1      33.947 -22.945 -16.827  0.00  0.00    +0.130 C 
ATOM     10  C   UNL     1      31.832 -23.534 -16.032  0.00  0.00    +0.103 C 
ATOM     11  C   UNL     1      30.581 -24.795 -13.211  0.00  0.00    +0.054 C 
ATOM     12  H   UNL     1      35.716 -22.352 -17.746  0.00  0.00    +0.148 HD
ENDROOT
BRANCH   1  13
ATOM     13  C   UNL     1      35.299 -24.329 -12.796  0.00  0.00    +0.082 C 
ATOM     14  C   UNL     1      37.499 -25.317 -12.643  0.00  0.00    -0.020 C 
ATOM     15  C   UNL     1      36.245 -25.247 -13.252  0.00  0.00    +0.015 C 
ATOM     16  C   UNL     1      35.606 -23.481 -11.732  0.00  0.00    +0.019 C 
ATOM     17  C   UNL     1      37.806 -24.470 -11.579  0.00  0.00    -0.004 C 
ATOM     18  C   UNL     1      36.860 -23.551 -11.123  0.00  0.00    +0.001 C 
BRANCH  14  19
ATOM     19  C   UNL     1      38.510 -26.299 -13.129  0.00  0.00    +0.036 C 
BRANCH  19  20
ATOM     20  C   UNL     1      39.853 -25.636 -13.456  0.00  0.00    +0.089 C 
BRANCH  20  23
ATOM     21  O   UNL     1      40.774 -26.197 -15.630  0.00  0.00    -0.275 OA
ATOM     22  N   UNL     1      39.396 -24.364 -15.447  0.00  0.00    -0.329 N 
ATOM     23  C   UNL     1      40.073 -25.456 -14.946  0.00  0.00    +0.220 C 
ATOM     24  H   UNL     1      39.461 -24.143 -16.404  0.00  0.00    +0.145 HD
ATOM     25  H   UNL     1      38.850 -23.807 -14.848  0.00  0.00    +0.145 HD
ENDBRANCH  20  23
ENDBRANCH  19  20
ENDBRANCH  14  19
ENDBRANCH   1  13
BRANCH   2  26
ATOM     26  C   UNL     1      34.194 -22.021 -19.131  0.00  0.00    +0.093 C 
ATOM     27  C   UNL     1      32.769 -21.512 -18.916  0.00  0.00    +0.026 C 
BRANCH  26  28
ATOM     28  C   UNL     1      35.093 -20.997 -19.790  0.00  0.00    -0.005 C 
ATOM     29  C   UNL     1      36.461 -20.992 -19.516  0.00  0.00    -0.003 C 
ATOM     30  C   UNL     1      34.555 -20.060 -20.671  0.00  0.00    -0.003 C 
ATOM     31  C   UNL     1      37.290 -20.048 -20.122  0.00  0.00    -0.000 C 
ATOM     32  C   UNL     1      35.384 -19.116 -21.277  0.00  0.00    -0.000 C 
ATOM     33  C   UNL     1      36.752 -19.111 -21.003  0.00  0.00    -0.000 C 
ENDBRANCH  26  28
ENDBRANCH   2  26
TORSDOF 6
ENDMDL
MODEL 3
REMARK VINA RESULT:     -10.6      9.367     11.908
REMARK  Name = 24941249
REMARK  6 active torsions:
REMARK  status: ('A' for Active; 'I' for Inactive)
REMARK    1  A    between atoms: N_1  and  C_13
REMARK    2  A    between atoms: N_2  and  C_26
REMARK    3  A    between atoms: C_14  and  C_19
REMARK    4  A    between atoms: C_19  and  C_20
REMARK    5  A    between atoms: C_20  and  C_23
REMARK    6  A    between atoms: C_26  and  C_28
REMARK                            x       y       z     vdW  Elec       q    Type
REMARK                         _______ _______ _______ _____ _____    ______ ____
ROOT
ATOM      1  N   UNL     1      32.251 -23.223 -16.337  0.00  0.00    -0.230 N 
ATOM      2  N   UNL     1      35.574 -23.644 -12.779  0.00  0.00    -0.316 N 
ATOM      3  N   UNL     1      32.318 -22.853 -17.628  0.00  0.00    -0.169 NA
ATOM      4  N   UNL     1      36.095 -22.940 -14.992  0.00  0.00    -0.229 NA
ATOM      5  C   UNL     1      33.453 -23.199 -15.685  0.00  0.00    +0.088 A 
ATOM      6  C   UNL     1      34.377 -22.778 -16.634  0.00  0.00    +0.052 A 
ATOM      7  C   UNL     1      33.614 -22.583 -17.804  0.00  0.00    +0.082 A 
ATOM      8  C   UNL     1      33.805 -23.503 -14.375  0.00  0.00    +0.053 C 
ATOM      9  C   UNL     1      35.156 -23.347 -14.104  0.00  0.00    +0.130 C 
ATOM     10  C   UNL     1      35.715 -22.653 -16.261  0.00  0.00    +0.103 C 
ATOM     11  C   UNL     1      34.089 -22.135 -19.125  0.00  0.00    +0.054 C 
ATOM     12  H   UNL     1      34.900 -23.939 -12.126  0.00  0.00    +0.148 HD
ENDROOT
BRANCH   1  13
ATOM     13  C   UNL     1      31.021 -23.587 -15.789  0.00  0.00    +0.082 C 
ATOM     14  C   UNL     1      28.643 -23.225 -15.559  0.00  0.00    -0.020 C 
ATOM     15  C   UNL     1      29.873 -22.861 -16.108  0.00  0.00    +0.015 C 
ATOM     16  C   UNL     1      30.939 -24.677 -14.922  0.00  0.00    +0.019 C 
ATOM     17  C   UNL     1      28.561 -24.315 -14.692  0.00  0.00    -0.004 C 
ATOM     18  C   UNL     1      29.709 -25.041 -14.374  0.00  0.00    +0.001 C 
BRANCH  14  19
ATOM     19  C   UNL     1      27.416 -22.449 -15.898  0.00  0.00    +0.036 C 
BRANCH  19  20
ATOM     20  C   UNL     1      26.986 -22.651 -17.356  0.00  0.00    +0.089 C 
BRANCH  20  23
ATOM     21  O   UNL     1      26.276 -20.332 -17.418  0.00  0.00    -0.275 OA
ATOM     22  N   UNL     1      25.577 -21.752 -19.086  0.00  0.00    -0.329 N 
ATOM     23  C   UNL     1      26.260 -21.448 -17.928  0.00  0.00    +0.220 C 
ATOM     24  H   UNL     1      25.066 -21.052 -19.553  0.00  0.00    +0.145 HD
ATOM     25  H   UNL     1      25.601 -22.668 -19.446  0.00  0.00    +0.145 HD
ENDBRANCH  20  23
ENDBRANCH  19  20
ENDBRANCH  14  19
ENDBRANCH   1  13
BRANCH   2  26
ATOM     26  C   UNL     1      36.931 -23.530 -12.359  0.00  0.00    +0.093 C 
ATOM     27  C   UNL     1      36.988 -23.491 -10.833  0.00  0.00    +0.026 C 
BRANCH  26  28
ATOM     28  C   UNL     1      37.757 -24.650 -12.953  0.00  0.00    -0.005 C 
ATOM     29  C   UNL     1      37.156 -25.869 -13.270  0.00  0.00    -0.003 C 
ATOM     30  C   UNL     1      39.120 -24.464 -13.185  0.00  0.00    -0.003 C 
ATOM     31  C   UNL     1      37.918 -26.901 -13.817  0.00  0.00    -0.000 C 
ATOM     32  C   UNL     1      39.882 -25.497 -13.732  0.00  0.00    -0.000 C 
ATOM     33  C   UNL     1      39.280 -26.715 -14.049  0.00  0.00    -0.000 C 
ENDBRANCH  26  28
ENDBRANCH   2  26
TORSDOF 6
ENDMDL
MODEL 4
REMARK VINA RESULT:     -10.4      5.892     10.464
REMARK  Name = 24941249
REMARK  6 active torsions:
REMARK  status: ('A' for Active; 'I' for Inactive)
REMARK    1  A    between atoms: N_1  and  C_13
REMARK    2  A    between atoms: N_2  and  C_26
REMARK    3  A    between atoms: C_14  and  C_19
REMARK    4  A    between atoms: C_19  and  C_20
REMARK    5  A    between atoms: C_20  and  C_23
REMARK    6  A    between atoms: C_26  and  C_28
REMARK                            x       y       z     vdW  Elec       q    Type
REMARK                         _______ _______ _______ _____ _____    ______ ____
ROOT
ATOM      1  N   UNL     1      33.531 -22.397 -17.603  0.00  0.00    -0.230 N 
ATOM      2  N   UNL     1      36.474 -24.849 -14.569  0.00  0.00    -0.316 N 
ATOM      3  N   UNL     1      32.201 -22.206 -17.651  0.00  0.00    -0.169 NA
ATOM      4  N   UNL     1      34.110 -24.747 -14.315  0.00  0.00    -0.229 NA
ATOM      5  C   UNL     1      33.948 -23.172 -16.556  0.00  0.00    +0.088 A 
ATOM      6  C   UNL     1      32.790 -23.513 -15.868  0.00  0.00    +0.052 A 
ATOM      7  C   UNL     1      31.754 -22.888 -16.593  0.00  0.00    +0.082 A 
ATOM      8  C   UNL     1      35.212 -23.596 -16.160  0.00  0.00    +0.053 C 
ATOM      9  C   UNL     1      35.210 -24.386 -15.021  0.00  0.00    +0.130 C 
ATOM     10  C   UNL     1      32.894 -24.314 -14.731  0.00  0.00    +0.103 C 
ATOM     11  C   UNL     1      30.310 -22.916 -16.305  0.00  0.00    +0.054 C 
ATOM     12  H   UNL     1      37.279 -24.594 -15.075  0.00  0.00    +0.148 HD
ENDROOT
BRANCH   1  13
ATOM     13  C   UNL     1      34.345 -21.816 -18.576  0.00  0.00    +0.082 C 
ATOM     14  C   UNL     1      34.593 -20.446 -20.551  0.00  0.00    -0.020 C 
ATOM     15  C   UNL     1      33.779 -21.026 -19.577  0.00  0.00    +0.015 C 
ATOM     16  C   UNL     1      35.724 -22.024 -18.547  0.00  0.00    +0.019 C 
ATOM     17  C   UNL     1      35.972 -20.654 -20.521  0.00  0.00    -0.004 C 
ATOM     18  C   UNL     1      36.538 -21.443 -19.519  0.00  0.00    +0.001 C 
BRANCH  14  19
ATOM     19  C   UNL     1      33.989 -19.603 -21.622  0.00  0.00    +0.036 C 
BRANCH  19  20
ATOM     20  C   UNL     1      35.051 -18.877 -22.457  0.00  0.00    +0.089 C 
BRANCH  20  23
ATOM     21  O   UNL     1      35.200 -17.100 -20.811  0.00  0.00    -0.275 OA
ATOM     22  N   UNL     1      35.672 -16.619 -23.011  0.00  0.00    -0.329 N 
ATOM     23  C   UNL     1      35.307 -17.460 -21.980  0.00  0.00    +0.220 C 
ATOM     24  H   UNL     1      35.865 -15.672 -22.827  0.00  0.00    +0.145 HD
ATOM     25  H   UNL     1      35.739 -16.967 -23.929  0.00  0.00    +0.145 HD
ENDBRANCH  20  23
ENDBRANCH  19  20
ENDBRANCH  14  19
ENDBRANCH   1  13
BRANCH   2  26
ATOM     26  C   UNL     1      36.623 -25.667 -13.412  0.00  0.00    +0.093 C 
ATOM     27  C   UNL     1      37.881 -26.523 -13.554  0.00  0.00    +0.026 C 
BRANCH  26  28
ATOM     28  C   UNL     1      36.628 -24.812 -12.164  0.00  0.00    -0.005 C 
ATOM     29  C   UNL     1      37.446 -23.684 -12.094  0.00  0.00    -0.003 C 
ATOM     30  C   UNL     1      35.815 -25.151 -11.083  0.00  0.00    -0.003 C 
ATOM     31  C   UNL     1      37.451 -22.896 -10.944  0.00  0.00    -0.000 C 
ATOM     32  C   UNL     1      35.820 -24.363  -9.932  0.00  0.00    -0.000 C 
ATOM     33  C   UNL     1      36.638 -23.235  -9.863  0.00  0.00    -0.000 C 
ENDBRANCH  26  28
ENDBRANCH   2  26
TORSDOF 6
ENDMDL
