MODEL 1
REMARK VINA RESULT:     -12.2      0.000      0.000
REMARK  Name = 11974440
REMARK  4 active torsions:
REMARK  status: ('A' for Active; 'I' for Inactive)
REMARK    1  A    between atoms: C_1  and  C_25
REMARK    2  A    between atoms: C_2  and  N_31
REMARK    3  A    between atoms: C_5  and  C_12
REMARK    4  A    between atoms: C_17  and  C_21
REMARK                            x       y       z     vdW  Elec       q    Type
REMARK                         _______ _______ _______ _____ _____    ______ ____
ROOT
ATOM      1  C   UNL     1      34.640 -19.863 -20.195  0.00  0.00    +0.009 C 
ATOM      2  C   UNL     1      35.735 -20.942 -19.995  0.00  0.00    -0.057 C 
ATOM      3  C   UNL     1      35.538 -21.668 -18.648  0.00  0.00    +0.009 C 
ATOM      4  C   UNL     1      33.233 -20.503 -20.150  0.00  0.00    +0.028 C 
ATOM      5  C   UNL     1      34.109 -22.040 -18.393  0.00  0.00    +0.025 C 
ATOM      6  C   UNL     1      33.071 -21.531 -19.069  0.00  0.00    -0.026 C 
ENDROOT
BRANCH   5  12
ATOM      7  O   UNL     1      32.821 -23.748 -17.487  0.00  0.00    -0.270 OA
ATOM      8  N   UNL     1      34.702 -23.124 -16.272  0.00  0.00    -0.267 N 
ATOM      9  N   UNL     1      36.947 -24.236 -15.123  0.00  0.00    -0.292 N 
ATOM     10  N   UNL     1      35.908 -25.809 -14.026  0.00  0.00    -0.132 NA
ATOM     11  N   UNL     1      37.272 -25.990 -13.880  0.00  0.00    -0.125 NA
ATOM     12  C   UNL     1      33.820 -23.041 -17.345  0.00  0.00    +0.245 C 
ATOM     13  C   UNL     1      35.863 -22.245 -16.030  0.00  0.00    +0.119 C 
ATOM     14  C   UNL     1      34.449 -24.119 -15.218  0.00  0.00    +0.160 C 
ATOM     15  C   UNL     1      37.141 -23.079 -15.970  0.00  0.00    +0.130 C 
ATOM     16  C   UNL     1      35.724 -24.747 -14.783  0.00  0.00    +0.164 A 
ATOM     17  C   UNL     1      37.878 -25.034 -14.548  0.00  0.00    +0.238 A 
BRANCH  17  21
ATOM     18  F   UNL     1      39.987 -25.842 -15.338  0.00  0.00    -0.163 F 
ATOM     19  F   UNL     1      39.678 -23.696 -15.378  0.00  0.00    -0.163 F 
ATOM     20  F   UNL     1      39.979 -24.713 -13.480  0.00  0.00    -0.163 F 
ATOM     21  C   UNL     1      39.331 -24.829 -14.684  0.00  0.00    +0.452 C 
ENDBRANCH  17  21
ENDBRANCH   5  12
BRANCH   1  25
ATOM     22  F   UNL     1      35.371 -17.121 -20.195  0.00  0.00    -0.204 F 
ATOM     23  F   UNL     1      34.527 -19.464 -25.064  0.00  0.00    -0.202 F 
ATOM     24  F   UNL     1      35.237 -16.829 -24.916  0.00  0.00    -0.202 F 
ATOM     25  C   UNL     1      34.803 -19.043 -21.466  0.00  0.00    +0.006 C 
ATOM     26  C   UNL     1      35.165 -17.702 -21.385  0.00  0.00    +0.138 C 
ATOM     27  C   UNL     1      34.587 -19.643 -22.703  0.00  0.00    +0.030 C 
ATOM     28  C   UNL     1      34.735 -18.894 -23.870  0.00  0.00    +0.167 C 
ATOM     29  C   UNL     1      35.313 -16.953 -22.552  0.00  0.00    +0.061 C 
ATOM     30  C   UNL     1      35.098 -17.549 -23.795  0.00  0.00    +0.170 C 
ENDBRANCH   1  25
BRANCH   2  31
ATOM     31  N   UNL     1      37.079 -20.358 -20.038  0.00  0.00    +0.382 N 
ATOM     32  H   UNL     1      37.189 -19.704 -19.263  0.00  0.00    -0.089 HD
ATOM     33  H   UNL     1      37.206 -19.864 -20.920  0.00  0.00    -0.089 HD
ATOM     34  H   UNL     1      37.775 -21.100 -19.958  0.00  0.00    -0.089 HD
ENDBRANCH   2  31
TORSDOF 4
ENDMDL
MODEL 2
REMARK VINA RESULT:     -12.1      3.885     10.005
REMARK  Name = 11974440
REMARK  4 active torsions:
REMARK  status: ('A' for Active; 'I' for Inactive)
REMARK    1  A    between atoms: C_1  and  C_25
REMARK    2  A    between atoms: C_2  and  N_31
REMARK    3  A    between atoms: C_5  and  C_12
REMARK    4  A    between atoms: C_17  and  C_21
REMARK                            x       y       z     vdW  Elec       q    Type
REMARK                         _______ _______ _______ _____ _____    ______ ____
ROOT
ATOM      1  C   UNL     1      34.751 -21.815 -19.086  0.00  0.00    +0.009 C 
ATOM      2  C   UNL     1      36.033 -20.967 -19.288  0.00  0.00    -0.057 C 
ATOM      3  C   UNL     1      36.144 -20.495 -20.753  0.00  0.00    +0.009 C 
ATOM      4  C   UNL     1      33.494 -20.996 -19.465  0.00  0.00    +0.028 C 
ATOM      5  C   UNL     1      34.847 -19.974 -21.294  0.00  0.00    +0.025 C 
ATOM      6  C   UNL     1      33.656 -20.185 -20.717  0.00  0.00    -0.026 C 
ENDROOT
BRANCH   5  12
ATOM      7  O   UNL     1      34.750 -19.754 -23.605  0.00  0.00    -0.270 OA
ATOM      8  N   UNL     1      35.033 -17.788 -22.396  0.00  0.00    -0.267 N 
ATOM      9  N   UNL     1      33.913 -15.285 -22.130  0.00  0.00    -0.292 N 
ATOM     10  N   UNL     1      33.907 -14.792 -24.256  0.00  0.00    -0.132 NA
ATOM     11  N   UNL     1      33.257 -13.786 -23.563  0.00  0.00    -0.125 NA
ATOM     12  C   UNL     1      34.876 -19.165 -22.530  0.00  0.00    +0.245 C 
ATOM     13  C   UNL     1      35.262 -17.059 -21.133  0.00  0.00    +0.119 C 
ATOM     14  C   UNL     1      35.053 -16.953 -23.607  0.00  0.00    +0.160 C 
ATOM     15  C   UNL     1      34.149 -16.036 -20.917  0.00  0.00    +0.130 C 
ATOM     16  C   UNL     1      34.296 -15.694 -23.378  0.00  0.00    +0.164 A 
ATOM     17  C   UNL     1      33.271 -14.102 -22.287  0.00  0.00    +0.238 A 
BRANCH  17  21
ATOM     18  F   UNL     1      31.714 -13.998 -20.473  0.00  0.00    -0.163 F 
ATOM     19  F   UNL     1      33.596 -12.950 -20.216  0.00  0.00    -0.163 F 
ATOM     20  F   UNL     1      32.093 -12.163 -21.575  0.00  0.00    -0.163 F 
ATOM     21  C   UNL     1      32.689 -13.332 -21.174  0.00  0.00    +0.452 C 
ENDBRANCH  17  21
ENDBRANCH   5  12
BRANCH   1  25
ATOM     22  F   UNL     1      32.284 -22.756 -18.046  0.00  0.00    -0.204 F 
ATOM     23  F   UNL     1      36.643 -23.059 -14.756  0.00  0.00    -0.202 F 
ATOM     24  F   UNL     1      34.203 -23.932 -13.883  0.00  0.00    -0.202 F 
ATOM     25  C   UNL     1      34.601 -22.387 -17.684  0.00  0.00    +0.006 C 
ATOM     26  C   UNL     1      33.357 -22.829 -17.246  0.00  0.00    +0.138 C 
ATOM     27  C   UNL     1      35.712 -22.462 -16.850  0.00  0.00    +0.030 C 
ATOM     28  C   UNL     1      35.577 -22.985 -15.564  0.00  0.00    +0.167 C 
ATOM     29  C   UNL     1      33.222 -23.353 -15.960  0.00  0.00    +0.061 C 
ATOM     30  C   UNL     1      34.333 -23.431 -15.119  0.00  0.00    +0.170 C 
ENDBRANCH   1  25
BRANCH   2  31
ATOM     31  N   UNL     1      37.237 -21.722 -18.931  0.00  0.00    +0.382 N 
ATOM     32  H   UNL     1      37.462 -22.377 -19.680  0.00  0.00    -0.089 HD
ATOM     33  H   UNL     1      37.071 -22.237 -18.067  0.00  0.00    -0.089 HD
ATOM     34  H   UNL     1      38.017 -21.077 -18.799  0.00  0.00    -0.089 HD
ENDBRANCH   2  31
TORSDOF 4
ENDMDL
MODEL 3
REMARK VINA RESULT:     -11.9      3.684      9.972
REMARK  Name = 11974440
REMARK  4 active torsions:
REMARK  status: ('A' for Active; 'I' for Inactive)
REMARK    1  A    between atoms: C_1  and  C_25
REMARK    2  A    between atoms: C_2  and  N_31
REMARK    3  A    between atoms: C_5  and  C_12
REMARK    4  A    between atoms: C_17  and  C_21
REMARK                            x       y       z     vdW  Elec       q    Type
REMARK                         _______ _______ _______ _____ _____    ______ ____
ROOT
ATOM      1  C   UNL     1      35.145 -21.284 -18.431  0.00  0.00    +0.009 C 
ATOM      2  C   UNL     1      33.914 -21.579 -19.327  0.00  0.00    -0.057 C 
ATOM      3  C   UNL     1      33.780 -20.509 -20.430  0.00  0.00    +0.009 C 
ATOM      4  C   UNL     1      36.437 -21.247 -19.280  0.00  0.00    +0.028 C 
ATOM      5  C   UNL     1      35.087 -20.189 -21.090  0.00  0.00    +0.025 C 
ATOM      6  C   UNL     1      36.282 -20.526 -20.587  0.00  0.00    -0.026 C 
ENDROOT
BRANCH   5  12
ATOM      7  O   UNL     1      34.887 -20.138 -23.404  0.00  0.00    -0.270 OA
ATOM      8  N   UNL     1      35.235 -18.092 -22.357  0.00  0.00    -0.267 N 
ATOM      9  N   UNL     1      34.141 -15.566 -22.229  0.00  0.00    -0.292 N 
ATOM     10  N   UNL     1      34.043 -15.231 -24.382  0.00  0.00    -0.132 NA
ATOM     11  N   UNL     1      33.430 -14.171 -23.738  0.00  0.00    -0.125 NA
ATOM     12  C   UNL     1      35.065 -19.473 -22.382  0.00  0.00    +0.245 C 
ATOM     13  C   UNL     1      35.525 -17.273 -21.164  0.00  0.00    +0.119 C 
ATOM     14  C   UNL     1      35.206 -17.348 -23.627  0.00  0.00    +0.160 C 
ATOM     15  C   UNL     1      34.428 -16.227 -20.975  0.00  0.00    +0.130 C 
ATOM     16  C   UNL     1      34.467 -16.069 -23.459  0.00  0.00    +0.164 A 
ATOM     17  C   UNL     1      33.500 -14.392 -22.444  0.00  0.00    +0.238 A 
BRANCH  17  21
ATOM     18  F   UNL     1      32.524 -12.309 -21.787  0.00  0.00    -0.163 F 
ATOM     19  F   UNL     1      31.906 -14.075 -20.690  0.00  0.00    -0.163 F 
ATOM     20  F   UNL     1      33.898 -13.256 -20.393  0.00  0.00    -0.163 F 
ATOM     21  C   UNL     1      32.972 -13.537 -21.367  0.00  0.00    +0.452 C 
ENDBRANCH  17  21
ENDBRANCH   5  12
BRANCH   1  25
ATOM     22  F   UNL     1      37.608 -21.688 -17.082  0.00  0.00    -0.204 F 
ATOM     23  F   UNL     1      33.312 -24.580 -15.324  0.00  0.00    -0.202 F 
ATOM     24  F   UNL     1      35.746 -24.869 -14.115  0.00  0.00    -0.202 F 
ATOM     25  C   UNL     1      35.309 -22.249 -17.267  0.00  0.00    +0.006 C 
ATOM     26  C   UNL     1      36.550 -22.392 -16.655  0.00  0.00    +0.138 C 
ATOM     27  C   UNL     1      34.214 -22.983 -16.823  0.00  0.00    +0.030 C 
ATOM     28  C   UNL     1      34.362 -23.869 -15.756  0.00  0.00    +0.167 C 
ATOM     29  C   UNL     1      36.698 -23.277 -15.588  0.00  0.00    +0.061 C 
ATOM     30  C   UNL     1      35.604 -24.016 -15.138  0.00  0.00    +0.170 C 
ENDBRANCH   1  25
BRANCH   2  31
ATOM     31  N   UNL     1      32.677 -21.622 -18.542  0.00  0.00    +0.382 N 
ATOM     32  H   UNL     1      32.635 -22.500 -18.023  0.00  0.00    -0.089 HD
ATOM     33  H   UNL     1      31.875 -21.558 -19.167  0.00  0.00    -0.089 HD
ATOM     34  H   UNL     1      32.663 -20.840 -17.887  0.00  0.00    -0.089 HD
ENDBRANCH   2  31
TORSDOF 4
ENDMDL
MODEL 4
REMARK VINA RESULT:     -11.8      3.801      4.753
REMARK  Name = 11974440
REMARK  4 active torsions:
REMARK  status: ('A' for Active; 'I' for Inactive)
REMARK    1  A    between atoms: C_1  and  C_25
REMARK    2  A    between atoms: C_2  and  N_31
REMARK    3  A    between atoms: C_5  and  C_12
REMARK    4  A    between atoms: C_17  and  C_21
REMARK                            x       y       z     vdW  Elec       q    Type
REMARK                         _______ _______ _______ _____ _____    ______ ____
ROOT
ATOM      1  C   UNL     1      35.255 -20.125 -21.087  0.00  0.00    +0.009 C 
ATOM      2  C   UNL     1      34.065 -20.197 -20.096  0.00  0.00    -0.057 C 
ATOM      3  C   UNL     1      34.235 -21.390 -19.133  0.00  0.00    +0.009 C 
ATOM      4  C   UNL     1      36.592 -19.989 -20.321  0.00  0.00    +0.028 C 
ATOM      5  C   UNL     1      35.628 -21.505 -18.591  0.00  0.00    +0.025 C 
ATOM      6  C   UNL     1      36.688 -20.871 -19.111  0.00  0.00    -0.026 C 
ENDROOT
BRANCH   5  12
ATOM      7  O   UNL     1      36.932 -22.248 -16.817  0.00  0.00    -0.270 OA
ATOM      8  N   UNL     1      34.822 -23.205 -17.015  0.00  0.00    -0.267 N 
ATOM      9  N   UNL     1      32.557 -23.666 -15.515  0.00  0.00    -0.292 N 
ATOM     10  N   UNL     1      33.571 -24.576 -13.812  0.00  0.00    -0.132 NA
ATOM     11  N   UNL     1      32.229 -24.431 -13.507  0.00  0.00    -0.125 NA
ATOM     12  C   UNL     1      35.852 -22.352 -17.402  0.00  0.00    +0.245 C 
ATOM     13  C   UNL     1      33.549 -23.412 -17.732  0.00  0.00    +0.119 C 
ATOM     14  C   UNL     1      35.009 -24.054 -15.827  0.00  0.00    +0.160 C 
ATOM     15  C   UNL     1      32.377 -23.062 -16.817  0.00  0.00    +0.130 C 
ATOM     16  C   UNL     1      33.757 -24.107 -15.028  0.00  0.00    +0.164 A 
ATOM     17  C   UNL     1      31.638 -23.882 -14.544  0.00  0.00    +0.238 A 
BRANCH  17  21
ATOM     18  F   UNL     1      29.922 -22.225 -14.361  0.00  0.00    -0.163 F 
ATOM     19  F   UNL     1      29.699 -23.702 -15.933  0.00  0.00    -0.163 F 
ATOM     20  F   UNL     1      29.394 -24.273 -13.858  0.00  0.00    -0.163 F 
ATOM     21  C   UNL     1      30.213 -23.530 -14.671  0.00  0.00    +0.452 C 
ENDBRANCH  17  21
ENDBRANCH   5  12
BRANCH   1  25
ATOM     22  F   UNL     1      34.911 -20.628 -23.859  0.00  0.00    -0.204 F 
ATOM     23  F   UNL     1      35.130 -15.392 -22.294  0.00  0.00    -0.202 F 
ATOM     24  F   UNL     1      34.800 -16.021 -24.934  0.00  0.00    -0.202 F 
ATOM     25  C   UNL     1      35.131 -19.021 -22.126  0.00  0.00    +0.006 C 
ATOM     26  C   UNL     1      34.964 -19.347 -23.468  0.00  0.00    +0.138 C 
ATOM     27  C   UNL     1      35.188 -17.690 -21.724  0.00  0.00    +0.030 C 
ATOM     28  C   UNL     1      35.075 -16.675 -22.674  0.00  0.00    +0.167 C 
ATOM     29  C   UNL     1      34.851 -18.332 -24.418  0.00  0.00    +0.061 C 
ATOM     30  C   UNL     1      34.906 -16.996 -24.021  0.00  0.00    +0.170 C 
ENDBRANCH   1  25
BRANCH   2  31
ATOM     31  N   UNL     1      32.786 -20.323 -20.801  0.00  0.00    +0.382 N 
ATOM     32  H   UNL     1      32.744 -21.230 -21.267  0.00  0.00    -0.089 HD
ATOM     33  H   UNL     1      32.707 -19.581 -21.495  0.00  0.00    -0.089 HD
ATOM     34  H   UNL     1      32.020 -20.249 -20.132  0.00  0.00    -0.089 HD
ENDBRANCH   2  31
TORSDOF 4
ENDMDL
MODEL 5
REMARK VINA RESULT:     -11.5      0.716      1.650
REMARK  Name = 11974440
REMARK  4 active torsions:
REMARK  status: ('A' for Active; 'I' for Inactive)
REMARK    1  A    between atoms: C_1  and  C_25
REMARK    2  A    between atoms: C_2  and  N_31
REMARK    3  A    between atoms: C_5  and  C_12
REMARK    4  A    between atoms: C_17  and  C_21
REMARK                            x       y       z     vdW  Elec       q    Type
REMARK                         _______ _______ _______ _____ _____    ______ ____
ROOT
ATOM      1  C   UNL     1      34.685 -19.727 -20.165  0.00  0.00    +0.009 C 
ATOM      2  C   UNL     1      35.768 -20.828 -20.029  0.00  0.00    -0.057 C 
ATOM      3  C   UNL     1      35.559 -21.635 -18.732  0.00  0.00    +0.009 C 
ATOM      4  C   UNL     1      33.271 -20.354 -20.164  0.00  0.00    +0.028 C 
ATOM      5  C   UNL     1      34.125 -22.008 -18.504  0.00  0.00    +0.025 C 
ATOM      6  C   UNL     1      33.094 -21.446 -19.150  0.00  0.00    -0.026 C 
ENDROOT
BRANCH   5  12
ATOM      7  O   UNL     1      32.859 -23.803 -17.750  0.00  0.00    -0.270 OA
ATOM      8  N   UNL     1      34.652 -23.175 -16.410  0.00  0.00    -0.267 N 
ATOM      9  N   UNL     1      36.877 -24.264 -15.203  0.00  0.00    -0.292 N 
ATOM     10  N   UNL     1      35.844 -25.925 -14.238  0.00  0.00    -0.132 NA
ATOM     11  N   UNL     1      37.206 -26.065 -14.030  0.00  0.00    -0.125 NA
ATOM     12  C   UNL     1      33.822 -23.069 -17.522  0.00  0.00    +0.245 C 
ATOM     13  C   UNL     1      35.766 -22.268 -16.067  0.00  0.00    +0.119 C 
ATOM     14  C   UNL     1      34.384 -24.230 -15.420  0.00  0.00    +0.160 C 
ATOM     15  C   UNL     1      37.069 -23.060 -15.982  0.00  0.00    +0.130 C 
ATOM     16  C   UNL     1      35.659 -24.834 -14.951  0.00  0.00    +0.164 A 
ATOM     17  C   UNL     1      37.808 -25.056 -14.619  0.00  0.00    +0.238 A 
BRANCH  17  21
ATOM     18  F   UNL     1      39.603 -23.665 -15.372  0.00  0.00    -0.163 F 
ATOM     19  F   UNL     1      39.844 -24.622 -13.441  0.00  0.00    -0.163 F 
ATOM     20  F   UNL     1      39.972 -25.805 -15.261  0.00  0.00    -0.163 F 
ATOM     21  C   UNL     1      39.257 -24.793 -14.671  0.00  0.00    +0.452 C 
ENDBRANCH  17  21
ENDBRANCH   5  12
BRANCH   1  25
ATOM     22  F   UNL     1      34.894 -20.722 -22.813  0.00  0.00    -0.204 F 
ATOM     23  F   UNL     1      35.154 -15.297 -22.174  0.00  0.00    -0.202 F 
ATOM     24  F   UNL     1      35.341 -16.393 -24.671  0.00  0.00    -0.202 F 
ATOM     25  C   UNL     1      34.860 -18.830 -21.381  0.00  0.00    +0.006 C 
ATOM     26  C   UNL     1      34.955 -19.394 -22.649  0.00  0.00    +0.138 C 
ATOM     27  C   UNL     1      34.927 -17.450 -21.214  0.00  0.00    +0.030 C 
ATOM     28  C   UNL     1      35.088 -16.626 -22.328  0.00  0.00    +0.167 C 
ATOM     29  C   UNL     1      35.117 -18.569 -23.763  0.00  0.00    +0.061 C 
ATOM     30  C   UNL     1      35.183 -17.185 -23.602  0.00  0.00    +0.170 C 
ENDBRANCH   1  25
BRANCH   2  31
ATOM     31  N   UNL     1      37.117 -20.256 -20.031  0.00  0.00    +0.382 N 
ATOM     32  H   UNL     1      37.062 -19.256 -19.836  0.00  0.00    -0.089 HD
ATOM     33  H   UNL     1      37.546 -20.400 -20.944  0.00  0.00    -0.089 HD
ATOM     34  H   UNL     1      37.681 -20.711 -19.313  0.00  0.00    -0.089 HD
ENDBRANCH   2  31
TORSDOF 4
ENDMDL
MODEL 6
REMARK VINA RESULT:     -11.2      3.673      4.505
REMARK  Name = 11974440
REMARK  4 active torsions:
REMARK  status: ('A' for Active; 'I' for Inactive)
REMARK    1  A    between atoms: C_1  and  C_25
REMARK    2  A    between atoms: C_2  and  N_31
REMARK    3  A    between atoms: C_5  and  C_12
REMARK    4  A    between atoms: C_17  and  C_21
REMARK                            x       y       z     vdW  Elec       q    Type
REMARK                         _______ _______ _______ _____ _____    ______ ____
ROOT
ATOM      1  C   UNL     1      35.272 -20.440 -20.748  0.00  0.00    +0.009 C 
ATOM      2  C   UNL     1      34.077 -20.456 -19.759  0.00  0.00    -0.057 C 
ATOM      3  C   UNL     1      34.226 -21.613 -18.751  0.00  0.00    +0.009 C 
ATOM      4  C   UNL     1      36.608 -20.294 -19.981  0.00  0.00    +0.028 C 
ATOM      5  C   UNL     1      35.615 -21.728 -18.199  0.00  0.00    +0.025 C 
ATOM      6  C   UNL     1      36.686 -21.131 -18.738  0.00  0.00    -0.026 C 
ENDROOT
BRANCH   5  12
ATOM      7  O   UNL     1      36.879 -22.384 -16.364  0.00  0.00    -0.270 OA
ATOM      8  N   UNL     1      34.801 -23.399 -16.596  0.00  0.00    -0.267 N 
ATOM      9  N   UNL     1      32.500 -23.870 -15.153  0.00  0.00    -0.292 N 
ATOM     10  N   UNL     1      33.482 -24.702 -13.392  0.00  0.00    -0.132 NA
ATOM     11  N   UNL     1      32.128 -24.581 -13.132  0.00  0.00    -0.125 NA
ATOM     12  C   UNL     1      35.821 -22.533 -16.978  0.00  0.00    +0.245 C 
ATOM     13  C   UNL     1      33.555 -23.660 -17.345  0.00  0.00    +0.119 C 
ATOM     14  C   UNL     1      34.970 -24.206 -15.377  0.00  0.00    +0.160 C 
ATOM     15  C   UNL     1      32.347 -23.311 -16.478  0.00  0.00    +0.130 C 
ATOM     16  C   UNL     1      33.695 -24.266 -14.616  0.00  0.00    +0.164 A 
ATOM     17  C   UNL     1      31.557 -24.078 -14.204  0.00  0.00    +0.238 A 
BRANCH  17  21
ATOM     18  F   UNL     1      29.812 -22.442 -14.214  0.00  0.00    -0.163 F 
ATOM     19  F   UNL     1      29.637 -24.073 -15.631  0.00  0.00    -0.163 F 
ATOM     20  F   UNL     1      29.309 -24.438 -13.513  0.00  0.00    -0.163 F 
ATOM     21  C   UNL     1      30.128 -23.767 -14.386  0.00  0.00    +0.452 C 
ENDBRANCH  17  21
ENDBRANCH   5  12
BRANCH   1  25
ATOM     22  F   UNL     1      35.731 -17.682 -20.262  0.00  0.00    -0.204 F 
ATOM     23  F   UNL     1      34.411 -19.115 -25.372  0.00  0.00    -0.202 F 
ATOM     24  F   UNL     1      34.881 -16.493 -24.762  0.00  0.00    -0.202 F 
ATOM     25  C   UNL     1      35.169 -19.374 -21.828  0.00  0.00    +0.006 C 
ATOM     26  C   UNL     1      35.409 -18.041 -21.513  0.00  0.00    +0.138 C 
ATOM     27  C   UNL     1      34.832 -19.742 -23.127  0.00  0.00    +0.030 C 
ATOM     28  C   UNL     1      34.736 -18.768 -24.120  0.00  0.00    +0.167 C 
ATOM     29  C   UNL     1      35.313 -17.066 -22.505  0.00  0.00    +0.061 C 
ATOM     30  C   UNL     1      34.976 -17.429 -23.809  0.00  0.00    +0.170 C 
ENDBRANCH   1  25
BRANCH   2  31
ATOM     31  N   UNL     1      32.800 -20.589 -20.465  0.00  0.00    +0.382 N 
ATOM     32  H   UNL     1      32.974 -20.851 -21.436  0.00  0.00    -0.089 HD
ATOM     33  H   UNL     1      32.302 -19.700 -20.437  0.00  0.00    -0.089 HD
ATOM     34  H   UNL     1      32.236 -21.311 -20.015  0.00  0.00    -0.089 HD
ENDBRANCH   2  31
TORSDOF 4
ENDMDL
MODEL 7
REMARK VINA RESULT:     -11.1      1.629      2.142
REMARK  Name = 11974440
REMARK  4 active torsions:
REMARK  status: ('A' for Active; 'I' for Inactive)
REMARK    1  A    between atoms: C_1  and  C_25
REMARK    2  A    between atoms: C_2  and  N_31
REMARK    3  A    between atoms: C_5  and  C_12
REMARK    4  A    between atoms: C_17  and  C_21
REMARK                            x       y       z     vdW  Elec       q    Type
REMARK                         _______ _______ _______ _____ _____    ______ ____
ROOT
ATOM      1  C   UNL     1      35.220 -21.419 -19.631  0.00  0.00    +0.009 C 
ATOM      2  C   UNL     1      33.820 -21.336 -18.969  0.00  0.00    -0.057 C 
ATOM      3  C   UNL     1      33.622 -22.500 -17.977  0.00  0.00    +0.009 C 
ATOM      4  C   UNL     1      36.332 -21.383 -18.556  0.00  0.00    +0.028 C 
ATOM      5  C   UNL     1      34.817 -22.728 -17.102  0.00  0.00    +0.025 C 
ATOM      6  C   UNL     1      36.033 -22.222 -17.349  0.00  0.00    -0.026 C 
ENDROOT
BRANCH   5  12
ATOM      7  O   UNL     1      33.573 -24.123 -15.723  0.00  0.00    -0.270 OA
ATOM      8  N   UNL     1      35.725 -23.618 -15.002  0.00  0.00    -0.267 N 
ATOM      9  N   UNL     1      38.028 -24.878 -14.164  0.00  0.00    -0.292 N 
ATOM     10  N   UNL     1      37.080 -26.150 -12.667  0.00  0.00    -0.132 NA
ATOM     11  N   UNL     1      38.417 -26.496 -12.764  0.00  0.00    -0.125 NA
ATOM     12  C   UNL     1      34.650 -23.546 -15.883  0.00  0.00    +0.245 C 
ATOM     13  C   UNL     1      36.999 -22.882 -15.123  0.00  0.00    +0.119 C 
ATOM     14  C   UNL     1      35.594 -24.434 -13.785  0.00  0.00    +0.160 C 
ATOM     15  C   UNL     1      38.162 -23.869 -15.192  0.00  0.00    +0.130 C 
ATOM     16  C   UNL     1      36.857 -25.172 -13.520  0.00  0.00    +0.164 A 
ATOM     17  C   UNL     1      38.968 -25.719 -13.670  0.00  0.00    +0.238 A 
BRANCH  17  21
ATOM     18  F   UNL     1      41.118 -26.767 -13.609  0.00  0.00    -0.163 F 
ATOM     19  F   UNL     1      40.532 -25.833 -15.476  0.00  0.00    -0.163 F 
ATOM     20  F   UNL     1      41.064 -24.599 -13.767  0.00  0.00    -0.163 F 
ATOM     21  C   UNL     1      40.372 -25.731 -14.116  0.00  0.00    +0.452 C 
ENDBRANCH  17  21
ENDBRANCH   5  12
BRANCH   1  25
ATOM     22  F   UNL     1      37.404 -19.611 -19.519  0.00  0.00    -0.204 F 
ATOM     23  F   UNL     1      33.999 -19.128 -23.771  0.00  0.00    -0.202 F 
ATOM     24  F   UNL     1      36.146 -17.453 -23.537  0.00  0.00    -0.202 F 
ATOM     25  C   UNL     1      35.473 -20.350 -20.684  0.00  0.00    +0.006 C 
ATOM     26  C   UNL     1      36.567 -19.500 -20.559  0.00  0.00    +0.138 C 
ATOM     27  C   UNL     1      34.604 -20.230 -21.764  0.00  0.00    +0.030 C 
ATOM     28  C   UNL     1      34.832 -19.250 -22.729  0.00  0.00    +0.167 C 
ATOM     29  C   UNL     1      36.796 -18.520 -21.525  0.00  0.00    +0.061 C 
ATOM     30  C   UNL     1      35.928 -18.396 -22.611  0.00  0.00    +0.170 C 
ENDBRANCH   1  25
BRANCH   2  31
ATOM     31  N   UNL     1      32.750 -21.364 -19.970  0.00  0.00    +0.382 N 
ATOM     32  H   UNL     1      31.856 -21.178 -19.516  0.00  0.00    -0.089 HD
ATOM     33  H   UNL     1      32.723 -22.282 -20.411  0.00  0.00    -0.089 HD
ATOM     34  H   UNL     1      32.928 -20.651 -20.677  0.00  0.00    -0.089 HD
ENDBRANCH   2  31
TORSDOF 4
ENDMDL
MODEL 8
REMARK VINA RESULT:     -10.9     10.254     15.973
REMARK  Name = 11974440
REMARK  4 active torsions:
REMARK  status: ('A' for Active; 'I' for Inactive)
REMARK    1  A    between atoms: C_1  and  C_25
REMARK    2  A    between atoms: C_2  and  N_31
REMARK    3  A    between atoms: C_5  and  C_12
REMARK    4  A    between atoms: C_17  and  C_21
REMARK                            x       y       z     vdW  Elec       q    Type
REMARK                         _______ _______ _______ _____ _____    ______ ____
ROOT
ATOM      1  C   UNL     1      32.972 -12.326 -23.180  0.00  0.00    +0.009 C 
ATOM      2  C   UNL     1      34.008 -11.173 -23.224  0.00  0.00    -0.057 C 
ATOM      3  C   UNL     1      33.314  -9.814 -23.004  0.00  0.00    +0.009 C 
ATOM      4  C   UNL     1      32.228 -12.335 -21.823  0.00  0.00    +0.028 C 
ATOM      5  C   UNL     1      32.321  -9.843 -21.881  0.00  0.00    +0.025 C 
ATOM      6  C   UNL     1      31.838 -10.969 -21.339  0.00  0.00    -0.026 C 
ENDROOT
BRANCH   5  12
ATOM      7  O   UNL     1      31.906  -8.413 -20.099  0.00  0.00    -0.270 OA
ATOM      8  N   UNL     1      31.398  -7.594 -22.215  0.00  0.00    -0.267 N 
ATOM      9  N   UNL     1      31.908  -5.412 -23.820  0.00  0.00    -0.292 N 
ATOM     10  N   UNL     1      31.376  -3.894 -22.346  0.00  0.00    -0.132 NA
ATOM     11  N   UNL     1      31.886  -3.266 -23.470  0.00  0.00    -0.125 NA
ATOM     12  C   UNL     1      31.855  -8.559 -21.321  0.00  0.00    +0.245 C 
ATOM     13  C   UNL     1      31.252  -7.760 -23.674  0.00  0.00    +0.119 C 
ATOM     14  C   UNL     1      30.938  -6.298 -21.689  0.00  0.00    +0.160 C 
ATOM     15  C   UNL     1      32.105  -6.722 -24.401  0.00  0.00    +0.130 C 
ATOM     16  C   UNL     1      31.397  -5.192 -22.570  0.00  0.00    +0.164 A 
ATOM     17  C   UNL     1      32.200  -4.198 -24.343  0.00  0.00    +0.238 A 
BRANCH  17  21
ATOM     18  F   UNL     1      33.926  -3.236 -25.692  0.00  0.00    -0.163 F 
ATOM     19  F   UNL     1      33.149  -5.162 -26.315  0.00  0.00    -0.163 F 
ATOM     20  F   UNL     1      31.937  -3.374 -26.558  0.00  0.00    -0.163 F 
ATOM     21  C   UNL     1      32.786  -4.000 -25.680  0.00  0.00    +0.452 C 
ENDBRANCH  17  21
ENDBRANCH   5  12
BRANCH   1  25
ATOM     22  F   UNL     1      32.891 -13.555 -25.736  0.00  0.00    -0.204 F 
ATOM     23  F   UNL     1      35.304 -16.361 -21.710  0.00  0.00    -0.202 F 
ATOM     24  F   UNL     1      35.155 -17.425 -24.224  0.00  0.00    -0.202 F 
ATOM     25  C   UNL     1      33.561 -13.700 -23.464  0.00  0.00    +0.006 C 
ATOM     26  C   UNL     1      33.482 -14.236 -24.745  0.00  0.00    +0.138 C 
ATOM     27  C   UNL     1      34.173 -14.411 -22.437  0.00  0.00    +0.030 C 
ATOM     28  C   UNL     1      34.713 -15.671 -22.694  0.00  0.00    +0.167 C 
ATOM     29  C   UNL     1      34.022 -15.496 -25.003  0.00  0.00    +0.061 C 
ATOM     30  C   UNL     1      34.638 -16.213 -23.977  0.00  0.00    +0.170 C 
ENDBRANCH   1  25
BRANCH   2  31
ATOM     31  N   UNL     1      34.728 -11.148 -24.500  0.00  0.00    +0.382 N 
ATOM     32  H   UNL     1      35.612 -10.651 -24.382  0.00  0.00    -0.089 HD
ATOM     33  H   UNL     1      34.162 -10.672 -25.201  0.00  0.00    -0.089 HD
ATOM     34  H   UNL     1      34.915 -12.104 -24.804  0.00  0.00    -0.089 HD
ENDBRANCH   2  31
TORSDOF 4
ENDMDL
MODEL 9
REMARK VINA RESULT:     -10.8     10.114     15.819
REMARK  Name = 11974440
REMARK  4 active torsions:
REMARK  status: ('A' for Active; 'I' for Inactive)
REMARK    1  A    between atoms: C_1  and  C_25
REMARK    2  A    between atoms: C_2  and  N_31
REMARK    3  A    between atoms: C_5  and  C_12
REMARK    4  A    between atoms: C_17  and  C_21
REMARK                            x       y       z     vdW  Elec       q    Type
REMARK                         _______ _______ _______ _____ _____    ______ ____
ROOT
ATOM      1  C   UNL     1      33.491 -12.404 -22.477  0.00  0.00    +0.009 C 
ATOM      2  C   UNL     1      32.061 -12.399 -21.878  0.00  0.00    -0.057 C 
ATOM      3  C   UNL     1      31.823 -11.115 -21.057  0.00  0.00    +0.009 C 
ATOM      4  C   UNL     1      33.707 -11.164 -23.376  0.00  0.00    +0.028 C 
ATOM      5  C   UNL     1      32.313  -9.882 -21.753  0.00  0.00    +0.025 C 
ATOM      6  C   UNL     1      33.149  -9.895 -22.801  0.00  0.00    -0.026 C 
ENDROOT
BRANCH   5  12
ATOM      7  O   UNL     1      31.842  -8.366 -20.058  0.00  0.00    -0.270 OA
ATOM      8  N   UNL     1      31.429  -7.642 -22.228  0.00  0.00    -0.267 N 
ATOM      9  N   UNL     1      32.026  -5.542 -23.910  0.00  0.00    -0.292 N 
ATOM     10  N   UNL     1      31.451  -3.953 -22.531  0.00  0.00    -0.132 NA
ATOM     11  N   UNL     1      32.013  -3.382 -23.661  0.00  0.00    -0.125 NA
ATOM     12  C   UNL     1      31.838  -8.568 -21.273  0.00  0.00    +0.245 C 
ATOM     13  C   UNL     1      31.339  -7.875 -23.683  0.00  0.00    +0.119 C 
ATOM     14  C   UNL     1      30.962  -6.319 -21.782  0.00  0.00    +0.160 C 
ATOM     15  C   UNL     1      32.232  -6.880 -24.422  0.00  0.00    +0.130 C 
ATOM     16  C   UNL     1      31.467  -5.259 -22.693  0.00  0.00    +0.164 A 
ATOM     17  C   UNL     1      32.352  -4.356 -24.476  0.00  0.00    +0.238 A 
BRANCH  17  21
ATOM     18  F   UNL     1      34.259  -3.698 -25.761  0.00  0.00    -0.163 F 
ATOM     19  F   UNL     1      33.138  -5.412 -26.473  0.00  0.00    -0.163 F 
ATOM     20  F   UNL     1      32.300  -3.415 -26.660  0.00  0.00    -0.163 F 
ATOM     21  C   UNL     1      32.993  -4.226 -25.796  0.00  0.00    +0.452 C 
ENDBRANCH  17  21
ENDBRANCH   5  12
BRANCH   1  25
ATOM     22  F   UNL     1      34.988 -14.536 -21.352  0.00  0.00    -0.204 F 
ATOM     23  F   UNL     1      33.332 -15.129 -26.530  0.00  0.00    -0.202 F 
ATOM     24  F   UNL     1      34.781 -17.105 -25.320  0.00  0.00    -0.202 F 
ATOM     25  C   UNL     1      33.839 -13.673 -23.240  0.00  0.00    +0.006 C 
ATOM     26  C   UNL     1      34.577 -14.675 -22.620  0.00  0.00    +0.138 C 
ATOM     27  C   UNL     1      33.417 -13.820 -24.558  0.00  0.00    +0.030 C 
ATOM     28  C   UNL     1      33.735 -14.982 -25.261  0.00  0.00    +0.167 C 
ATOM     29  C   UNL     1      34.895 -15.837 -23.322  0.00  0.00    +0.061 C 
ATOM     30  C   UNL     1      34.473 -15.990 -24.643  0.00  0.00    +0.170 C 
ENDBRANCH   1  25
BRANCH   2  31
ATOM     31  N   UNL     1      31.833 -13.569 -21.024  0.00  0.00    +0.382 N 
ATOM     32  H   UNL     1      31.563 -14.364 -21.603  0.00  0.00    -0.089 HD
ATOM     33  H   UNL     1      31.089 -13.364 -20.359  0.00  0.00    -0.089 HD
ATOM     34  H   UNL     1      32.691 -13.793 -20.518  0.00  0.00    -0.089 HD
ENDBRANCH   2  31
TORSDOF 4
ENDMDL
