MODEL 1
REMARK VINA RESULT:     -11.2      0.000      0.000
REMARK  Name = 445018
REMARK  7 active torsions:
REMARK  status: ('A' for Active; 'I' for Inactive)
REMARK    1  A    between atoms: N_2  and  S_14
REMARK    2  A    between atoms: N_3  and  C_25
REMARK    3  A    between atoms: C_4  and  C_10
REMARK    4  A    between atoms: N_9  and  O_12
REMARK    5  A    between atoms: S_14  and  C_17
REMARK    6  A    between atoms: C_22  and  O_23
REMARK    7  A    between atoms: C_25  and  C_26
REMARK                            x       y       z     vdW  Elec       q    Type
REMARK                         _______ _______ _______ _____ _____    ______ ____
ROOT
ATOM      1  O   UNL     1      36.321 -22.668 -16.951  0.00  0.00    -0.275 OA
ATOM      2  N   UNL     1      33.213 -23.956 -14.624  0.00  0.00    -0.128 NA
ATOM      3  N   UNL     1      34.064 -23.225 -16.785  0.00  0.00    -0.260 N 
ATOM      4  C   UNL     1      34.482 -23.529 -13.979  0.00  0.00    +0.168 C 
ATOM      5  C   UNL     1      32.908 -23.270 -15.902  0.00  0.00    +0.192 C 
ATOM      6  C   UNL     1      35.277 -22.520 -14.799  0.00  0.00    +0.112 C 
ATOM      7  C   UNL     1      35.298 -22.822 -16.286  0.00  0.00    +0.229 C 
ENDROOT
BRANCH   4  10
ATOM      8  O   UNL     1      35.498 -25.548 -14.723  0.00  0.00    -0.272 OA
ATOM      9  N   UNL     1      35.650 -24.986 -12.486  0.00  0.00    -0.196 N 
ATOM     10  C   UNL     1      35.256 -24.793 -13.784  0.00  0.00    +0.261 C 
ATOM     11  H   UNL     1      35.428 -24.348 -11.771  0.00  0.00    +0.182 HD
BRANCH   9  12
ATOM     12  O   UNL     1      36.391 -26.150 -12.241  0.00  0.00    -0.295 OA
ATOM     13  H   UNL     1      35.792 -26.909 -12.180  0.00  0.00    +0.241 HD
ENDBRANCH   9  12
ENDBRANCH   4  10
BRANCH   2  14
ATOM     14  S   UNL     1      31.884 -24.264 -13.595  0.00  0.00    +0.065 S 
ATOM     15  O   UNL     1      31.827 -23.240 -12.572  0.00  0.00    -0.153 OA
ATOM     16  O   UNL     1      31.871 -25.668 -13.243  0.00  0.00    -0.153 OA
BRANCH  14  17
ATOM     17  C   UNL     1      30.549 -23.976 -14.716  0.00  0.00    +0.122 C 
ATOM     18  C   UNL     1      30.118 -22.679 -14.938  0.00  0.00    +0.023 C 
ATOM     19  C   UNL     1      29.957 -25.053 -15.355  0.00  0.00    +0.023 C 
ATOM     20  C   UNL     1      29.064 -22.451 -15.822  0.00  0.00    +0.038 C 
ATOM     21  C   UNL     1      28.902 -24.826 -16.241  0.00  0.00    +0.038 C 
ATOM     22  C   UNL     1      28.456 -23.525 -16.474  0.00  0.00    +0.139 C 
BRANCH  22  23
ATOM     23  O   UNL     1      27.428 -23.303 -17.338  0.00  0.00    -0.471 OA
ATOM     24  C   UNL     1      26.777 -22.036 -17.260  0.00  0.00    +0.252 C 
ENDBRANCH  22  23
ENDBRANCH  14  17
ENDBRANCH   2  14
BRANCH   3  25
ATOM     25  C   UNL     1      33.858 -23.477 -18.201  0.00  0.00    +0.121 C 
BRANCH  25  26
ATOM     26  C   UNL     1      33.985 -22.223 -19.018  0.00  0.00    -0.002 C 
ATOM     27  C   UNL     1      32.860 -21.445 -19.263  0.00  0.00    -0.003 C 
ATOM     28  C   UNL     1      35.226 -21.853 -19.523  0.00  0.00    -0.003 C 
ATOM     29  C   UNL     1      32.977 -20.281 -20.022  0.00  0.00    -0.000 C 
ATOM     30  C   UNL     1      35.344 -20.689 -20.282  0.00  0.00    -0.000 C 
ATOM     31  C   UNL     1      34.219 -19.903 -20.532  0.00  0.00    -0.000 C 
ENDBRANCH  25  26
ENDBRANCH   3  25
TORSDOF 7
ENDMDL
