MODEL 1
REMARK VINA RESULT:     -11.4      0.000      0.000
REMARK  Name = 100472
REMARK  3 active torsions:
REMARK  status: ('A' for Active; 'I' for Inactive)
REMARK    1  A    between atoms: C_1  and  C_13
REMARK    2  A    between atoms: C_2  and  C_7
REMARK    3  A    between atoms: C_13  and  C_16
REMARK                            x       y       z     vdW  Elec       q    Type
REMARK                         _______ _______ _______ _____ _____    ______ ____
ROOT
ATOM      1  C   UNL     1      34.969 -20.259 -20.819  0.00  0.00    -0.013 C 
ATOM      2  C   UNL     1      34.201 -21.759 -18.596  0.00  0.00    -0.000 C 
ATOM      3  C   UNL     1      33.621 -20.353 -20.473  0.00  0.00    -0.004 C 
ATOM      4  C   UNL     1      35.933 -20.915 -20.053  0.00  0.00    -0.004 C 
ATOM      5  C   UNL     1      33.237 -21.103 -19.362  0.00  0.00    -0.000 C 
ATOM      6  C   UNL     1      35.549 -21.665 -18.942  0.00  0.00    -0.000 C 
ENDROOT
BRANCH   2   7
ATOM      7  C   UNL     1      33.802 -22.538 -17.443  0.00  0.00    -0.000 C 
ATOM      8  C   UNL     1      32.450 -22.734 -17.167  0.00  0.00    -0.000 C 
ATOM      9  C   UNL     1      34.772 -23.093 -16.609  0.00  0.00    -0.000 C 
ATOM     10  C   UNL     1      32.066 -23.485 -16.057  0.00  0.00    +0.000 C 
ATOM     11  C   UNL     1      34.389 -23.845 -15.498  0.00  0.00    +0.000 C 
ATOM     12  C   UNL     1      33.035 -24.040 -15.222  0.00  0.00    +0.000 C 
ENDBRANCH   2   7
BRANCH   1  13
ATOM     13  C   UNL     1      35.380 -19.456 -22.008  0.00  0.00    +0.112 C 
BRANCH  13  16
ATOM     14  O   UNL     1      35.471 -17.394 -20.762  0.00  0.00    -0.274 OA
ATOM     15  N   UNL     1      34.753 -17.356 -22.998  0.00  0.00    -0.269 N 
ATOM     16  C   UNL     1      35.214 -17.950 -21.826  0.00  0.00    +0.232 C 
ATOM     17  H   UNL     1      34.599 -17.959 -23.761  0.00  0.00    +0.156 HD
ATOM     18  N   UNL     1      34.038 -15.621 -24.437  0.00  0.00    -0.229 NA
ATOM     19  C   UNL     1      34.479 -15.985 -23.221  0.00  0.00    +0.134 C 
ATOM     20  C   UNL     1      34.693 -15.127 -22.162  0.00  0.00    +0.034 C 
ATOM     21  C   UNL     1      34.428 -13.779 -22.371  0.00  0.00    +0.004 C 
ATOM     22  C   UNL     1      33.970 -13.350 -23.612  0.00  0.00    +0.021 C 
ATOM     23  C   UNL     1      33.793 -14.302 -24.603  0.00  0.00    +0.100 C 
ENDBRANCH  13  16
ENDBRANCH   1  13
TORSDOF 3
ENDMDL
MODEL 2
REMARK VINA RESULT:     -11.4      2.443      8.476
REMARK  Name = 100472
REMARK  3 active torsions:
REMARK  status: ('A' for Active; 'I' for Inactive)
REMARK    1  A    between atoms: C_1  and  C_13
REMARK    2  A    between atoms: C_2  and  C_7
REMARK    3  A    between atoms: C_13  and  C_16
REMARK                            x       y       z     vdW  Elec       q    Type
REMARK                         _______ _______ _______ _____ _____    ______ ____
ROOT
ATOM      1  C   UNL     1      34.613 -16.175 -22.791  0.00  0.00    -0.013 C 
ATOM      2  C   UNL     1      33.271 -13.971 -21.728  0.00  0.00    -0.000 C 
ATOM      3  C   UNL     1      33.991 -15.260 -23.641  0.00  0.00    -0.004 C 
ATOM      4  C   UNL     1      34.564 -15.987 -21.409  0.00  0.00    -0.004 C 
ATOM      5  C   UNL     1      33.320 -14.158 -23.110  0.00  0.00    -0.000 C 
ATOM      6  C   UNL     1      33.893 -14.886 -20.878  0.00  0.00    -0.000 C 
ENDROOT
BRANCH   2   7
ATOM      7  C   UNL     1      32.574 -12.829 -21.177  0.00  0.00    -0.000 C 
ATOM      8  C   UNL     1      32.234 -12.806 -19.825  0.00  0.00    -0.000 C 
ATOM      9  C   UNL     1      32.244 -11.752 -21.998  0.00  0.00    -0.000 C 
ATOM     10  C   UNL     1      31.563 -11.704 -19.293  0.00  0.00    +0.000 C 
ATOM     11  C   UNL     1      31.573 -10.650 -21.467  0.00  0.00    +0.000 C 
ATOM     12  C   UNL     1      31.233 -10.627 -20.114  0.00  0.00    +0.000 C 
ENDBRANCH   2   7
BRANCH   1  13
ATOM     13  C   UNL     1      35.331 -17.352 -23.359  0.00  0.00    +0.112 C 
BRANCH  13  16
ATOM     14  O   UNL     1      36.901 -18.634 -22.054  0.00  0.00    -0.274 OA
ATOM     15  N   UNL     1      34.599 -18.995 -21.761  0.00  0.00    -0.269 N 
ATOM     16  C   UNL     1      35.726 -18.398 -22.319  0.00  0.00    +0.232 C 
ATOM     17  H   UNL     1      33.728 -18.680 -22.096  0.00  0.00    +0.156 HD
ATOM     18  N   UNL     1      33.353 -20.443 -20.367  0.00  0.00    -0.229 NA
ATOM     19  C   UNL     1      34.558 -20.003 -20.768  0.00  0.00    +0.134 C 
ATOM     20  C   UNL     1      35.770 -20.453 -20.288  0.00  0.00    +0.034 C 
ATOM     21  C   UNL     1      35.741 -21.442 -19.312  0.00  0.00    +0.004 C 
ATOM     22  C   UNL     1      34.520 -21.932 -18.862  0.00  0.00    +0.021 C 
ATOM     23  C   UNL     1      33.365 -21.404 -19.416  0.00  0.00    +0.100 C 
ENDBRANCH  13  16
ENDBRANCH   1  13
TORSDOF 3
ENDMDL
MODEL 3
REMARK VINA RESULT:     -11.4      0.814      1.727
REMARK  Name = 100472
REMARK  3 active torsions:
REMARK  status: ('A' for Active; 'I' for Inactive)
REMARK    1  A    between atoms: C_1  and  C_13
REMARK    2  A    between atoms: C_2  and  C_7
REMARK    3  A    between atoms: C_13  and  C_16
REMARK                            x       y       z     vdW  Elec       q    Type
REMARK                         _______ _______ _______ _____ _____    ______ ____
ROOT
ATOM      1  C   UNL     1      35.469 -19.962 -21.121  0.00  0.00    -0.013 C 
ATOM      2  C   UNL     1      34.565 -21.471 -18.955  0.00  0.00    -0.000 C 
ATOM      3  C   UNL     1      36.385 -20.594 -20.279  0.00  0.00    -0.004 C 
ATOM      4  C   UNL     1      34.101 -20.085 -20.879  0.00  0.00    -0.004 C 
ATOM      5  C   UNL     1      35.933 -21.348 -19.197  0.00  0.00    -0.000 C 
ATOM      6  C   UNL     1      33.649 -20.840 -19.797  0.00  0.00    -0.000 C 
ENDROOT
BRANCH   2   7
ATOM      7  C   UNL     1      34.095 -22.254 -17.832  0.00  0.00    -0.000 C 
ATOM      8  C   UNL     1      35.008 -22.783 -16.921  0.00  0.00    -0.000 C 
ATOM      9  C   UNL     1      32.729 -22.477 -17.662  0.00  0.00    -0.000 C 
ATOM     10  C   UNL     1      34.555 -23.537 -15.838  0.00  0.00    +0.000 C 
ATOM     11  C   UNL     1      32.276 -23.231 -16.578  0.00  0.00    +0.000 C 
ATOM     12  C   UNL     1      33.190 -23.760 -15.667  0.00  0.00    +0.000 C 
ENDBRANCH   2   7
BRANCH   1  13
ATOM     13  C   UNL     1      35.953 -19.156 -22.278  0.00  0.00    +0.112 C 
BRANCH  13  16
ATOM     14  O   UNL     1      35.054 -17.100 -21.397  0.00  0.00    -0.274 OA
ATOM     15  N   UNL     1      35.063 -17.447 -23.719  0.00  0.00    -0.269 N 
ATOM     16  C   UNL     1      35.304 -17.779 -22.388  0.00  0.00    +0.232 C 
ATOM     17  H   UNL     1      35.330 -18.117 -24.390  0.00  0.00    +0.156 HD
ATOM     18  N   UNL     1      34.336 -16.142 -25.553  0.00  0.00    -0.229 NA
ATOM     19  C   UNL     1      34.478 -16.260 -24.221  0.00  0.00    +0.134 C 
ATOM     20  C   UNL     1      34.101 -15.311 -23.294  0.00  0.00    +0.034 C 
ATOM     21  C   UNL     1      33.527 -14.141 -23.776  0.00  0.00    +0.004 C 
ATOM     22  C   UNL     1      33.357 -13.969 -25.145  0.00  0.00    +0.021 C 
ATOM     23  C   UNL     1      33.775 -14.990 -25.984  0.00  0.00    +0.100 C 
ENDBRANCH  13  16
ENDBRANCH   1  13
TORSDOF 3
ENDMDL
MODEL 4
REMARK VINA RESULT:     -11.2      4.238      9.481
REMARK  Name = 100472
REMARK  3 active torsions:
REMARK  status: ('A' for Active; 'I' for Inactive)
REMARK    1  A    between atoms: C_1  and  C_13
REMARK    2  A    between atoms: C_2  and  C_7
REMARK    3  A    between atoms: C_13  and  C_16
REMARK                            x       y       z     vdW  Elec       q    Type
REMARK                         _______ _______ _______ _____ _____    ______ ____
ROOT
ATOM      1  C   UNL     1      34.146 -22.301 -18.299  0.00  0.00    -0.013 C 
ATOM      2  C   UNL     1      34.573 -20.411 -20.307  0.00  0.00    -0.000 C 
ATOM      3  C   UNL     1      33.064 -21.619 -18.858  0.00  0.00    -0.004 C 
ATOM      4  C   UNL     1      35.441 -22.037 -18.745  0.00  0.00    -0.004 C 
ATOM      5  C   UNL     1      33.278 -20.675 -19.861  0.00  0.00    -0.000 C 
ATOM      6  C   UNL     1      35.655 -21.093 -19.749  0.00  0.00    -0.000 C 
ENDROOT
BRANCH   2   7
ATOM      7  C   UNL     1      34.795 -19.431 -21.348  0.00  0.00    -0.000 C 
ATOM      8  C   UNL     1      34.677 -19.797 -22.688  0.00  0.00    -0.000 C 
ATOM      9  C   UNL     1      35.126 -18.119 -21.010  0.00  0.00    -0.000 C 
ATOM     10  C   UNL     1      34.890 -18.852 -23.691  0.00  0.00    +0.000 C 
ATOM     11  C   UNL     1      35.339 -17.173 -22.013  0.00  0.00    +0.000 C 
ATOM     12  C   UNL     1      35.221 -17.540 -23.354  0.00  0.00    +0.000 C 
ENDBRANCH   2   7
BRANCH   1  13
ATOM     13  C   UNL     1      33.918 -23.311 -17.226  0.00  0.00    +0.112 C 
BRANCH  13  16
ATOM     14  O   UNL     1      35.354 -22.214 -15.631  0.00  0.00    -0.274 OA
ATOM     15  N   UNL     1      35.343 -24.559 -15.744  0.00  0.00    -0.269 N 
ATOM     16  C   UNL     1      34.955 -23.272 -16.107  0.00  0.00    +0.232 C 
ATOM     17  H   UNL     1      34.917 -25.298 -16.236  0.00  0.00    +0.156 HD
ATOM     18  N   UNL     1      36.510 -26.241 -14.558  0.00  0.00    -0.229 NA
ATOM     19  C   UNL     1      36.280 -24.929 -14.749  0.00  0.00    +0.134 C 
ATOM     20  C   UNL     1      36.883 -23.906 -14.050  0.00  0.00    +0.034 C 
ATOM     21  C   UNL     1      37.804 -24.259 -13.071  0.00  0.00    +0.004 C 
ATOM     22  C   UNL     1      38.078 -25.602 -12.833  0.00  0.00    +0.021 C 
ATOM     23  C   UNL     1      37.410 -26.545 -13.597  0.00  0.00    +0.100 C 
ENDBRANCH  13  16
ENDBRANCH   1  13
TORSDOF 3
ENDMDL
MODEL 5
REMARK VINA RESULT:     -11.1      3.591      8.457
REMARK  Name = 100472
REMARK  3 active torsions:
REMARK  status: ('A' for Active; 'I' for Inactive)
REMARK    1  A    between atoms: C_1  and  C_13
REMARK    2  A    between atoms: C_2  and  C_7
REMARK    3  A    between atoms: C_13  and  C_16
REMARK                            x       y       z     vdW  Elec       q    Type
REMARK                         _______ _______ _______ _____ _____    ______ ____
ROOT
ATOM      1  C   UNL     1      34.476 -22.107 -19.090  0.00  0.00    -0.013 C 
ATOM      2  C   UNL     1      34.713 -19.840 -20.699  0.00  0.00    -0.000 C 
ATOM      3  C   UNL     1      33.332 -21.444 -19.534  0.00  0.00    -0.004 C 
ATOM      4  C   UNL     1      35.738 -21.637 -19.451  0.00  0.00    -0.004 C 
ATOM      5  C   UNL     1      33.450 -20.311 -20.338  0.00  0.00    -0.000 C 
ATOM      6  C   UNL     1      35.857 -20.504 -20.255  0.00  0.00    -0.000 C 
ENDROOT
BRANCH   2   7
ATOM      7  C   UNL     1      34.837 -18.664 -21.533  0.00  0.00    -0.000 C 
ATOM      8  C   UNL     1      34.942 -18.799 -22.917  0.00  0.00    -0.000 C 
ATOM      9  C   UNL     1      34.850 -17.397 -20.952  0.00  0.00    -0.000 C 
ATOM     10  C   UNL     1      35.061 -17.665 -23.721  0.00  0.00    +0.000 C 
ATOM     11  C   UNL     1      34.968 -16.262 -21.756  0.00  0.00    +0.000 C 
ATOM     12  C   UNL     1      35.073 -16.398 -23.141  0.00  0.00    +0.000 C 
ENDBRANCH   2   7
BRANCH   1  13
ATOM     13  C   UNL     1      34.349 -23.319 -18.230  0.00  0.00    +0.112 C 
BRANCH  13  16
ATOM     14  O   UNL     1      34.082 -22.962 -15.861  0.00  0.00    -0.274 OA
ATOM     15  N   UNL     1      32.177 -23.058 -17.229  0.00  0.00    -0.269 N 
ATOM     16  C   UNL     1      33.541 -23.092 -16.954  0.00  0.00    +0.232 C 
ATOM     17  H   UNL     1      31.919 -23.181 -18.172  0.00  0.00    +0.156 HD
ATOM     18  N   UNL     1      29.860 -22.869 -16.791  0.00  0.00    -0.229 NA
ATOM     19  C   UNL     1      31.116 -22.867 -16.311  0.00  0.00    +0.134 C 
ATOM     20  C   UNL     1      31.461 -22.691 -14.988  0.00  0.00    +0.034 C 
ATOM     21  C   UNL     1      30.427 -22.502 -14.079  0.00  0.00    +0.004 C 
ATOM     22  C   UNL     1      29.110 -22.495 -14.524  0.00  0.00    +0.021 C 
ATOM     23  C   UNL     1      28.882 -22.681 -15.878  0.00  0.00    +0.100 C 
ENDBRANCH  13  16
ENDBRANCH   1  13
TORSDOF 3
ENDMDL
MODEL 6
REMARK VINA RESULT:     -10.9      2.382      9.039
REMARK  Name = 100472
REMARK  3 active torsions:
REMARK  status: ('A' for Active; 'I' for Inactive)
REMARK    1  A    between atoms: C_1  and  C_13
REMARK    2  A    between atoms: C_2  and  C_7
REMARK    3  A    between atoms: C_13  and  C_16
REMARK                            x       y       z     vdW  Elec       q    Type
REMARK                         _______ _______ _______ _____ _____    ______ ____
ROOT
ATOM      1  C   UNL     1      35.575 -18.645 -21.785  0.00  0.00    -0.013 C 
ATOM      2  C   UNL     1      34.738 -16.363 -23.155  0.00  0.00    -0.000 C 
ATOM      3  C   UNL     1      35.358 -17.455 -21.091  0.00  0.00    -0.004 C 
ATOM      4  C   UNL     1      35.374 -18.694 -23.164  0.00  0.00    -0.004 C 
ATOM      5  C   UNL     1      34.940 -16.314 -21.776  0.00  0.00    -0.000 C 
ATOM      6  C   UNL     1      34.955 -17.554 -23.849  0.00  0.00    -0.000 C 
ENDROOT
BRANCH   2   7
ATOM      7  C   UNL     1      34.305 -15.180 -23.866  0.00  0.00    -0.000 C 
ATOM      8  C   UNL     1      33.827 -15.286 -25.172  0.00  0.00    -0.000 C 
ATOM      9  C   UNL     1      34.366 -13.933 -23.245  0.00  0.00    -0.000 C 
ATOM     10  C   UNL     1      33.409 -14.145 -25.857  0.00  0.00    +0.000 C 
ATOM     11  C   UNL     1      33.948 -12.791 -23.929  0.00  0.00    +0.000 C 
ATOM     12  C   UNL     1      33.469 -12.899 -25.236  0.00  0.00    +0.000 C 
ENDBRANCH   2   7
BRANCH   1  13
ATOM     13  C   UNL     1      36.022 -19.865 -21.052  0.00  0.00    +0.112 C 
BRANCH  13  16
ATOM     14  O   UNL     1      33.737 -20.478 -20.590  0.00  0.00    -0.274 OA
ATOM     15  N   UNL     1      35.439 -21.225 -19.156  0.00  0.00    -0.269 N 
ATOM     16  C   UNL     1      34.915 -20.549 -20.255  0.00  0.00    +0.232 C 
ATOM     17  H   UNL     1      36.415 -21.175 -19.039  0.00  0.00    +0.156 HD
ATOM     18  N   UNL     1      35.437 -22.552 -17.197  0.00  0.00    -0.229 NA
ATOM     19  C   UNL     1      34.731 -21.975 -18.186  0.00  0.00    +0.134 C 
ATOM     20  C   UNL     1      33.363 -22.056 -18.338  0.00  0.00    +0.034 C 
ATOM     21  C   UNL     1      32.659 -22.791 -17.391  0.00  0.00    +0.004 C 
ATOM     22  C   UNL     1      33.342 -23.408 -16.349  0.00  0.00    +0.021 C 
ATOM     23  C   UNL     1      34.718 -23.259 -16.297  0.00  0.00    +0.100 C 
ENDBRANCH  13  16
ENDBRANCH   1  13
TORSDOF 3
ENDMDL
MODEL 7
REMARK VINA RESULT:     -10.9      3.562      9.086
REMARK  Name = 100472
REMARK  3 active torsions:
REMARK  status: ('A' for Active; 'I' for Inactive)
REMARK    1  A    between atoms: C_1  and  C_13
REMARK    2  A    between atoms: C_2  and  C_7
REMARK    3  A    between atoms: C_13  and  C_16
REMARK                            x       y       z     vdW  Elec       q    Type
REMARK                         _______ _______ _______ _____ _____    ______ ____
ROOT
ATOM      1  C   UNL     1      34.737 -21.551 -19.393  0.00  0.00    -0.013 C 
ATOM      2  C   UNL     1      34.852 -19.323 -21.069  0.00  0.00    -0.000 C 
ATOM      3  C   UNL     1      35.972 -21.035 -19.785  0.00  0.00    -0.004 C 
ATOM      4  C   UNL     1      33.558 -20.952 -19.840  0.00  0.00    -0.004 C 
ATOM      5  C   UNL     1      36.030 -19.922 -20.622  0.00  0.00    -0.000 C 
ATOM      6  C   UNL     1      33.616 -19.839 -20.677  0.00  0.00    -0.000 C 
ENDROOT
BRANCH   2   7
ATOM      7  C   UNL     1      34.911 -18.168 -21.939  0.00  0.00    -0.000 C 
ATOM      8  C   UNL     1      34.987 -18.339 -23.321  0.00  0.00    -0.000 C 
ATOM      9  C   UNL     1      34.892 -16.885 -21.394  0.00  0.00    -0.000 C 
ATOM     10  C   UNL     1      35.044 -17.225 -24.159  0.00  0.00    +0.000 C 
ATOM     11  C   UNL     1      34.948 -15.770 -22.232  0.00  0.00    +0.000 C 
ATOM     12  C   UNL     1      35.024 -15.942 -23.615  0.00  0.00    +0.000 C 
ENDBRANCH   2   7
BRANCH   1  13
ATOM     13  C   UNL     1      34.675 -22.742 -18.497  0.00  0.00    +0.112 C 
BRANCH  13  16
ATOM     14  O   UNL     1      32.338 -22.409 -18.013  0.00  0.00    -0.274 OA
ATOM     15  N   UNL     1      33.739 -23.299 -16.352  0.00  0.00    -0.269 N 
ATOM     16  C   UNL     1      33.434 -22.787 -17.610  0.00  0.00    +0.232 C 
ATOM     17  H   UNL     1      34.679 -23.554 -16.202  0.00  0.00    +0.156 HD
ATOM     18  N   UNL     1      33.363 -24.007 -14.127  0.00  0.00    -0.229 NA
ATOM     19  C   UNL     1      32.857 -23.496 -15.263  0.00  0.00    +0.134 C 
ATOM     20  C   UNL     1      31.538 -23.145 -15.458  0.00  0.00    +0.034 C 
ATOM     21  C   UNL     1      30.664 -23.335 -14.395  0.00  0.00    +0.004 C 
ATOM     22  C   UNL     1      31.137 -23.861 -13.198  0.00  0.00    +0.021 C 
ATOM     23  C   UNL     1      32.483 -24.179 -13.116  0.00  0.00    +0.100 C 
ENDBRANCH  13  16
ENDBRANCH   1  13
TORSDOF 3
ENDMDL
MODEL 8
REMARK VINA RESULT:     -10.9      2.207      4.094
REMARK  Name = 100472
REMARK  3 active torsions:
REMARK  status: ('A' for Active; 'I' for Inactive)
REMARK    1  A    between atoms: C_1  and  C_13
REMARK    2  A    between atoms: C_2  and  C_7
REMARK    3  A    between atoms: C_13  and  C_16
REMARK                            x       y       z     vdW  Elec       q    Type
REMARK                         _______ _______ _______ _____ _____    ______ ____
ROOT
ATOM      1  C   UNL     1      34.982 -17.324 -23.363  0.00  0.00    -0.013 C 
ATOM      2  C   UNL     1      34.957 -19.318 -21.411  0.00  0.00    -0.000 C 
ATOM      3  C   UNL     1      35.322 -17.015 -22.046  0.00  0.00    -0.004 C 
ATOM      4  C   UNL     1      34.630 -18.630 -23.704  0.00  0.00    -0.004 C 
ATOM      5  C   UNL     1      35.309 -18.012 -21.070  0.00  0.00    -0.000 C 
ATOM      6  C   UNL     1      34.618 -19.627 -22.729  0.00  0.00    -0.000 C 
ENDROOT
BRANCH   2   7
ATOM      7  C   UNL     1      34.944 -20.352 -20.400  0.00  0.00    -0.000 C 
ATOM      8  C   UNL     1      36.145 -20.839 -19.884  0.00  0.00    -0.000 C 
ATOM      9  C   UNL     1      33.730 -20.861 -19.940  0.00  0.00    -0.000 C 
ATOM     10  C   UNL     1      36.131 -21.836 -18.908  0.00  0.00    +0.000 C 
ATOM     11  C   UNL     1      33.716 -21.858 -18.964  0.00  0.00    +0.000 C 
ATOM     12  C   UNL     1      34.918 -22.344 -18.448  0.00  0.00    +0.000 C 
ENDBRANCH   2   7
BRANCH   1  13
ATOM     13  C   UNL     1      34.995 -16.258 -24.406  0.00  0.00    +0.112 C 
BRANCH  13  16
ATOM     14  O   UNL     1      34.002 -14.102 -24.821  0.00  0.00    -0.274 OA
ATOM     15  N   UNL     1      33.852 -15.041 -22.674  0.00  0.00    -0.269 N 
ATOM     16  C   UNL     1      34.228 -14.998 -24.015  0.00  0.00    +0.232 C 
ATOM     17  H   UNL     1      34.121 -15.845 -22.172  0.00  0.00    +0.156 HD
ATOM     18  N   UNL     1      32.871 -14.306 -20.652  0.00  0.00    -0.229 NA
ATOM     19  C   UNL     1      33.130 -14.063 -21.949  0.00  0.00    +0.134 C 
ATOM     20  C   UNL     1      32.746 -12.933 -22.639  0.00  0.00    +0.034 C 
ATOM     21  C   UNL     1      32.036 -11.968 -21.936  0.00  0.00    +0.004 C 
ATOM     22  C   UNL     1      31.741 -12.169 -20.591  0.00  0.00    +0.021 C 
ATOM     23  C   UNL     1      32.178 -13.345 -20.002  0.00  0.00    +0.100 C 
ENDBRANCH  13  16
ENDBRANCH   1  13
TORSDOF 3
ENDMDL
MODEL 9
REMARK VINA RESULT:     -10.8      4.051      9.364
REMARK  Name = 100472
REMARK  3 active torsions:
REMARK  status: ('A' for Active; 'I' for Inactive)
REMARK    1  A    between atoms: C_1  and  C_13
REMARK    2  A    between atoms: C_2  and  C_7
REMARK    3  A    between atoms: C_13  and  C_16
REMARK                            x       y       z     vdW  Elec       q    Type
REMARK                         _______ _______ _______ _____ _____    ______ ____
ROOT
ATOM      1  C   UNL     1      34.226 -22.077 -18.640  0.00  0.00    -0.013 C 
ATOM      2  C   UNL     1      34.598 -20.128 -20.603  0.00  0.00    -0.000 C 
ATOM      3  C   UNL     1      35.508 -21.803 -19.118  0.00  0.00    -0.004 C 
ATOM      4  C   UNL     1      33.130 -21.376 -19.145  0.00  0.00    -0.004 C 
ATOM      5  C   UNL     1      35.694 -20.829 -20.099  0.00  0.00    -0.000 C 
ATOM      6  C   UNL     1      33.316 -20.402 -20.125  0.00  0.00    -0.000 C 
ENDROOT
BRANCH   2   7
ATOM      7  C   UNL     1      34.790 -19.118 -21.621  0.00  0.00    -0.000 C 
ATOM      8  C   UNL     1      34.688 -19.459 -22.969  0.00  0.00    -0.000 C 
ATOM      9  C   UNL     1      35.078 -17.805 -21.253  0.00  0.00    -0.000 C 
ATOM     10  C   UNL     1      34.873 -18.485 -23.951  0.00  0.00    +0.000 C 
ATOM     11  C   UNL     1      35.263 -16.830 -22.234  0.00  0.00    +0.000 C 
ATOM     12  C   UNL     1      35.160 -17.171 -23.583  0.00  0.00    +0.000 C 
ENDBRANCH   2   7
BRANCH   1  13
ATOM     13  C   UNL     1      34.028 -23.118 -17.591  0.00  0.00    +0.112 C 
BRANCH  13  16
ATOM     14  O   UNL     1      36.082 -22.441 -16.528  0.00  0.00    -0.274 OA
ATOM     15  N   UNL     1      34.483 -23.629 -15.285  0.00  0.00    -0.269 N 
ATOM     16  C   UNL     1      35.001 -23.011 -16.420  0.00  0.00    +0.232 C 
ATOM     17  H   UNL     1      33.593 -24.040 -15.381  0.00  0.00    +0.156 HD
ATOM     18  N   UNL     1      34.409 -24.381 -13.044  0.00  0.00    -0.229 NA
ATOM     19  C   UNL     1      35.087 -23.737 -14.010  0.00  0.00    +0.134 C 
ATOM     20  C   UNL     1      36.333 -23.165 -13.860  0.00  0.00    +0.034 C 
ATOM     21  C   UNL     1      36.934 -23.265 -12.611  0.00  0.00    +0.004 C 
ATOM     22  C   UNL     1      36.274 -23.921 -11.577  0.00  0.00    +0.021 C 
ATOM     23  C   UNL     1      35.025 -24.456 -11.843  0.00  0.00    +0.100 C 
ENDBRANCH  13  16
ENDBRANCH   1  13
TORSDOF 3
ENDMDL
