MODEL 1
REMARK VINA RESULT:     -12.0      0.000      0.000
REMARK  Name = 6918388
REMARK  5 active torsions:
REMARK  status: ('A' for Active; 'I' for Inactive)
REMARK    1  A    between atoms: N_1  and  C_4
REMARK    2  A    between atoms: N_1  and  C_15
REMARK    3  A    between atoms: C_4  and  C_6
REMARK    4  A    between atoms: C_15  and  C_17
REMARK    5  A    between atoms: C_19  and  C_23
REMARK                            x       y       z     vdW  Elec       q    Type
REMARK                         _______ _______ _______ _____ _____    ______ ____
ROOT
ATOM      1  N   UNL     1      31.498 -12.082 -21.513  0.00  0.00    +0.389 N 
ATOM      2  H   UNL     1      30.857 -12.739 -21.956  0.00  0.00    -0.084 HD
ATOM      3  H   UNL     1      32.129 -11.677 -22.205  0.00  0.00    -0.084 HD
ENDROOT
BRANCH   1   4
ATOM      4  C   UNL     1      32.292 -12.787 -20.518  0.00  0.00    -0.037 C 
BRANCH   4   6
ATOM      5  O   UNL     1      32.963 -13.822 -22.557  0.00  0.00    -0.482 OA
ATOM      6  C   UNL     1      33.345 -13.666 -21.182  0.00  0.00    +0.145 C 
ATOM      7  C   UNL     1      33.449 -15.017 -20.478  0.00  0.00    +0.046 C 
ATOM      8  C   UNL     1      34.547 -15.842 -21.138  0.00  0.00    +0.033 C 
ATOM      9  C   UNL     1      34.427 -15.775 -22.634  0.00  0.00    +0.012 C 
ATOM     10  C   UNL     1      33.662 -14.776 -23.250  0.00  0.00    +0.134 C 
ATOM     11  C   UNL     1      35.107 -16.704 -23.432  0.00  0.00    -0.001 C 
ATOM     12  C   UNL     1      33.548 -14.734 -24.642  0.00  0.00    +0.037 C 
ATOM     13  C   UNL     1      35.004 -16.652 -24.822  0.00  0.00    -0.000 C 
ATOM     14  C   UNL     1      34.221 -15.670 -25.426  0.00  0.00    +0.003 C 
ENDBRANCH   4   6
ENDBRANCH   1   4
BRANCH   1  15
ATOM     15  C   UNL     1      30.730 -11.006 -20.900  0.00  0.00    -0.053 C 
BRANCH  15  17
ATOM     16  N   UNL     1      32.531  -8.144 -19.241  0.00  0.00    -0.243 NA
ATOM     17  C   UNL     1      31.552  -9.758 -20.725  0.00  0.00    -0.025 C 
ATOM     18  C   UNL     1      32.064  -9.099 -21.826  0.00  0.00    -0.003 C 
ATOM     19  C   UNL     1      32.821  -7.949 -21.633  0.00  0.00    +0.019 C 
ATOM     20  C   UNL     1      31.801  -9.259 -19.467  0.00  0.00    +0.092 C 
ATOM     21  C   UNL     1      33.023  -7.516 -20.332  0.00  0.00    +0.099 C 
BRANCH  19  23
ATOM     22  F   UNL     1      34.976  -5.157 -25.952  0.00  0.00    -0.204 F 
ATOM     23  C   UNL     1      33.378  -7.227 -22.753  0.00  0.00    +0.002 C 
ATOM     24  C   UNL     1      34.747  -7.295 -23.018  0.00  0.00    +0.002 C 
ATOM     25  C   UNL     1      32.551  -6.456 -23.572  0.00  0.00    +0.002 C 
ATOM     26  C   UNL     1      35.287  -6.596 -24.098  0.00  0.00    +0.030 C 
ATOM     27  C   UNL     1      33.090  -5.757 -24.652  0.00  0.00    +0.030 C 
ATOM     28  C   UNL     1      34.458  -5.827 -24.914  0.00  0.00    +0.140 C 
ENDBRANCH  19  23
ENDBRANCH  15  17
ENDBRANCH   1  15
TORSDOF 5
ENDMDL
MODEL 2
REMARK VINA RESULT:     -11.6      0.833      1.549
REMARK  Name = 6918388
REMARK  5 active torsions:
REMARK  status: ('A' for Active; 'I' for Inactive)
REMARK    1  A    between atoms: N_1  and  C_4
REMARK    2  A    between atoms: N_1  and  C_15
REMARK    3  A    between atoms: C_4  and  C_6
REMARK    4  A    between atoms: C_15  and  C_17
REMARK    5  A    between atoms: C_19  and  C_23
REMARK                            x       y       z     vdW  Elec       q    Type
REMARK                         _______ _______ _______ _____ _____    ______ ____
ROOT
ATOM      1  N   UNL     1      31.594 -12.240 -20.972  0.00  0.00    +0.389 N 
ATOM      2  H   UNL     1      32.247 -12.048 -20.213  0.00  0.00    -0.084 HD
ATOM      3  H   UNL     1      30.940 -12.975 -20.702  0.00  0.00    -0.084 HD
ENDROOT
BRANCH   1   4
ATOM      4  C   UNL     1      32.339 -12.689 -22.140  0.00  0.00    -0.037 C 
BRANCH   4   6
ATOM      5  O   UNL     1      33.532 -14.615 -22.879  0.00  0.00    -0.482 OA
ATOM      6  C   UNL     1      33.379 -13.733 -21.756  0.00  0.00    +0.145 C 
ATOM      7  C   UNL     1      32.947 -14.498 -20.506  0.00  0.00    +0.046 C 
ATOM      8  C   UNL     1      34.037 -15.492 -20.126  0.00  0.00    +0.033 C 
ATOM      9  C   UNL     1      34.515 -16.236 -21.340  0.00  0.00    +0.012 C 
ATOM     10  C   UNL     1      34.249 -15.756 -22.629  0.00  0.00    +0.134 C 
ATOM     11  C   UNL     1      35.261 -17.413 -21.190  0.00  0.00    -0.001 C 
ATOM     12  C   UNL     1      34.689 -16.466 -23.750  0.00  0.00    +0.037 C 
ATOM     13  C   UNL     1      35.710 -18.113 -22.310  0.00  0.00    -0.000 C 
ATOM     14  C   UNL     1      35.421 -17.641 -23.588  0.00  0.00    +0.003 C 
ENDBRANCH   4   6
ENDBRANCH   1   4
BRANCH   1  15
ATOM     15  C   UNL     1      30.838 -11.031 -21.268  0.00  0.00    -0.053 C 
BRANCH  15  17
ATOM     16  N   UNL     1      32.596  -8.246 -19.439  0.00  0.00    -0.243 NA
ATOM     17  C   UNL     1      31.647  -9.787 -21.017  0.00  0.00    -0.025 C 
ATOM     18  C   UNL     1      32.165  -9.067 -22.075  0.00  0.00    -0.003 C 
ATOM     19  C   UNL     1      32.909  -7.922 -21.814  0.00  0.00    +0.019 C 
ATOM     20  C   UNL     1      31.878  -9.353 -19.732  0.00  0.00    +0.092 C 
ATOM     21  C   UNL     1      33.094  -7.557 -20.489  0.00  0.00    +0.099 C 
BRANCH  19  23
ATOM     22  F   UNL     1      35.078  -4.892 -25.962  0.00  0.00    -0.204 F 
ATOM     23  C   UNL     1      33.472  -7.137 -22.887  0.00  0.00    +0.002 C 
ATOM     24  C   UNL     1      32.653  -6.293 -23.641  0.00  0.00    +0.002 C 
ATOM     25  C   UNL     1      34.835  -7.220 -23.177  0.00  0.00    +0.002 C 
ATOM     26  C   UNL     1      33.196  -5.535 -24.679  0.00  0.00    +0.030 C 
ATOM     27  C   UNL     1      35.377  -6.462 -24.215  0.00  0.00    +0.030 C 
ATOM     28  C   UNL     1      34.558  -5.620 -24.965  0.00  0.00    +0.140 C 
ENDBRANCH  19  23
ENDBRANCH  15  17
ENDBRANCH   1  15
TORSDOF 5
ENDMDL
MODEL 3
REMARK VINA RESULT:     -11.5      8.501     13.443
REMARK  Name = 6918388
REMARK  5 active torsions:
REMARK  status: ('A' for Active; 'I' for Inactive)
REMARK    1  A    between atoms: N_1  and  C_4
REMARK    2  A    between atoms: N_1  and  C_15
REMARK    3  A    between atoms: C_4  and  C_6
REMARK    4  A    between atoms: C_15  and  C_17
REMARK    5  A    between atoms: C_19  and  C_23
REMARK                            x       y       z     vdW  Elec       q    Type
REMARK                         _______ _______ _______ _____ _____    ______ ____
ROOT
ATOM      1  N   UNL     1      35.666 -20.107 -20.247  0.00  0.00    +0.389 N 
ATOM      2  H   UNL     1      35.019 -20.340 -20.999  0.00  0.00    -0.084 HD
ATOM      3  H   UNL     1      35.212 -19.506 -19.559  0.00  0.00    -0.084 HD
ENDROOT
BRANCH   1   4
ATOM      4  C   UNL     1      36.808 -19.396 -20.803  0.00  0.00    -0.037 C 
BRANCH   4   6
ATOM      5  O   UNL     1      35.523 -17.391 -20.713  0.00  0.00    -0.482 OA
ATOM      6  C   UNL     1      36.358 -18.168 -21.584  0.00  0.00    +0.145 C 
ATOM      7  C   UNL     1      35.611 -18.574 -22.854  0.00  0.00    +0.046 C 
ATOM      8  C   UNL     1      35.227 -17.321 -23.630  0.00  0.00    +0.033 C 
ATOM      9  C   UNL     1      34.646 -16.288 -22.707  0.00  0.00    +0.012 C 
ATOM     10  C   UNL     1      34.834 -16.374 -21.322  0.00  0.00    +0.134 C 
ATOM     11  C   UNL     1      33.928 -15.206 -23.233  0.00  0.00    -0.001 C 
ATOM     12  C   UNL     1      34.276 -15.414 -20.474  0.00  0.00    +0.037 C 
ATOM     13  C   UNL     1      33.383 -14.240 -22.386  0.00  0.00    -0.000 C 
ATOM     14  C   UNL     1      33.554 -14.347 -21.007  0.00  0.00    +0.003 C 
ENDBRANCH   4   6
ENDBRANCH   1   4
BRANCH   1  15
ATOM     15  C   UNL     1      36.087 -21.334 -19.584  0.00  0.00    -0.053 C 
BRANCH  15  17
ATOM     16  N   UNL     1      32.673 -22.426 -18.423  0.00  0.00    -0.243 NA
ATOM     17  C   UNL     1      34.999 -21.904 -18.713  0.00  0.00    -0.025 C 
ATOM     18  C   UNL     1      35.298 -22.408 -17.463  0.00  0.00    -0.003 C 
ATOM     19  C   UNL     1      34.273 -22.929 -16.682  0.00  0.00    +0.019 C 
ATOM     20  C   UNL     1      33.696 -21.929 -19.154  0.00  0.00    +0.092 C 
ATOM     21  C   UNL     1      32.989 -22.915 -17.203  0.00  0.00    +0.099 C 
BRANCH  19  23
ATOM     22  F   UNL     1      35.294 -25.014 -11.612  0.00  0.00    -0.204 F 
ATOM     23  C   UNL     1      34.537 -23.468 -15.368  0.00  0.00    +0.002 C 
ATOM     24  C   UNL     1      35.849 -23.733 -14.971  0.00  0.00    +0.002 C 
ATOM     25  C   UNL     1      33.482 -23.728 -14.492  0.00  0.00    +0.002 C 
ATOM     26  C   UNL     1      36.104 -24.256 -13.703  0.00  0.00    +0.030 C 
ATOM     27  C   UNL     1      33.737 -24.250 -13.224  0.00  0.00    +0.030 C 
ATOM     28  C   UNL     1      35.048 -24.513 -12.830  0.00  0.00    +0.140 C 
ENDBRANCH  19  23
ENDBRANCH  15  17
ENDBRANCH   1  15
TORSDOF 5
ENDMDL
MODEL 4
REMARK VINA RESULT:     -11.5      8.390     13.281
REMARK  Name = 6918388
REMARK  5 active torsions:
REMARK  status: ('A' for Active; 'I' for Inactive)
REMARK    1  A    between atoms: N_1  and  C_4
REMARK    2  A    between atoms: N_1  and  C_15
REMARK    3  A    between atoms: C_4  and  C_6
REMARK    4  A    between atoms: C_15  and  C_17
REMARK    5  A    between atoms: C_19  and  C_23
REMARK                            x       y       z     vdW  Elec       q    Type
REMARK                         _______ _______ _______ _____ _____    ______ ____
ROOT
ATOM      1  N   UNL     1      35.482 -20.167 -20.076  0.00  0.00    +0.389 N 
ATOM      2  H   UNL     1      34.688 -20.012 -20.696  0.00  0.00    -0.084 HD
ATOM      3  H   UNL     1      35.311 -19.741 -19.165  0.00  0.00    -0.084 HD
ENDROOT
BRANCH   1   4
ATOM      4  C   UNL     1      36.669 -19.556 -20.658  0.00  0.00    -0.037 C 
BRANCH   4   6
ATOM      5  O   UNL     1      35.500 -17.479 -20.699  0.00  0.00    -0.482 OA
ATOM      6  C   UNL     1      36.298 -18.351 -21.514  0.00  0.00    +0.145 C 
ATOM      7  C   UNL     1      35.542 -18.786 -22.768  0.00  0.00    +0.046 C 
ATOM      8  C   UNL     1      35.238 -17.560 -23.619  0.00  0.00    +0.033 C 
ATOM      9  C   UNL     1      34.708 -16.445 -22.764  0.00  0.00    +0.012 C 
ATOM     10  C   UNL     1      34.876 -16.462 -21.373  0.00  0.00    +0.134 C 
ATOM     11  C   UNL     1      34.059 -15.356 -23.360  0.00  0.00    -0.001 C 
ATOM     12  C   UNL     1      34.366 -15.424 -20.589  0.00  0.00    +0.037 C 
ATOM     13  C   UNL     1      33.561 -14.314 -22.576  0.00  0.00    -0.000 C 
ATOM     14  C   UNL     1      33.711 -14.351 -21.192  0.00  0.00    +0.003 C 
ENDBRANCH   4   6
ENDBRANCH   1   4
BRANCH   1  15
ATOM     15  C   UNL     1      35.670 -21.599 -19.891  0.00  0.00    -0.053 C 
BRANCH  15  17
ATOM     16  N   UNL     1      36.963 -22.172 -16.399  0.00  0.00    -0.243 NA
ATOM     17  C   UNL     1      35.704 -21.978 -18.434  0.00  0.00    -0.025 C 
ATOM     18  C   UNL     1      34.569 -22.458 -17.811  0.00  0.00    -0.003 C 
ATOM     19  C   UNL     1      34.629 -22.799 -16.465  0.00  0.00    +0.019 C 
ATOM     20  C   UNL     1      36.866 -21.851 -17.708  0.00  0.00    +0.092 C 
ATOM     21  C   UNL     1      35.840 -22.639 -15.809  0.00  0.00    +0.099 C 
BRANCH  19  23
ATOM     22  F   UNL     1      30.144 -24.744 -13.783  0.00  0.00    -0.204 F 
ATOM     23  C   UNL     1      33.468 -23.304 -15.771  0.00  0.00    +0.002 C 
ATOM     24  C   UNL     1      32.198 -23.158 -16.333  0.00  0.00    +0.002 C 
ATOM     25  C   UNL     1      33.610 -23.936 -14.535  0.00  0.00    +0.002 C 
ATOM     26  C   UNL     1      31.076 -23.644 -15.662  0.00  0.00    +0.030 C 
ATOM     27  C   UNL     1      32.488 -24.423 -13.864  0.00  0.00    +0.030 C 
ATOM     28  C   UNL     1      31.221 -24.276 -14.427  0.00  0.00    +0.140 C 
ENDBRANCH  19  23
ENDBRANCH  15  17
ENDBRANCH   1  15
TORSDOF 5
ENDMDL
MODEL 5
REMARK VINA RESULT:     -11.4      4.403      9.763
REMARK  Name = 6918388
REMARK  5 active torsions:
REMARK  status: ('A' for Active; 'I' for Inactive)
REMARK    1  A    between atoms: N_1  and  C_4
REMARK    2  A    between atoms: N_1  and  C_15
REMARK    3  A    between atoms: C_4  and  C_6
REMARK    4  A    between atoms: C_15  and  C_17
REMARK    5  A    between atoms: C_19  and  C_23
REMARK                            x       y       z     vdW  Elec       q    Type
REMARK                         _______ _______ _______ _____ _____    ______ ____
ROOT
ATOM      1  N   UNL     1      33.125 -13.101 -22.524  0.00  0.00    +0.389 N 
ATOM      2  H   UNL     1      33.359 -12.138 -22.761  0.00  0.00    -0.084 HD
ATOM      3  H   UNL     1      32.870 -13.623 -23.363  0.00  0.00    -0.084 HD
ENDROOT
BRANCH   1   4
ATOM      4  C   UNL     1      31.989 -13.106 -21.613  0.00  0.00    -0.037 C 
BRANCH   4   6
ATOM      5  O   UNL     1      32.366 -10.788 -22.017  0.00  0.00    -0.482 OA
ATOM      6  C   UNL     1      31.637 -11.691 -21.173  0.00  0.00    +0.145 C 
ATOM      7  C   UNL     1      31.986 -11.477 -19.700  0.00  0.00    +0.046 C 
ATOM      8  C   UNL     1      31.570 -10.071 -19.287  0.00  0.00    +0.033 C 
ATOM      9  C   UNL     1      32.002  -9.070 -20.321  0.00  0.00    +0.012 C 
ATOM     10  C   UNL     1      32.359  -9.478 -21.612  0.00  0.00    +0.134 C 
ATOM     11  C   UNL     1      32.025  -7.705 -20.005  0.00  0.00    -0.001 C 
ATOM     12  C   UNL     1      32.773  -8.537 -22.559  0.00  0.00    +0.037 C 
ATOM     13  C   UNL     1      32.425  -6.766 -20.956  0.00  0.00    -0.000 C 
ATOM     14  C   UNL     1      32.802  -7.183 -22.230  0.00  0.00    +0.003 C 
ENDBRANCH   4   6
ENDBRANCH   1   4
BRANCH   1  15
ATOM     15  C   UNL     1      34.284 -13.739 -21.915  0.00  0.00    -0.053 C 
BRANCH  15  17
ATOM     16  N   UNL     1      34.714 -16.466 -24.479  0.00  0.00    -0.243 NA
ATOM     17  C   UNL     1      34.562 -15.091 -22.516  0.00  0.00    -0.025 C 
ATOM     18  C   UNL     1      34.903 -16.157 -21.707  0.00  0.00    -0.003 C 
ATOM     19  C   UNL     1      35.154 -17.394 -22.290  0.00  0.00    +0.019 C 
ATOM     20  C   UNL     1      34.478 -15.280 -23.876  0.00  0.00    +0.092 C 
ATOM     21  C   UNL     1      35.047 -17.496 -23.668  0.00  0.00    +0.099 C 
BRANCH  19  23
ATOM     22  F   UNL     1      36.551 -21.813 -19.189  0.00  0.00    -0.204 F 
ATOM     23  C   UNL     1      35.515 -18.538 -21.485  0.00  0.00    +0.002 C 
ATOM     24  C   UNL     1      36.843 -18.731 -21.099  0.00  0.00    +0.002 C 
ATOM     25  C   UNL     1      34.539 -19.455 -21.094  0.00  0.00    +0.002 C 
ATOM     26  C   UNL     1      37.192 -19.837 -20.324  0.00  0.00    +0.030 C 
ATOM     27  C   UNL     1      34.888 -20.561 -20.318  0.00  0.00    +0.030 C 
ATOM     28  C   UNL     1      36.215 -20.751 -19.934  0.00  0.00    +0.140 C 
ENDBRANCH  19  23
ENDBRANCH  15  17
ENDBRANCH   1  15
TORSDOF 5
ENDMDL
MODEL 6
REMARK VINA RESULT:     -11.3      7.927     12.945
REMARK  Name = 6918388
REMARK  5 active torsions:
REMARK  status: ('A' for Active; 'I' for Inactive)
REMARK    1  A    between atoms: N_1  and  C_4
REMARK    2  A    between atoms: N_1  and  C_15
REMARK    3  A    between atoms: C_4  and  C_6
REMARK    4  A    between atoms: C_15  and  C_17
REMARK    5  A    between atoms: C_19  and  C_23
REMARK                            x       y       z     vdW  Elec       q    Type
REMARK                         _______ _______ _______ _____ _____    ______ ____
ROOT
ATOM      1  N   UNL     1      35.308 -19.308 -20.615  0.00  0.00    +0.389 N 
ATOM      2  H   UNL     1      34.409 -19.124 -21.057  0.00  0.00    -0.084 HD
ATOM      3  H   UNL     1      35.308 -18.971 -19.652  0.00  0.00    -0.084 HD
ENDROOT
BRANCH   1   4
ATOM      4  C   UNL     1      36.354 -18.611 -21.351  0.00  0.00    -0.037 C 
BRANCH   4   6
ATOM      5  O   UNL     1      34.899 -16.780 -20.893  0.00  0.00    -0.482 OA
ATOM      6  C   UNL     1      35.863 -17.256 -21.844  0.00  0.00    +0.145 C 
ATOM      7  C   UNL     1      35.255 -17.372 -23.240  0.00  0.00    +0.046 C 
ATOM      8  C   UNL     1      34.827 -15.990 -23.716  0.00  0.00    +0.033 C 
ATOM      9  C   UNL     1      34.089 -15.265 -22.627  0.00  0.00    +0.012 C 
ATOM     10  C   UNL     1      34.175 -15.688 -21.295  0.00  0.00    +0.134 C 
ATOM     11  C   UNL     1      33.325 -14.132 -22.937  0.00  0.00    -0.001 C 
ATOM     12  C   UNL     1      33.472 -15.011 -20.295  0.00  0.00    +0.037 C 
ATOM     13  C   UNL     1      32.634 -13.450 -21.934  0.00  0.00    -0.000 C 
ATOM     14  C   UNL     1      32.705 -13.892 -20.615  0.00  0.00    +0.003 C 
ENDBRANCH   4   6
ENDBRANCH   1   4
BRANCH   1  15
ATOM     15  C   UNL     1      35.548 -20.745 -20.602  0.00  0.00    -0.053 C 
BRANCH  15  17
ATOM     16  N   UNL     1      32.733 -22.167 -18.541  0.00  0.00    -0.243 NA
ATOM     17  C   UNL     1      34.818 -21.427 -19.476  0.00  0.00    -0.025 C 
ATOM     18  C   UNL     1      35.513 -21.919 -18.390  0.00  0.00    -0.003 C 
ATOM     19  C   UNL     1      34.812 -22.545 -17.366  0.00  0.00    +0.019 C 
ATOM     20  C   UNL     1      33.449 -21.566 -19.518  0.00  0.00    +0.092 C 
ATOM     21  C   UNL     1      33.434 -22.642 -17.488  0.00  0.00    +0.099 C 
BRANCH  19  23
ATOM     22  F   UNL     1      37.455 -24.599 -12.906  0.00  0.00    -0.204 F 
ATOM     23  C   UNL     1      35.495 -23.076 -16.210  0.00  0.00    +0.002 C 
ATOM     24  C   UNL     1      36.823 -22.724 -15.959  0.00  0.00    +0.002 C 
ATOM     25  C   UNL     1      34.833 -23.945 -15.342  0.00  0.00    +0.002 C 
ATOM     26  C   UNL     1      37.485 -23.238 -14.843  0.00  0.00    +0.030 C 
ATOM     27  C   UNL     1      35.494 -24.459 -14.226  0.00  0.00    +0.030 C 
ATOM     28  C   UNL     1      36.820 -24.105 -13.978  0.00  0.00    +0.140 C 
ENDBRANCH  19  23
ENDBRANCH  15  17
ENDBRANCH   1  15
TORSDOF 5
ENDMDL
MODEL 7
REMARK VINA RESULT:     -11.3      4.367      9.938
REMARK  Name = 6918388
REMARK  5 active torsions:
REMARK  status: ('A' for Active; 'I' for Inactive)
REMARK    1  A    between atoms: N_1  and  C_4
REMARK    2  A    between atoms: N_1  and  C_15
REMARK    3  A    between atoms: C_4  and  C_6
REMARK    4  A    between atoms: C_15  and  C_17
REMARK    5  A    between atoms: C_19  and  C_23
REMARK                            x       y       z     vdW  Elec       q    Type
REMARK                         _______ _______ _______ _____ _____    ______ ____
ROOT
ATOM      1  N   UNL     1      34.473 -12.789 -23.147  0.00  0.00    +0.389 N 
ATOM      2  H   UNL     1      34.499 -12.378 -22.215  0.00  0.00    -0.084 HD
ATOM      3  H   UNL     1      35.377 -13.200 -23.382  0.00  0.00    -0.084 HD
ENDROOT
BRANCH   1   4
ATOM      4  C   UNL     1      34.170 -11.748 -24.119  0.00  0.00    -0.037 C 
BRANCH   4   6
ATOM      5  O   UNL     1      32.833  -9.906 -23.413  0.00  0.00    -0.482 OA
ATOM      6  C   UNL     1      34.190 -10.371 -23.469  0.00  0.00    +0.145 C 
ATOM      7  C   UNL     1      35.075  -9.409 -24.259  0.00  0.00    +0.046 C 
ATOM      8  C   UNL     1      35.110  -8.062 -23.547  0.00  0.00    +0.033 C 
ATOM      9  C   UNL     1      33.726  -7.651 -23.132  0.00  0.00    +0.012 C 
ATOM     10  C   UNL     1      32.683  -8.585 -23.079  0.00  0.00    +0.134 C 
ATOM     11  C   UNL     1      33.472  -6.323 -22.767  0.00  0.00    -0.001 C 
ATOM     12  C   UNL     1      31.398  -8.185 -22.705  0.00  0.00    +0.037 C 
ATOM     13  C   UNL     1      32.191  -5.928 -22.380  0.00  0.00    -0.000 C 
ATOM     14  C   UNL     1      31.154  -6.859 -22.353  0.00  0.00    +0.003 C 
ENDBRANCH   4   6
ENDBRANCH   1   4
BRANCH   1  15
ATOM     15  C   UNL     1      33.465 -13.840 -23.176  0.00  0.00    -0.053 C 
BRANCH  15  17
ATOM     16  N   UNL     1      34.659 -16.639 -25.398  0.00  0.00    -0.243 NA
ATOM     17  C   UNL     1      34.042 -15.161 -23.608  0.00  0.00    -0.025 C 
ATOM     18  C   UNL     1      34.470 -16.077 -22.666  0.00  0.00    -0.003 C 
ATOM     19  C   UNL     1      35.000 -17.289 -23.094  0.00  0.00    +0.019 C 
ATOM     20  C   UNL     1      34.150 -15.472 -24.944  0.00  0.00    +0.092 C 
ATOM     21  C   UNL     1      35.072 -17.519 -24.459  0.00  0.00    +0.099 C 
BRANCH  19  23
ATOM     22  F   UNL     1      36.775 -21.103 -19.435  0.00  0.00    -0.204 F 
ATOM     23  C   UNL     1      35.461 -18.277 -22.148  0.00  0.00    +0.002 C 
ATOM     24  C   UNL     1      34.589 -19.268 -21.691  0.00  0.00    +0.002 C 
ATOM     25  C   UNL     1      36.777 -18.244 -21.684  0.00  0.00    +0.002 C 
ATOM     26  C   UNL     1      35.033 -20.222 -20.775  0.00  0.00    +0.030 C 
ATOM     27  C   UNL     1      37.221 -19.198 -20.768  0.00  0.00    +0.030 C 
ATOM     28  C   UNL     1      36.349 -20.187 -20.314  0.00  0.00    +0.140 C 
ENDBRANCH  19  23
ENDBRANCH  15  17
ENDBRANCH   1  15
TORSDOF 5
ENDMDL
MODEL 8
REMARK VINA RESULT:     -11.2      3.774      5.809
REMARK  Name = 6918388
REMARK  5 active torsions:
REMARK  status: ('A' for Active; 'I' for Inactive)
REMARK    1  A    between atoms: N_1  and  C_4
REMARK    2  A    between atoms: N_1  and  C_15
REMARK    3  A    between atoms: C_4  and  C_6
REMARK    4  A    between atoms: C_15  and  C_17
REMARK    5  A    between atoms: C_19  and  C_23
REMARK                            x       y       z     vdW  Elec       q    Type
REMARK                         _______ _______ _______ _____ _____    ______ ____
ROOT
ATOM      1  N   UNL     1      34.296 -16.759 -22.496  0.00  0.00    +0.389 N 
ATOM      2  H   UNL     1      33.993 -17.226 -21.642  0.00  0.00    -0.084 HD
ATOM      3  H   UNL     1      33.526 -16.697 -23.162  0.00  0.00    -0.084 HD
ENDROOT
BRANCH   1   4
ATOM      4  C   UNL     1      35.373 -17.528 -23.104  0.00  0.00    -0.037 C 
BRANCH   4   6
ATOM      5  O   UNL     1      34.462 -19.126 -21.589  0.00  0.00    -0.482 OA
ATOM      6  C   UNL     1      35.661 -18.791 -22.303  0.00  0.00    +0.145 C 
ATOM      7  C   UNL     1      36.833 -18.574 -21.347  0.00  0.00    +0.046 C 
ATOM      8  C   UNL     1      37.122 -19.874 -20.606  0.00  0.00    +0.033 C 
ATOM      9  C   UNL     1      35.845 -20.490 -20.110  0.00  0.00    +0.012 C 
ATOM     10  C   UNL     1      34.606 -20.095 -20.630  0.00  0.00    +0.134 C 
ATOM     11  C   UNL     1      35.887 -21.493 -19.133  0.00  0.00    -0.001 C 
ATOM     12  C   UNL     1      33.425 -20.667 -20.149  0.00  0.00    +0.037 C 
ATOM     13  C   UNL     1      34.708 -22.073 -18.664  0.00  0.00    -0.000 C 
ATOM     14  C   UNL     1      33.479 -21.657 -19.169  0.00  0.00    +0.003 C 
ENDBRANCH   4   6
ENDBRANCH   1   4
BRANCH   1  15
ATOM     15  C   UNL     1      34.738 -15.409 -22.171  0.00  0.00    -0.053 C 
BRANCH  15  17
ATOM     16  N   UNL     1      33.426 -14.001 -25.410  0.00  0.00    -0.243 NA
ATOM     17  C   UNL     1      34.316 -14.413 -23.218  0.00  0.00    -0.025 C 
ATOM     18  C   UNL     1      34.421 -13.058 -22.974  0.00  0.00    -0.003 C 
ATOM     19  C   UNL     1      34.023 -12.161 -23.959  0.00  0.00    +0.019 C 
ATOM     20  C   UNL     1      33.822 -14.842 -24.429  0.00  0.00    +0.092 C 
ATOM     21  C   UNL     1      33.536 -12.679 -25.149  0.00  0.00    +0.099 C 
BRANCH  19  23
ATOM     22  F   UNL     1      34.367  -6.654 -23.155  0.00  0.00    -0.204 F 
ATOM     23  C   UNL     1      34.114 -10.735 -23.750  0.00  0.00    +0.002 C 
ATOM     24  C   UNL     1      33.093 -10.061 -23.076  0.00  0.00    +0.002 C 
ATOM     25  C   UNL     1      35.219 -10.026 -24.223  0.00  0.00    +0.002 C 
ATOM     26  C   UNL     1      33.179  -8.683 -22.875  0.00  0.00    +0.030 C 
ATOM     27  C   UNL     1      35.304  -8.648 -24.022  0.00  0.00    +0.030 C 
ATOM     28  C   UNL     1      34.285  -7.977 -23.349  0.00  0.00    +0.140 C 
ENDBRANCH  19  23
ENDBRANCH  15  17
ENDBRANCH   1  15
TORSDOF 5
ENDMDL
MODEL 9
REMARK VINA RESULT:     -11.2      7.817     12.802
REMARK  Name = 6918388
REMARK  5 active torsions:
REMARK  status: ('A' for Active; 'I' for Inactive)
REMARK    1  A    between atoms: N_1  and  C_4
REMARK    2  A    between atoms: N_1  and  C_15
REMARK    3  A    between atoms: C_4  and  C_6
REMARK    4  A    between atoms: C_15  and  C_17
REMARK    5  A    between atoms: C_19  and  C_23
REMARK                            x       y       z     vdW  Elec       q    Type
REMARK                         _______ _______ _______ _____ _____    ______ ____
ROOT
ATOM      1  N   UNL     1      35.010 -19.200 -20.727  0.00  0.00    +0.389 N 
ATOM      2  H   UNL     1      34.110 -18.772 -20.940  0.00  0.00    -0.084 HD
ATOM      3  H   UNL     1      35.323 -18.930 -19.795  0.00  0.00    -0.084 HD
ENDROOT
BRANCH   1   4
ATOM      4  C   UNL     1      35.996 -18.744 -21.697  0.00  0.00    -0.037 C 
BRANCH   4   6
ATOM      5  O   UNL     1      34.773 -16.750 -21.243  0.00  0.00    -0.482 OA
ATOM      6  C   UNL     1      35.660 -17.346 -22.200  0.00  0.00    +0.145 C 
ATOM      7  C   UNL     1      35.021 -17.406 -23.587  0.00  0.00    +0.046 C 
ATOM      8  C   UNL     1      34.751 -15.989 -24.075  0.00  0.00    +0.033 C 
ATOM      9  C   UNL     1      34.120 -15.169 -22.985  0.00  0.00    +0.012 C 
ATOM     10  C   UNL     1      34.176 -15.585 -21.649  0.00  0.00    +0.134 C 
ATOM     11  C   UNL     1      33.489 -13.958 -23.298  0.00  0.00    -0.001 C 
ATOM     12  C   UNL     1      33.572 -14.819 -20.647  0.00  0.00    +0.037 C 
ATOM     13  C   UNL     1      32.899 -13.189 -22.295  0.00  0.00    -0.000 C 
ATOM     14  C   UNL     1      32.937 -13.622 -20.972  0.00  0.00    +0.003 C 
ENDBRANCH   4   6
ENDBRANCH   1   4
BRANCH   1  15
ATOM     15  C   UNL     1      34.871 -20.650 -20.767  0.00  0.00    -0.053 C 
BRANCH  15  17
ATOM     16  N   UNL     1      36.965 -21.904 -17.898  0.00  0.00    -0.243 NA
ATOM     17  C   UNL     1      35.245 -21.286 -19.455  0.00  0.00    -0.025 C 
ATOM     18  C   UNL     1      34.270 -21.817 -18.634  0.00  0.00    -0.003 C 
ATOM     19  C   UNL     1      34.646 -22.398 -17.428  0.00  0.00    +0.019 C 
ATOM     20  C   UNL     1      36.562 -21.347 -19.062  0.00  0.00    +0.092 C 
ATOM     21  C   UNL     1      35.995 -22.416 -17.109  0.00  0.00    +0.099 C 
BRANCH  19  23
ATOM     22  F   UNL     1      30.846 -24.583 -13.981  0.00  0.00    -0.204 F 
ATOM     23  C   UNL     1      33.663 -22.965 -16.535  0.00  0.00    +0.002 C 
ATOM     24  C   UNL     1      32.305 -22.898 -16.856  0.00  0.00    +0.002 C 
ATOM     25  C   UNL     1      34.065 -23.580 -15.349  0.00  0.00    +0.002 C 
ATOM     26  C   UNL     1      31.354 -23.444 -15.993  0.00  0.00    +0.030 C 
ATOM     27  C   UNL     1      33.114 -24.126 -14.486  0.00  0.00    +0.030 C 
ATOM     28  C   UNL     1      31.759 -24.058 -14.809  0.00  0.00    +0.140 C 
ENDBRANCH  19  23
ENDBRANCH  15  17
ENDBRANCH   1  15
TORSDOF 5
ENDMDL
