MODEL 1
REMARK VINA RESULT:     -12.5      0.000      0.000
REMARK  Name = 24794406
REMARK  5 active torsions:
REMARK  status: ('A' for Active; 'I' for Inactive)
REMARK    1  A    between atoms: C_1  and  S_24
REMARK    2  A    between atoms: C_2  and  N_8
REMARK    3  A    between atoms: C_9  and  C_11
REMARK    4  A    between atoms: C_12  and  N_18
REMARK    5  A    between atoms: S_24  and  N_28
REMARK                            x       y       z     vdW  Elec       q    Type
REMARK                         _______ _______ _______ _____ _____    ______ ____
ROOT
ATOM      1  C   UNL     1      32.908 -23.945 -14.632  0.00  0.00    +0.139 C 
ATOM      2  C   UNL     1      32.053 -23.498 -15.639  0.00  0.00    +0.070 C 
ATOM      3  C   UNL     1      32.410 -24.732 -13.593  0.00  0.00    +0.021 C 
ATOM      4  C   UNL     1      30.700 -23.837 -15.607  0.00  0.00    +0.016 C 
ATOM      5  C   UNL     1      31.057 -25.072 -13.562  0.00  0.00    +0.001 C 
ATOM      6  C   UNL     1      30.203 -24.625 -14.570  0.00  0.00    +0.001 C 
ENDROOT
BRANCH   2   8
ATOM      7  O   UNL     1      33.623 -24.255 -18.078  0.00  0.00    -0.270 OA
ATOM      8  N   UNL     1      32.532 -22.697 -16.704  0.00  0.00    -0.279 N 
ATOM      9  C   UNL     1      33.267 -23.092 -17.832  0.00  0.00    +0.250 C 
ATOM     10  H   UNL     1      32.323 -21.737 -16.646  0.00  0.00    +0.155 HD
BRANCH   9  11
ATOM     11  C   UNL     1      33.644 -22.028 -18.748  0.00  0.00    +0.054 C 
ATOM     12  C   UNL     1      34.364 -19.986 -20.507  0.00  0.00    +0.058 C 
ATOM     13  C   UNL     1      32.662 -21.209 -19.306  0.00  0.00    +0.006 C 
ATOM     14  C   UNL     1      34.985 -21.825 -19.070  0.00  0.00    +0.006 C 
ATOM     15  C   UNL     1      33.022 -20.188 -20.185  0.00  0.00    +0.015 C 
ATOM     16  C   UNL     1      35.346 -20.805 -19.949  0.00  0.00    +0.015 C 
BRANCH  12  18
ATOM     17  O   UNL     1      34.874 -20.317 -23.335  0.00  0.00    -0.269 OA
ATOM     18  N   UNL     1      34.739 -18.924 -21.421  0.00  0.00    -0.233 N 
ATOM     19  C   UNL     1      34.924 -19.209 -22.798  0.00  0.00    +0.257 C 
ATOM     20  C   UNL     1      34.944 -17.625 -20.952  0.00  0.00    +0.072 C 
ATOM     21  C   UNL     1      35.264 -18.049 -23.679  0.00  0.00    +0.059 C 
ATOM     22  C   UNL     1      35.281 -16.610 -21.755  0.00  0.00    +0.017 C 
ATOM     23  C   UNL     1      35.438 -16.832 -23.161  0.00  0.00    +0.006 C 
ENDBRANCH  12  18
ENDBRANCH   9  11
ENDBRANCH   2   8
BRANCH   1  24
ATOM     24  S   UNL     1      34.612 -23.541 -14.635  0.00  0.00    +0.076 S 
ATOM     25  O   UNL     1      35.057 -23.503 -13.248  0.00  0.00    -0.150 OA
ATOM     26  O   UNL     1      34.806 -22.366 -15.471  0.00  0.00    -0.150 OA
BRANCH  24  28
ATOM     27 CL   UNL     1      40.799 -26.307 -13.757  0.00  0.00    -0.081 Cl
ATOM     28  N   UNL     1      35.323 -24.915 -15.390  0.00  0.00    -0.199 N 
ATOM     29  N   UNL     1      37.508 -24.283 -14.731  0.00  0.00    -0.227 NA
ATOM     30  C   UNL     1      36.653 -25.296 -14.995  0.00  0.00    +0.147 C 
ATOM     31  C   UNL     1      36.987 -26.637 -14.904  0.00  0.00    +0.036 C 
ATOM     32  C   UNL     1      38.283 -26.961 -14.515  0.00  0.00    +0.016 C 
ATOM     33  C   UNL     1      38.759 -24.636 -14.357  0.00  0.00    +0.112 C 
ATOM     34  C   UNL     1      39.192 -25.946 -14.235  0.00  0.00    +0.077 C 
ATOM     35  H   UNL     1      34.834 -25.426 -16.075  0.00  0.00    +0.175 HD
ENDBRANCH  24  28
ENDBRANCH   1  24
TORSDOF 5
ENDMDL
MODEL 2
REMARK VINA RESULT:     -12.3      0.833      1.179
REMARK  Name = 24794406
REMARK  5 active torsions:
REMARK  status: ('A' for Active; 'I' for Inactive)
REMARK    1  A    between atoms: C_1  and  S_24
REMARK    2  A    between atoms: C_2  and  N_8
REMARK    3  A    between atoms: C_9  and  C_11
REMARK    4  A    between atoms: C_12  and  N_18
REMARK    5  A    between atoms: S_24  and  N_28
REMARK                            x       y       z     vdW  Elec       q    Type
REMARK                         _______ _______ _______ _____ _____    ______ ____
ROOT
ATOM      1  C   UNL     1      33.138 -23.659 -14.574  0.00  0.00    +0.139 C 
ATOM      2  C   UNL     1      32.234 -23.233 -15.546  0.00  0.00    +0.070 C 
ATOM      3  C   UNL     1      32.683 -24.366 -13.460  0.00  0.00    +0.021 C 
ATOM      4  C   UNL     1      30.875 -23.513 -15.406  0.00  0.00    +0.016 C 
ATOM      5  C   UNL     1      31.323 -24.646 -13.320  0.00  0.00    +0.001 C 
ATOM      6  C   UNL     1      30.420 -24.220 -14.294  0.00  0.00    +0.001 C 
ENDROOT
BRANCH   2   8
ATOM      7  O   UNL     1      33.653 -24.181 -18.012  0.00  0.00    -0.270 OA
ATOM      8  N   UNL     1      32.670 -22.513 -16.686  0.00  0.00    -0.279 N 
ATOM      9  C   UNL     1      33.334 -22.997 -17.823  0.00  0.00    +0.250 C 
ATOM     10  H   UNL     1      32.484 -21.547 -16.679  0.00  0.00    +0.155 HD
BRANCH   9  11
ATOM     11  C   UNL     1      33.681 -22.002 -18.825  0.00  0.00    +0.054 C 
ATOM     12  C   UNL     1      34.344 -20.094 -20.750  0.00  0.00    +0.058 C 
ATOM     13  C   UNL     1      32.681 -21.224 -19.409  0.00  0.00    +0.006 C 
ATOM     14  C   UNL     1      35.011 -21.827 -19.204  0.00  0.00    +0.006 C 
ATOM     15  C   UNL     1      33.013 -20.270 -20.372  0.00  0.00    +0.015 C 
ATOM     16  C   UNL     1      35.343 -20.874 -20.166  0.00  0.00    +0.015 C 
BRANCH  12  18
ATOM     17  O   UNL     1      34.940 -17.316 -20.212  0.00  0.00    -0.269 OA
ATOM     18  N   UNL     1      34.689 -19.103 -21.750  0.00  0.00    -0.233 N 
ATOM     19  C   UNL     1      35.000 -17.777 -21.353  0.00  0.00    +0.257 C 
ATOM     20  C   UNL     1      34.695 -19.436 -23.106  0.00  0.00    +0.072 C 
ATOM     21  C   UNL     1      35.390 -16.829 -22.442  0.00  0.00    +0.059 C 
ATOM     22  C   UNL     1      35.016 -18.561 -24.066  0.00  0.00    +0.017 C 
ATOM     23  C   UNL     1      35.380 -17.220 -23.719  0.00  0.00    +0.006 C 
ENDBRANCH  12  18
ENDBRANCH   9  11
ENDBRANCH   2   8
BRANCH   1  24
ATOM     24  S   UNL     1      34.853 -23.329 -14.713  0.00  0.00    +0.076 S 
ATOM     25  O   UNL     1      35.388 -23.210 -13.363  0.00  0.00    -0.150 OA
ATOM     26  O   UNL     1      35.035 -22.225 -15.644  0.00  0.00    -0.150 OA
BRANCH  24  28
ATOM     27 CL   UNL     1      40.854 -26.455 -13.763  0.00  0.00    -0.081 Cl
ATOM     28  N   UNL     1      35.461 -24.782 -15.407  0.00  0.00    -0.199 N 
ATOM     29  N   UNL     1      37.692 -24.266 -14.802  0.00  0.00    -0.227 NA
ATOM     30  C   UNL     1      36.768 -25.231 -15.007  0.00  0.00    +0.147 C 
ATOM     31  C   UNL     1      37.014 -26.586 -14.854  0.00  0.00    +0.036 C 
ATOM     32  C   UNL     1      38.291 -26.975 -14.463  0.00  0.00    +0.016 C 
ATOM     33  C   UNL     1      38.921 -24.683 -14.423  0.00  0.00    +0.112 C 
ATOM     34  C   UNL     1      39.268 -26.011 -14.242  0.00  0.00    +0.077 C 
ATOM     35  H   UNL     1      34.930 -25.291 -16.061  0.00  0.00    +0.175 HD
ENDBRANCH  24  28
ENDBRANCH   1  24
TORSDOF 5
ENDMDL
MODEL 3
REMARK VINA RESULT:     -10.4      3.367      5.688
REMARK  Name = 24794406
REMARK  5 active torsions:
REMARK  status: ('A' for Active; 'I' for Inactive)
REMARK    1  A    between atoms: C_1  and  S_24
REMARK    2  A    between atoms: C_2  and  N_8
REMARK    3  A    between atoms: C_9  and  C_11
REMARK    4  A    between atoms: C_12  and  N_18
REMARK    5  A    between atoms: S_24  and  N_28
REMARK                            x       y       z     vdW  Elec       q    Type
REMARK                         _______ _______ _______ _____ _____    ______ ____
ROOT
ATOM      1  C   UNL     1      35.312 -23.244 -16.361  0.00  0.00    +0.139 C 
ATOM      2  C   UNL     1      36.305 -22.378 -16.818  0.00  0.00    +0.070 C 
ATOM      3  C   UNL     1      35.592 -24.145 -15.333  0.00  0.00    +0.021 C 
ATOM      4  C   UNL     1      37.578 -22.413 -16.248  0.00  0.00    +0.016 C 
ATOM      5  C   UNL     1      36.865 -24.178 -14.762  0.00  0.00    +0.001 C 
ATOM      6  C   UNL     1      37.857 -23.311 -15.220  0.00  0.00    +0.001 C 
ENDROOT
BRANCH   2   8
ATOM      7  O   UNL     1      36.354 -22.752 -19.792  0.00  0.00    -0.270 OA
ATOM      8  N   UNL     1      36.048 -21.454 -17.861  0.00  0.00    -0.279 N 
ATOM      9  C   UNL     1      36.082 -21.670 -19.246  0.00  0.00    +0.250 C 
ATOM     10  H   UNL     1      35.816 -20.541 -17.577  0.00  0.00    +0.155 HD
BRANCH   9  11
ATOM     11  C   UNL     1      35.797 -20.511 -20.076  0.00  0.00    +0.054 C 
ATOM     12  C   UNL     1      35.252 -18.285 -21.667  0.00  0.00    +0.058 C 
ATOM     13  C   UNL     1      36.837 -19.679 -20.491  0.00  0.00    +0.006 C 
ATOM     14  C   UNL     1      34.486 -20.229 -20.456  0.00  0.00    +0.006 C 
ATOM     15  C   UNL     1      36.564 -18.566 -21.287  0.00  0.00    +0.015 C 
ATOM     16  C   UNL     1      34.212 -19.117 -21.251  0.00  0.00    +0.015 C 
BRANCH  12  18
ATOM     17  O   UNL     1      34.529 -15.663 -20.683  0.00  0.00    -0.269 OA
ATOM     18  N   UNL     1      34.968 -17.129 -22.494  0.00  0.00    -0.233 N 
ATOM     19  C   UNL     1      34.662 -15.883 -21.888  0.00  0.00    +0.257 C 
ATOM     20  C   UNL     1      34.970 -17.236 -23.887  0.00  0.00    +0.072 C 
ATOM     21  C   UNL     1      34.428 -14.731 -22.813  0.00  0.00    +0.059 C 
ATOM     22  C   UNL     1      34.724 -16.197 -24.694  0.00  0.00    +0.017 C 
ATOM     23  C   UNL     1      34.452 -14.907 -24.136  0.00  0.00    +0.006 C 
ENDBRANCH  12  18
ENDBRANCH   9  11
ENDBRANCH   2   8
BRANCH   1  24
ATOM     24  S   UNL     1      33.702 -23.233 -17.050  0.00  0.00    +0.076 S 
ATOM     25  O   UNL     1      33.674 -24.225 -18.116  0.00  0.00    -0.150 OA
ATOM     26  O   UNL     1      33.342 -21.856 -17.357  0.00  0.00    -0.150 OA
BRANCH  24  28
ATOM     27 CL   UNL     1      26.945 -22.832 -16.118  0.00  0.00    -0.081 Cl
ATOM     28  N   UNL     1      32.732 -23.810 -15.750  0.00  0.00    -0.199 N 
ATOM     29  N   UNL     1      30.901 -22.438 -16.363  0.00  0.00    -0.227 NA
ATOM     30  C   UNL     1      31.309 -23.608 -15.822  0.00  0.00    +0.147 C 
ATOM     31  C   UNL     1      30.450 -24.587 -15.351  0.00  0.00    +0.036 C 
ATOM     32  C   UNL     1      29.082 -24.351 -15.442  0.00  0.00    +0.016 C 
ATOM     33  C   UNL     1      29.565 -22.244 -16.435  0.00  0.00    +0.112 C 
ATOM     34  C   UNL     1      28.624 -23.159 -15.993  0.00  0.00    +0.077 C 
ATOM     35  H   UNL     1      33.139 -24.265 -14.978  0.00  0.00    +0.175 HD
ENDBRANCH  24  28
ENDBRANCH   1  24
TORSDOF 5
ENDMDL
MODEL 4
REMARK VINA RESULT:     -10.1      3.457      5.535
REMARK  Name = 24794406
REMARK  5 active torsions:
REMARK  status: ('A' for Active; 'I' for Inactive)
REMARK    1  A    between atoms: C_1  and  S_24
REMARK    2  A    between atoms: C_2  and  N_8
REMARK    3  A    between atoms: C_9  and  C_11
REMARK    4  A    between atoms: C_12  and  N_18
REMARK    5  A    between atoms: S_24  and  N_28
REMARK                            x       y       z     vdW  Elec       q    Type
REMARK                         _______ _______ _______ _____ _____    ______ ____
ROOT
ATOM      1  C   UNL     1      35.023 -24.126 -12.816  0.00  0.00    +0.139 C 
ATOM      2  C   UNL     1      36.083 -23.304 -13.199  0.00  0.00    +0.070 C 
ATOM      3  C   UNL     1      35.000 -24.683 -11.538  0.00  0.00    +0.021 C 
ATOM      4  C   UNL     1      37.120 -23.040 -12.304  0.00  0.00    +0.016 C 
ATOM      5  C   UNL     1      36.036 -24.418 -10.642  0.00  0.00    +0.001 C 
ATOM      6  C   UNL     1      37.096 -23.596 -11.026  0.00  0.00    +0.001 C 
ENDROOT
BRANCH   2   8
ATOM      7  O   UNL     1      38.294 -23.270 -15.224  0.00  0.00    -0.270 OA
ATOM      8  N   UNL     1      36.132 -22.726 -14.492  0.00  0.00    -0.279 N 
ATOM      9  C   UNL     1      37.191 -22.732 -15.412  0.00  0.00    +0.250 C 
ATOM     10  H   UNL     1      35.316 -22.258 -14.782  0.00  0.00    +0.155 HD
BRANCH   9  11
ATOM     11  C   UNL     1      36.951 -22.024 -16.658  0.00  0.00    +0.054 C 
ATOM     12  C   UNL     1      36.492 -20.668 -19.053  0.00  0.00    +0.058 C 
ATOM     13  C   UNL     1      35.903 -22.415 -17.492  0.00  0.00    +0.006 C 
ATOM     14  C   UNL     1      37.770 -20.956 -17.024  0.00  0.00    +0.006 C 
ATOM     15  C   UNL     1      35.673 -21.737 -18.689  0.00  0.00    +0.015 C 
ATOM     16  C   UNL     1      37.540 -20.278 -18.220  0.00  0.00    +0.015 C 
BRANCH  12  18
ATOM     17  O   UNL     1      33.980 -20.611 -20.487  0.00  0.00    -0.269 OA
ATOM     18  N   UNL     1      36.253 -19.962 -20.297  0.00  0.00    -0.233 N 
ATOM     19  C   UNL     1      34.961 -19.979 -20.883  0.00  0.00    +0.257 C 
ATOM     20  C   UNL     1      37.292 -19.284 -20.938  0.00  0.00    +0.072 C 
ATOM     21  C   UNL     1      34.789 -19.188 -22.141  0.00  0.00    +0.059 C 
ATOM     22  C   UNL     1      37.121 -18.611 -22.081  0.00  0.00    +0.017 C 
ATOM     23  C   UNL     1      35.828 -18.558 -22.694  0.00  0.00    +0.006 C 
ENDBRANCH  12  18
ENDBRANCH   9  11
ENDBRANCH   2   8
BRANCH   1  24
ATOM     24  S   UNL     1      33.702 -24.481 -13.910  0.00  0.00    +0.076 S 
ATOM     25  O   UNL     1      32.947 -25.589 -13.340  0.00  0.00    -0.150 OA
ATOM     26  O   UNL     1      34.240 -24.613 -15.256  0.00  0.00    -0.150 OA
BRANCH  24  28
ATOM     27 CL   UNL     1      27.805 -22.968 -17.012  0.00  0.00    -0.081 Cl
ATOM     28  N   UNL     1      32.735 -23.061 -13.807  0.00  0.00    -0.199 N 
ATOM     29  N   UNL     1      31.540 -23.600 -15.780  0.00  0.00    -0.227 NA
ATOM     30  C   UNL     1      31.510 -23.017 -14.561  0.00  0.00    +0.147 C 
ATOM     31  C   UNL     1      30.392 -22.401 -14.022  0.00  0.00    +0.036 C 
ATOM     32  C   UNL     1      29.228 -22.383 -14.784  0.00  0.00    +0.016 C 
ATOM     33  C   UNL     1      30.391 -23.563 -16.491  0.00  0.00    +0.112 C 
ATOM     34  C   UNL     1      29.220 -22.973 -16.044  0.00  0.00    +0.077 C 
ATOM     35  H   UNL     1      33.013 -22.299 -13.250  0.00  0.00    +0.175 HD
ENDBRANCH  24  28
ENDBRANCH   1  24
TORSDOF 5
ENDMDL
MODEL 5
REMARK VINA RESULT:     -10.0      5.493     11.370
REMARK  Name = 24794406
REMARK  5 active torsions:
REMARK  status: ('A' for Active; 'I' for Inactive)
REMARK    1  A    between atoms: C_1  and  S_24
REMARK    2  A    between atoms: C_2  and  N_8
REMARK    3  A    between atoms: C_9  and  C_11
REMARK    4  A    between atoms: C_12  and  N_18
REMARK    5  A    between atoms: S_24  and  N_28
REMARK                            x       y       z     vdW  Elec       q    Type
REMARK                         _______ _______ _______ _____ _____    ______ ____
ROOT
ATOM      1  C   UNL     1      34.100 -15.256 -22.782  0.00  0.00    +0.139 C 
ATOM      2  C   UNL     1      34.545 -16.527 -23.144  0.00  0.00    +0.070 C 
ATOM      3  C   UNL     1      34.008 -14.249 -23.743  0.00  0.00    +0.021 C 
ATOM      4  C   UNL     1      34.900 -16.792 -24.467  0.00  0.00    +0.016 C 
ATOM      5  C   UNL     1      34.361 -14.515 -25.067  0.00  0.00    +0.001 C 
ATOM      6  C   UNL     1      34.807 -15.786 -25.428  0.00  0.00    +0.001 C 
ENDROOT
BRANCH   2   8
ATOM      7  O   UNL     1      35.107 -19.449 -23.512  0.00  0.00    -0.270 OA
ATOM      8  N   UNL     1      34.649 -17.567 -22.187  0.00  0.00    -0.279 N 
ATOM      9  C   UNL     1      34.914 -18.928 -22.402  0.00  0.00    +0.250 C 
ATOM     10  H   UNL     1      34.517 -17.301 -21.249  0.00  0.00    +0.155 HD
BRANCH   9  11
ATOM     11  C   UNL     1      34.931 -19.765 -21.214  0.00  0.00    +0.054 C 
ATOM     12  C   UNL     1      34.962 -21.372 -18.933  0.00  0.00    +0.058 C 
ATOM     13  C   UNL     1      33.731 -20.170 -20.630  0.00  0.00    +0.006 C 
ATOM     14  C   UNL     1      36.146 -20.163 -20.657  0.00  0.00    +0.006 C 
ATOM     15  C   UNL     1      33.747 -20.974 -19.489  0.00  0.00    +0.015 C 
ATOM     16  C   UNL     1      36.162 -20.966 -19.517  0.00  0.00    +0.015 C 
BRANCH  12  18
ATOM     17  O   UNL     1      32.694 -22.827 -17.882  0.00  0.00    -0.269 OA
ATOM     18  N   UNL     1      34.979 -22.207 -17.748  0.00  0.00    -0.233 N 
ATOM     19  C   UNL     1      33.806 -22.903 -17.356  0.00  0.00    +0.257 C 
ATOM     20  C   UNL     1      36.136 -22.314 -16.973  0.00  0.00    +0.072 C 
ATOM     21  C   UNL     1      33.922 -23.778 -16.149  0.00  0.00    +0.059 C 
ATOM     22  C   UNL     1      36.205 -23.078 -15.877  0.00  0.00    +0.017 C 
ATOM     23  C   UNL     1      35.064 -23.836 -15.460  0.00  0.00    +0.006 C 
ENDBRANCH  12  18
ENDBRANCH   9  11
ENDBRANCH   2   8
BRANCH   1  24
ATOM     24  S   UNL     1      33.646 -14.883 -21.132  0.00  0.00    +0.076 S 
ATOM     25  O   UNL     1      34.593 -13.897 -20.628  0.00  0.00    -0.150 OA
ATOM     26  O   UNL     1      33.476 -16.134 -20.407  0.00  0.00    -0.150 OA
BRANCH  24  28
ATOM     27 CL   UNL     1      31.655  -8.596 -19.345  0.00  0.00    -0.081 Cl
ATOM     28  N   UNL     1      32.119 -14.114 -21.326  0.00  0.00    -0.199 N 
ATOM     29  N   UNL     1      32.639 -12.436 -19.738  0.00  0.00    -0.227 NA
ATOM     30  C   UNL     1      31.980 -12.755 -20.874  0.00  0.00    +0.147 C 
ATOM     31  C   UNL     1      31.205 -11.863 -21.597  0.00  0.00    +0.036 C 
ATOM     32  C   UNL     1      31.100 -10.559 -21.125  0.00  0.00    +0.016 C 
ATOM     33  C   UNL     1      32.514 -11.160 -19.309  0.00  0.00    +0.112 C 
ATOM     34  C   UNL     1      31.764 -10.193 -19.959  0.00  0.00    +0.077 C 
ATOM     35  H   UNL     1      31.360 -14.590 -21.735  0.00  0.00    +0.175 HD
ENDBRANCH  24  28
ENDBRANCH   1  24
TORSDOF 5
ENDMDL
MODEL 6
REMARK VINA RESULT:      -9.7      1.585      2.010
REMARK  Name = 24794406
REMARK  5 active torsions:
REMARK  status: ('A' for Active; 'I' for Inactive)
REMARK    1  A    between atoms: C_1  and  S_24
REMARK    2  A    between atoms: C_2  and  N_8
REMARK    3  A    between atoms: C_9  and  C_11
REMARK    4  A    between atoms: C_12  and  N_18
REMARK    5  A    between atoms: S_24  and  N_28
REMARK                            x       y       z     vdW  Elec       q    Type
REMARK                         _______ _______ _______ _____ _____    ______ ____
ROOT
ATOM      1  C   UNL     1      32.313 -23.986 -14.915  0.00  0.00    +0.139 C 
ATOM      2  C   UNL     1      31.547 -23.502 -15.975  0.00  0.00    +0.070 C 
ATOM      3  C   UNL     1      31.723 -24.791 -13.939  0.00  0.00    +0.021 C 
ATOM      4  C   UNL     1      30.192 -23.821 -16.060  0.00  0.00    +0.016 C 
ATOM      5  C   UNL     1      30.368 -25.111 -14.025  0.00  0.00    +0.001 C 
ATOM      6  C   UNL     1      29.603 -24.626 -15.086  0.00  0.00    +0.001 C 
ENDROOT
BRANCH   2   8
ATOM      7  O   UNL     1      33.479 -24.184 -18.165  0.00  0.00    -0.270 OA
ATOM      8  N   UNL     1      32.121 -22.683 -16.978  0.00  0.00    -0.279 N 
ATOM      9  C   UNL     1      33.025 -23.042 -17.988  0.00  0.00    +0.250 C 
ATOM     10  H   UNL     1      31.851 -21.736 -16.964  0.00  0.00    +0.155 HD
BRANCH   9  11
ATOM     11  C   UNL     1      33.462 -21.965 -18.862  0.00  0.00    +0.054 C 
ATOM     12  C   UNL     1      34.302 -19.898 -20.536  0.00  0.00    +0.058 C 
ATOM     13  C   UNL     1      34.817 -21.811 -19.153  0.00  0.00    +0.006 C 
ATOM     14  C   UNL     1      32.527 -21.085 -19.407  0.00  0.00    +0.006 C 
ATOM     15  C   UNL     1      35.237 -20.776 -19.990  0.00  0.00    +0.015 C 
ATOM     16  C   UNL     1      32.947 -20.052 -20.244  0.00  0.00    +0.015 C 
BRANCH  12  18
ATOM     17  O   UNL     1      34.888 -20.164 -23.356  0.00  0.00    -0.269 OA
ATOM     18  N   UNL     1      34.738 -18.823 -21.406  0.00  0.00    -0.233 N 
ATOM     19  C   UNL     1      34.956 -19.074 -22.786  0.00  0.00    +0.257 C 
ATOM     20  C   UNL     1      34.970 -17.545 -20.893  0.00  0.00    +0.072 C 
ATOM     21  C   UNL     1      35.360 -17.901 -23.621  0.00  0.00    +0.059 C 
ATOM     22  C   UNL     1      35.363 -16.519 -21.656  0.00  0.00    +0.017 C 
ATOM     23  C   UNL     1      35.556 -16.705 -23.062  0.00  0.00    +0.006 C 
ENDBRANCH  12  18
ENDBRANCH   9  11
ENDBRANCH   2   8
BRANCH   1  24
ATOM     24  S   UNL     1      34.017 -23.608 -14.771  0.00  0.00    +0.076 S 
ATOM     25  O   UNL     1      34.160 -22.166 -14.911  0.00  0.00    -0.150 OA
ATOM     26  O   UNL     1      34.760 -24.482 -15.669  0.00  0.00    -0.150 OA
BRANCH  24  28
ATOM     27 CL   UNL     1      39.949 -23.516 -11.382  0.00  0.00    -0.081 Cl
ATOM     28  N   UNL     1      34.360 -24.028 -13.138  0.00  0.00    -0.199 N 
ATOM     29  N   UNL     1      36.684 -24.207 -13.557  0.00  0.00    -0.227 NA
ATOM     30  C   UNL     1      35.714 -23.891 -12.670  0.00  0.00    +0.147 C 
ATOM     31  C   UNL     1      35.956 -23.454 -11.378  0.00  0.00    +0.036 C 
ATOM     32  C   UNL     1      37.280 -23.334 -10.969  0.00  0.00    +0.016 C 
ATOM     33  C   UNL     1      37.958 -24.078 -13.123  0.00  0.00    +0.112 C 
ATOM     34  C   UNL     1      38.306 -23.650 -11.853  0.00  0.00    +0.077 C 
ATOM     35  H   UNL     1      33.650 -24.354 -12.539  0.00  0.00    +0.175 HD
ENDBRANCH  24  28
ENDBRANCH   1  24
TORSDOF 5
ENDMDL
MODEL 7
REMARK VINA RESULT:      -9.6     11.827     17.864
REMARK  Name = 24794406
REMARK  5 active torsions:
REMARK  status: ('A' for Active; 'I' for Inactive)
REMARK    1  A    between atoms: C_1  and  S_24
REMARK    2  A    between atoms: C_2  and  N_8
REMARK    3  A    between atoms: C_9  and  C_11
REMARK    4  A    between atoms: C_12  and  N_18
REMARK    5  A    between atoms: S_24  and  N_28
REMARK                            x       y       z     vdW  Elec       q    Type
REMARK                         _______ _______ _______ _____ _____    ______ ____
ROOT
ATOM      1  C   UNL     1      32.034  -5.384 -23.323  0.00  0.00    +0.139 C 
ATOM      2  C   UNL     1      31.482  -6.416 -22.564  0.00  0.00    +0.070 C 
ATOM      3  C   UNL     1      31.618  -4.068 -23.118  0.00  0.00    +0.021 C 
ATOM      4  C   UNL     1      30.512  -6.133 -21.602  0.00  0.00    +0.016 C 
ATOM      5  C   UNL     1      30.649  -3.785 -22.155  0.00  0.00    +0.001 C 
ATOM      6  C   UNL     1      30.096  -4.818 -21.397  0.00  0.00    +0.001 C 
ENDROOT
BRANCH   2   8
ATOM      7  O   UNL     1      32.023  -8.575 -20.556  0.00  0.00    -0.270 OA
ATOM      8  N   UNL     1      31.886  -7.760 -22.753  0.00  0.00    -0.279 N 
ATOM      9  C   UNL     1      32.130  -8.743 -21.782  0.00  0.00    +0.250 C 
ATOM     10  H   UNL     1      32.014  -8.042 -23.687  0.00  0.00    +0.155 HD
BRANCH   9  11
ATOM     11  C   UNL     1      32.564 -10.036 -22.284  0.00  0.00    +0.054 C 
ATOM     12  C   UNL     1      33.397 -12.517 -23.250  0.00  0.00    +0.058 C 
ATOM     13  C   UNL     1      33.473 -10.104 -23.340  0.00  0.00    +0.006 C 
ATOM     14  C   UNL     1      32.072 -11.209 -21.712  0.00  0.00    +0.006 C 
ATOM     15  C   UNL     1      33.889 -11.345 -23.823  0.00  0.00    +0.015 C 
ATOM     16  C   UNL     1      32.488 -12.449 -22.194  0.00  0.00    +0.015 C 
BRANCH  12  18
ATOM     17  O   UNL     1      35.080 -14.387 -21.822  0.00  0.00    -0.269 OA
ATOM     18  N   UNL     1      33.830 -13.807 -23.751  0.00  0.00    -0.233 N 
ATOM     19  C   UNL     1      34.625 -14.653 -22.936  0.00  0.00    +0.257 C 
ATOM     20  C   UNL     1      33.490 -14.216 -25.044  0.00  0.00    +0.072 C 
ATOM     21  C   UNL     1      34.989 -15.985 -23.512  0.00  0.00    +0.059 C 
ATOM     22  C   UNL     1      33.856 -15.399 -25.549  0.00  0.00    +0.017 C 
ATOM     23  C   UNL     1      34.623 -16.310 -24.753  0.00  0.00    +0.006 C 
ENDBRANCH  12  18
ENDBRANCH   9  11
ENDBRANCH   2   8
BRANCH   1  24
ATOM     24  S   UNL     1      33.254  -5.697 -24.540  0.00  0.00    +0.076 S 
ATOM     25  O   UNL     1      32.681  -6.623 -25.507  0.00  0.00    -0.150 OA
ATOM     26  O   UNL     1      34.495  -6.055 -23.868  0.00  0.00    -0.150 OA
BRANCH  24  28
ATOM     27 CL   UNL     1      36.956  -3.918 -30.000  0.00  0.00    -0.081 Cl
ATOM     28  N   UNL     1      33.428  -4.163 -25.302  0.00  0.00    -0.199 N 
ATOM     29  N   UNL     1      35.381  -4.837 -26.459  0.00  0.00    -0.227 NA
ATOM     30  C   UNL     1      34.265  -4.075 -26.469  0.00  0.00    +0.147 C 
ATOM     31  C   UNL     1      33.903  -3.242 -27.515  0.00  0.00    +0.036 C 
ATOM     32  C   UNL     1      34.741  -3.189 -28.624  0.00  0.00    +0.016 C 
ATOM     33  C   UNL     1      36.171  -4.760 -27.554  0.00  0.00    +0.112 C 
ATOM     34  C   UNL     1      35.899  -3.960 -28.651  0.00  0.00    +0.077 C 
ATOM     35  H   UNL     1      32.968  -3.367 -24.949  0.00  0.00    +0.175 HD
ENDBRANCH  24  28
ENDBRANCH   1  24
TORSDOF 5
ENDMDL
