MODEL 1
REMARK VINA RESULT:     -11.8      0.000      0.000
REMARK  Name = 24941248
REMARK  7 active torsions:
REMARK  status: ('A' for Active; 'I' for Inactive)
REMARK    1  A    between atoms: N_2  and  C_24
REMARK    2  A    between atoms: C_6  and  C_14
REMARK    3  A    between atoms: C_13  and  C_19
REMARK    4  A    between atoms: C_19  and  C_20
REMARK    5  A    between atoms: C_20  and  C_21
REMARK    6  A    between atoms: C_21  and  O_22
REMARK    7  A    between atoms: C_24  and  C_26
REMARK                            x       y       z     vdW  Elec       q    Type
REMARK                         _______ _______ _______ _____ _____    ______ ____
ROOT
ATOM      1  O   UNL     1      33.965 -15.421 -26.044  0.00  0.00    -0.352 OA
ATOM      2  N   UNL     1      35.597 -17.795 -21.442  0.00  0.00    -0.316 N 
ATOM      3  N   UNL     1      33.522 -14.176 -25.615  0.00  0.00    -0.077 NA
ATOM      4  N   UNL     1      35.318 -17.953 -23.802  0.00  0.00    -0.226 NA
ATOM      5  C   UNL     1      34.269 -15.377 -23.824  0.00  0.00    +0.062 A 
ATOM      6  C   UNL     1      33.711 -14.170 -24.292  0.00  0.00    +0.123 A 
ATOM      7  C   UNL     1      35.183 -17.215 -22.670  0.00  0.00    +0.129 C 
ATOM      8  C   UNL     1      34.669 -15.923 -22.604  0.00  0.00    +0.039 C 
ATOM      9  C   UNL     1      34.409 -16.133 -24.975  0.00  0.00    +0.196 A 
ATOM     10  C   UNL     1      34.928 -17.414 -24.983  0.00  0.00    +0.140 C 
ATOM     11  H   UNL     1      35.504 -17.269 -20.615  0.00  0.00    +0.148 HD
ENDROOT
BRANCH   6  14
ATOM     12 CL   UNL     1      34.063  -9.077 -23.573  0.00  0.00    -0.082 Cl
ATOM     13  C   UNL     1      32.194 -12.035 -21.634  0.00  0.00    -0.021 C 
ATOM     14  C   UNL     1      33.356 -13.014 -23.512  0.00  0.00    +0.021 C 
ATOM     15  C   UNL     1      32.540 -13.155 -22.389  0.00  0.00    -0.003 C 
ATOM     16  C   UNL     1      32.666 -10.773 -22.000  0.00  0.00    +0.007 C 
ATOM     17  C   UNL     1      33.827 -11.753 -23.878  0.00  0.00    +0.013 C 
ATOM     18  C   UNL     1      33.481 -10.633 -23.122  0.00  0.00    +0.057 C 
BRANCH  13  19
ATOM     19  C   UNL     1      31.321 -12.184 -20.434  0.00  0.00    +0.029 C 
BRANCH  19  20
ATOM     20  C   UNL     1      30.886 -10.830 -19.859  0.00  0.00    +0.036 C 
BRANCH  20  21
ATOM     21  C   UNL     1      31.496 -10.566 -18.490  0.00  0.00    +0.138 C 
BRANCH  21  22
ATOM     22  O   UNL     1      32.613  -9.701 -18.644  0.00  0.00    -0.382 OA
ATOM     23  H   UNL     1      32.330  -8.884 -19.084  0.00  0.00    +0.210 HD
ENDBRANCH  21  22
ENDBRANCH  20  21
ENDBRANCH  19  20
ENDBRANCH  13  19
ENDBRANCH   6  14
BRANCH   2  24
ATOM     24  C   UNL     1      36.140 -19.111 -21.358  0.00  0.00    +0.093 C 
ATOM     25  C   UNL     1      37.540 -19.045 -20.752  0.00  0.00    +0.026 C 
BRANCH  24  26
ATOM     26  C   UNL     1      35.204 -20.015 -20.587  0.00  0.00    -0.005 C 
ATOM     27  C   UNL     1      33.825 -19.845 -20.693  0.00  0.00    -0.003 C 
ATOM     28  C   UNL     1      35.722 -21.020 -19.769  0.00  0.00    -0.003 C 
ATOM     29  C   UNL     1      32.961 -20.679 -19.981  0.00  0.00    -0.000 C 
ATOM     30  C   UNL     1      34.859 -21.854 -19.058  0.00  0.00    -0.000 C 
ATOM     31  C   UNL     1      33.479 -21.684 -19.165  0.00  0.00    -0.000 C 
ENDBRANCH  24  26
ENDBRANCH   2  24
TORSDOF 7
ENDMDL
MODEL 2
REMARK VINA RESULT:     -11.6      1.599      2.083
REMARK  Name = 24941248
REMARK  7 active torsions:
REMARK  status: ('A' for Active; 'I' for Inactive)
REMARK    1  A    between atoms: N_2  and  C_24
REMARK    2  A    between atoms: C_6  and  C_14
REMARK    3  A    between atoms: C_13  and  C_19
REMARK    4  A    between atoms: C_19  and  C_20
REMARK    5  A    between atoms: C_20  and  C_21
REMARK    6  A    between atoms: C_21  and  O_22
REMARK    7  A    between atoms: C_24  and  C_26
REMARK                            x       y       z     vdW  Elec       q    Type
REMARK                         _______ _______ _______ _____ _____    ______ ____
ROOT
ATOM      1  O   UNL     1      33.831 -14.790 -25.726  0.00  0.00    -0.352 OA
ATOM      2  N   UNL     1      35.419 -17.623 -21.375  0.00  0.00    -0.316 N 
ATOM      3  N   UNL     1      33.324 -13.621 -25.172  0.00  0.00    -0.077 NA
ATOM      4  N   UNL     1      35.220 -17.513 -23.746  0.00  0.00    -0.226 NA
ATOM      5  C   UNL     1      34.065 -14.994 -23.507  0.00  0.00    +0.062 A 
ATOM      6  C   UNL     1      33.472 -13.763 -23.851  0.00  0.00    +0.123 A 
ATOM      7  C   UNL     1      35.019 -16.919 -22.541  0.00  0.00    +0.129 C 
ATOM      8  C   UNL     1      34.450 -15.664 -22.344  0.00  0.00    +0.039 C 
ATOM      9  C   UNL     1      34.272 -15.605 -24.731  0.00  0.00    +0.196 A 
ATOM     10  C   UNL     1      34.844 -16.855 -24.869  0.00  0.00    +0.140 C 
ATOM     11  H   UNL     1      35.279 -17.201 -20.496  0.00  0.00    +0.148 HD
ENDROOT
BRANCH   6  14
ATOM     12 CL   UNL     1      31.469 -12.439 -19.288  0.00  0.00    -0.082 Cl
ATOM     13  C   UNL     1      32.737 -10.374 -22.471  0.00  0.00    -0.021 C 
ATOM     14  C   UNL     1      33.044 -12.721 -22.955  0.00  0.00    +0.021 C 
ATOM     15  C   UNL     1      33.150 -11.384 -23.339  0.00  0.00    -0.003 C 
ATOM     16  C   UNL     1      32.217 -10.701 -21.218  0.00  0.00    +0.007 C 
ATOM     17  C   UNL     1      32.524 -13.047 -21.702  0.00  0.00    +0.013 C 
ATOM     18  C   UNL     1      32.111 -12.037 -20.834  0.00  0.00    +0.057 C 
BRANCH  13  19
ATOM     19  C   UNL     1      32.851  -8.945 -22.881  0.00  0.00    +0.029 C 
BRANCH  19  20
ATOM     20  C   UNL     1      32.212  -7.994 -21.860  0.00  0.00    +0.036 C 
BRANCH  20  21
ATOM     21  C   UNL     1      33.254  -7.207 -21.079  0.00  0.00    +0.138 C 
BRANCH  21  22
ATOM     22  O   UNL     1      33.277  -7.681 -19.739  0.00  0.00    -0.382 OA
ATOM     23  H   UNL     1      32.809  -7.053 -19.167  0.00  0.00    +0.210 HD
ENDBRANCH  21  22
ENDBRANCH  20  21
ENDBRANCH  19  20
ENDBRANCH  13  19
ENDBRANCH   6  14
BRANCH   2  24
ATOM     24  C   UNL     1      36.014 -18.917 -21.425  0.00  0.00    +0.093 C 
ATOM     25  C   UNL     1      37.459 -18.831 -20.940  0.00  0.00    +0.026 C 
BRANCH  24  26
ATOM     26  C   UNL     1      35.183 -19.906 -20.636  0.00  0.00    -0.005 C 
ATOM     27  C   UNL     1      33.792 -19.839 -20.680  0.00  0.00    -0.003 C 
ATOM     28  C   UNL     1      35.811 -20.884 -19.864  0.00  0.00    -0.003 C 
ATOM     29  C   UNL     1      33.025 -20.750 -19.952  0.00  0.00    -0.000 C 
ATOM     30  C   UNL     1      35.045 -21.795 -19.136  0.00  0.00    -0.000 C 
ATOM     31  C   UNL     1      33.653 -21.729 -19.181  0.00  0.00    -0.000 C 
ENDBRANCH  24  26
ENDBRANCH   2  24
TORSDOF 7
ENDMDL
MODEL 3
REMARK VINA RESULT:     -10.5      3.749      9.840
REMARK  Name = 24941248
REMARK  7 active torsions:
REMARK  status: ('A' for Active; 'I' for Inactive)
REMARK    1  A    between atoms: N_2  and  C_24
REMARK    2  A    between atoms: C_6  and  C_14
REMARK    3  A    between atoms: C_13  and  C_19
REMARK    4  A    between atoms: C_19  and  C_20
REMARK    5  A    between atoms: C_20  and  C_21
REMARK    6  A    between atoms: C_21  and  O_22
REMARK    7  A    between atoms: C_24  and  C_26
REMARK                            x       y       z     vdW  Elec       q    Type
REMARK                         _______ _______ _______ _____ _____    ______ ____
ROOT
ATOM      1  O   UNL     1      31.781 -13.257 -19.934  0.00  0.00    -0.352 OA
ATOM      2  N   UNL     1      32.926  -8.935 -23.014  0.00  0.00    -0.316 N 
ATOM      3  N   UNL     1      32.318 -14.312 -20.662  0.00  0.00    -0.077 NA
ATOM      4  N   UNL     1      31.936  -9.784 -21.022  0.00  0.00    -0.226 NA
ATOM      5  C   UNL     1      32.683 -12.355 -21.777  0.00  0.00    +0.062 A 
ATOM      6  C   UNL     1      32.849 -13.754 -21.754  0.00  0.00    +0.123 A 
ATOM      7  C   UNL     1      32.605 -10.035 -22.176  0.00  0.00    +0.129 C 
ATOM      8  C   UNL     1      33.011 -11.291 -22.619  0.00  0.00    +0.039 C 
ATOM      9  C   UNL     1      32.000 -12.093 -20.602  0.00  0.00    +0.196 A 
ATOM     10  C   UNL     1      31.621 -10.823 -20.210  0.00  0.00    +0.140 C 
ATOM     11  H   UNL     1      33.413  -9.105 -23.853  0.00  0.00    +0.148 HD
ENDROOT
BRANCH   6  14
ATOM     12 CL   UNL     1      33.791 -14.710 -26.732  0.00  0.00    -0.082 Cl
ATOM     13  C   UNL     1      34.918 -16.443 -23.308  0.00  0.00    -0.021 C 
ATOM     14  C   UNL     1      33.501 -14.570 -22.744  0.00  0.00    +0.021 C 
ATOM     15  C   UNL     1      34.286 -15.653 -22.348  0.00  0.00    -0.003 C 
ATOM     16  C   UNL     1      34.765 -16.152 -24.663  0.00  0.00    +0.007 C 
ATOM     17  C   UNL     1      33.348 -14.278 -24.100  0.00  0.00    +0.013 C 
ATOM     18  C   UNL     1      33.980 -15.069 -25.059  0.00  0.00    +0.057 C 
BRANCH  13  19
ATOM     19  C   UNL     1      35.759 -17.601 -22.885  0.00  0.00    +0.029 C 
BRANCH  19  20
ATOM     20  C   UNL     1      34.986 -18.925 -22.923  0.00  0.00    +0.036 C 
BRANCH  20  21
ATOM     21  C   UNL     1      34.857 -19.554 -21.543  0.00  0.00    +0.138 C 
BRANCH  21  22
ATOM     22  O   UNL     1      35.723 -18.872 -20.645  0.00  0.00    -0.382 OA
ATOM     23  H   UNL     1      36.208 -19.520 -20.110  0.00  0.00    +0.210 HD
ENDBRANCH  21  22
ENDBRANCH  20  21
ENDBRANCH  19  20
ENDBRANCH  13  19
ENDBRANCH   6  14
BRANCH   2  24
ATOM     24  C   UNL     1      32.572  -7.592 -22.689  0.00  0.00    +0.093 C 
ATOM     25  C   UNL     1      33.020  -7.279 -21.264  0.00  0.00    +0.026 C 
BRANCH  24  26
ATOM     26  C   UNL     1      33.146  -6.638 -23.713  0.00  0.00    -0.005 C 
ATOM     27  C   UNL     1      32.366  -5.593 -24.208  0.00  0.00    -0.003 C 
ATOM     28  C   UNL     1      34.457  -6.802 -24.162  0.00  0.00    -0.003 C 
ATOM     29  C   UNL     1      32.895  -4.713 -25.153  0.00  0.00    -0.000 C 
ATOM     30  C   UNL     1      34.986  -5.923 -25.106  0.00  0.00    -0.000 C 
ATOM     31  C   UNL     1      34.206  -4.878 -25.601  0.00  0.00    -0.000 C 
ENDBRANCH  24  26
ENDBRANCH   2  24
TORSDOF 7
ENDMDL
MODEL 4
REMARK VINA RESULT:     -10.4      7.701     12.866
REMARK  Name = 24941248
REMARK  7 active torsions:
REMARK  status: ('A' for Active; 'I' for Inactive)
REMARK    1  A    between atoms: N_2  and  C_24
REMARK    2  A    between atoms: C_6  and  C_14
REMARK    3  A    between atoms: C_13  and  C_19
REMARK    4  A    between atoms: C_19  and  C_20
REMARK    5  A    between atoms: C_20  and  C_21
REMARK    6  A    between atoms: C_21  and  O_22
REMARK    7  A    between atoms: C_24  and  C_26
REMARK                            x       y       z     vdW  Elec       q    Type
REMARK                         _______ _______ _______ _____ _____    ______ ____
ROOT
ATOM      1  O   UNL     1      31.490 -24.015 -14.542  0.00  0.00    -0.352 OA
ATOM      2  N   UNL     1      34.563 -22.048 -18.563  0.00  0.00    -0.316 N 
ATOM      3  N   UNL     1      32.428 -24.459 -13.618  0.00  0.00    -0.077 NA
ATOM      4  N   UNL     1      32.376 -22.468 -17.719  0.00  0.00    -0.226 NA
ATOM      5  C   UNL     1      33.501 -23.575 -15.428  0.00  0.00    +0.062 A 
ATOM      6  C   UNL     1      33.618 -24.188 -14.165  0.00  0.00    +0.123 A 
ATOM      7  C   UNL     1      33.719 -22.550 -17.537  0.00  0.00    +0.129 C 
ATOM      8  C   UNL     1      34.353 -23.089 -16.421  0.00  0.00    +0.039 C 
ATOM      9  C   UNL     1      32.133 -23.490 -15.619  0.00  0.00    +0.196 A 
ATOM     10  C   UNL     1      31.556 -22.942 -16.749  0.00  0.00    +0.140 C 
ATOM     11  H   UNL     1      35.539 -22.101 -18.442  0.00  0.00    +0.148 HD
ENDROOT
BRANCH   6  14
ATOM     12 CL   UNL     1      36.295 -24.180  -9.759  0.00  0.00    -0.082 Cl
ATOM     13  C   UNL     1      37.055 -25.466 -13.470  0.00  0.00    -0.021 C 
ATOM     14  C   UNL     1      34.831 -24.522 -13.467  0.00  0.00    +0.021 C 
ATOM     15  C   UNL     1      35.879 -25.142 -14.147  0.00  0.00    -0.003 C 
ATOM     16  C   UNL     1      37.183 -25.169 -12.113  0.00  0.00    +0.007 C 
ATOM     17  C   UNL     1      34.960 -24.224 -12.110  0.00  0.00    +0.013 C 
ATOM     18  C   UNL     1      36.136 -24.548 -11.433  0.00  0.00    +0.057 C 
BRANCH  13  19
ATOM     19  C   UNL     1      38.174 -26.131 -14.196  0.00  0.00    +0.029 C 
BRANCH  19  20
ATOM     20  C   UNL     1      39.542 -25.798 -13.587  0.00  0.00    +0.036 C 
BRANCH  20  21
ATOM     21  C   UNL     1      40.506 -25.228 -14.618  0.00  0.00    +0.138 C 
BRANCH  21  22
ATOM     22  O   UNL     1      40.540 -26.095 -15.743  0.00  0.00    -0.382 OA
ATOM     23  H   UNL     1      40.001 -25.719 -16.456  0.00  0.00    +0.210 HD
ENDBRANCH  21  22
ENDBRANCH  20  21
ENDBRANCH  19  20
ENDBRANCH  13  19
ENDBRANCH   6  14
BRANCH   2  24
ATOM     24  C   UNL     1      34.054 -21.470 -19.763  0.00  0.00    +0.093 C 
ATOM     25  C   UNL     1      32.705 -20.813 -19.478  0.00  0.00    +0.026 C 
BRANCH  24  26
ATOM     26  C   UNL     1      35.065 -20.512 -20.352  0.00  0.00    -0.005 C 
ATOM     27  C   UNL     1      36.391 -20.547 -19.924  0.00  0.00    -0.003 C 
ATOM     28  C   UNL     1      34.671 -19.593 -21.325  0.00  0.00    -0.003 C 
ATOM     29  C   UNL     1      37.325 -19.663 -20.467  0.00  0.00    -0.000 C 
ATOM     30  C   UNL     1      35.603 -18.709 -21.868  0.00  0.00    -0.000 C 
ATOM     31  C   UNL     1      36.930 -18.745 -21.439  0.00  0.00    -0.000 C 
ENDBRANCH  24  26
ENDBRANCH   2  24
TORSDOF 7
ENDMDL
MODEL 5
REMARK VINA RESULT:      -9.8      3.662      9.566
REMARK  Name = 24941248
REMARK  7 active torsions:
REMARK  status: ('A' for Active; 'I' for Inactive)
REMARK    1  A    between atoms: N_2  and  C_24
REMARK    2  A    between atoms: C_6  and  C_14
REMARK    3  A    between atoms: C_13  and  C_19
REMARK    4  A    between atoms: C_19  and  C_20
REMARK    5  A    between atoms: C_20  and  C_21
REMARK    6  A    between atoms: C_21  and  O_22
REMARK    7  A    between atoms: C_24  and  C_26
REMARK                            x       y       z     vdW  Elec       q    Type
REMARK                         _______ _______ _______ _____ _____    ______ ____
ROOT
ATOM      1  O   UNL     1      31.841 -13.640 -19.355  0.00  0.00    -0.352 OA
ATOM      2  N   UNL     1      32.698  -9.556 -22.829  0.00  0.00    -0.316 N 
ATOM      3  N   UNL     1      32.488 -14.710 -19.962  0.00  0.00    -0.077 NA
ATOM      4  N   UNL     1      31.727 -10.290 -20.782  0.00  0.00    -0.226 NA
ATOM      5  C   UNL     1      32.714 -12.846 -21.261  0.00  0.00    +0.062 A 
ATOM      6  C   UNL     1      33.000 -14.216 -21.094  0.00  0.00    +0.123 A 
ATOM      7  C   UNL     1      32.449 -10.593 -21.892  0.00  0.00    +0.129 C 
ATOM      8  C   UNL     1      32.974 -11.845 -22.198  0.00  0.00    +0.039 C 
ATOM      9  C   UNL     1      31.978 -12.533 -20.132  0.00  0.00    +0.196 A 
ATOM     10  C   UNL     1      31.480 -11.269 -19.877  0.00  0.00    +0.140 C 
ATOM     11  H   UNL     1      33.221  -9.764 -23.637  0.00  0.00    +0.148 HD
ENDROOT
BRANCH   6  14
ATOM     12 CL   UNL     1      36.316 -18.118 -21.692  0.00  0.00    -0.082 Cl
ATOM     13  C   UNL     1      34.371 -15.712 -24.227  0.00  0.00    -0.021 C 
ATOM     14  C   UNL     1      33.748 -15.065 -21.985  0.00  0.00    +0.021 C 
ATOM     15  C   UNL     1      33.648 -14.889 -23.364  0.00  0.00    -0.003 C 
ATOM     16  C   UNL     1      35.197 -16.710 -23.709  0.00  0.00    +0.007 C 
ATOM     17  C   UNL     1      34.574 -16.064 -21.467  0.00  0.00    +0.013 C 
ATOM     18  C   UNL     1      35.297 -16.886 -22.330  0.00  0.00    +0.057 C 
BRANCH  13  19
ATOM     19  C   UNL     1      34.263 -15.525 -25.702  0.00  0.00    +0.029 C 
BRANCH  19  20
ATOM     20  C   UNL     1      33.094 -14.609 -26.088  0.00  0.00    +0.036 C 
BRANCH  20  21
ATOM     21  C   UNL     1      33.569 -13.301 -26.703  0.00  0.00    +0.138 C 
BRANCH  21  22
ATOM     22  O   UNL     1      33.777 -12.353 -25.665  0.00  0.00    -0.382 OA
ATOM     23  H   UNL     1      34.691 -12.417 -25.348  0.00  0.00    +0.210 HD
ENDBRANCH  21  22
ENDBRANCH  20  21
ENDBRANCH  19  20
ENDBRANCH  13  19
ENDBRANCH   6  14
BRANCH   2  24
ATOM     24  C   UNL     1      32.220  -8.225 -22.647  0.00  0.00    +0.093 C 
ATOM     25  C   UNL     1      32.250  -7.872 -21.162  0.00  0.00    +0.026 C 
BRANCH  24  26
ATOM     26  C   UNL     1      33.018  -7.262 -23.500  0.00  0.00    -0.005 C 
ATOM     27  C   UNL     1      34.405  -7.377 -23.569  0.00  0.00    -0.003 C 
ATOM     28  C   UNL     1      32.364  -6.260 -24.217  0.00  0.00    -0.003 C 
ATOM     29  C   UNL     1      35.141  -6.488 -24.354  0.00  0.00    -0.000 C 
ATOM     30  C   UNL     1      33.099  -5.372 -25.002  0.00  0.00    -0.000 C 
ATOM     31  C   UNL     1      34.487  -5.487 -25.072  0.00  0.00    -0.000 C 
ENDBRANCH  24  26
ENDBRANCH   2  24
TORSDOF 7
ENDMDL
MODEL 6
REMARK VINA RESULT:      -9.4      7.612     12.371
REMARK  Name = 24941248
REMARK  7 active torsions:
REMARK  status: ('A' for Active; 'I' for Inactive)
REMARK    1  A    between atoms: N_2  and  C_24
REMARK    2  A    between atoms: C_6  and  C_14
REMARK    3  A    between atoms: C_13  and  C_19
REMARK    4  A    between atoms: C_19  and  C_20
REMARK    5  A    between atoms: C_20  and  C_21
REMARK    6  A    between atoms: C_21  and  O_22
REMARK    7  A    between atoms: C_24  and  C_26
REMARK                            x       y       z     vdW  Elec       q    Type
REMARK                         _______ _______ _______ _____ _____    ______ ____
ROOT
ATOM      1  O   UNL     1      31.920 -23.898 -15.014  0.00  0.00    -0.352 OA
ATOM      2  N   UNL     1      34.672 -21.679 -19.134  0.00  0.00    -0.316 N 
ATOM      3  N   UNL     1      32.927 -24.372 -14.183  0.00  0.00    -0.077 NA
ATOM      4  N   UNL     1      32.557 -22.177 -18.160  0.00  0.00    -0.226 NA
ATOM      5  C   UNL     1      33.857 -23.380 -16.016  0.00  0.00    +0.062 A 
ATOM      6  C   UNL     1      34.071 -24.055 -14.797  0.00  0.00    +0.123 A 
ATOM      7  C   UNL     1      33.911 -22.246 -18.079  0.00  0.00    +0.129 C 
ATOM      8  C   UNL     1      34.629 -22.830 -17.039  0.00  0.00    +0.039 C 
ATOM      9  C   UNL     1      32.477 -23.308 -16.104  0.00  0.00    +0.196 A 
ATOM     10  C   UNL     1      31.815 -22.713 -17.161  0.00  0.00    +0.140 C 
ATOM     11  H   UNL     1      35.655 -21.722 -19.085  0.00  0.00    +0.148 HD
ENDROOT
BRANCH   6  14
ATOM     12 CL   UNL     1      38.139 -27.219 -14.668  0.00  0.00    -0.082 Cl
ATOM     13  C   UNL     1      37.081 -23.968 -12.592  0.00  0.00    -0.021 C 
ATOM     14  C   UNL     1      35.336 -24.403 -14.204  0.00  0.00    +0.021 C 
ATOM     15  C   UNL     1      35.855 -23.631 -13.166  0.00  0.00    -0.003 C 
ATOM     16  C   UNL     1      37.787 -25.078 -13.057  0.00  0.00    +0.007 C 
ATOM     17  C   UNL     1      36.042 -25.513 -14.669  0.00  0.00    +0.013 C 
ATOM     18  C   UNL     1      37.268 -25.850 -14.095  0.00  0.00    +0.057 C 
BRANCH  13  19
ATOM     19  C   UNL     1      37.638 -23.141 -11.483  0.00  0.00    +0.029 C 
BRANCH  19  20
ATOM     20  C   UNL     1      36.850 -23.314 -10.177  0.00  0.00    +0.036 C 
BRANCH  20  21
ATOM     21  C   UNL     1      35.793 -24.404 -10.286  0.00  0.00    +0.138 C 
BRANCH  21  22
ATOM     22  O   UNL     1      35.377 -24.772  -8.977  0.00  0.00    -0.382 OA
ATOM     23  H   UNL     1      35.503 -24.022  -8.376  0.00  0.00    +0.210 HD
ENDBRANCH  21  22
ENDBRANCH  20  21
ENDBRANCH  19  20
ENDBRANCH  13  19
ENDBRANCH   6  14
BRANCH   2  24
ATOM     24  C   UNL     1      34.072 -21.049 -20.263  0.00  0.00    +0.093 C 
ATOM     25  C   UNL     1      32.793 -20.337 -19.828  0.00  0.00    +0.026 C 
BRANCH  24  26
ATOM     26  C   UNL     1      35.063 -20.125 -20.936  0.00  0.00    -0.005 C 
ATOM     27  C   UNL     1      34.732 -19.504 -22.139  0.00  0.00    -0.003 C 
ATOM     28  C   UNL     1      36.309 -19.895 -20.352  0.00  0.00    -0.003 C 
ATOM     29  C   UNL     1      35.647 -18.652 -22.760  0.00  0.00    -0.000 C 
ATOM     30  C   UNL     1      37.223 -19.044 -20.972  0.00  0.00    -0.000 C 
ATOM     31  C   UNL     1      36.892 -18.422 -22.176  0.00  0.00    -0.000 C 
ENDBRANCH  24  26
ENDBRANCH   2  24
TORSDOF 7
ENDMDL
MODEL 7
REMARK VINA RESULT:      -9.0      5.827     10.289
REMARK  Name = 24941248
REMARK  7 active torsions:
REMARK  status: ('A' for Active; 'I' for Inactive)
REMARK    1  A    between atoms: N_2  and  C_24
REMARK    2  A    between atoms: C_6  and  C_14
REMARK    3  A    between atoms: C_13  and  C_19
REMARK    4  A    between atoms: C_19  and  C_20
REMARK    5  A    between atoms: C_20  and  C_21
REMARK    6  A    between atoms: C_21  and  O_22
REMARK    7  A    between atoms: C_24  and  C_26
REMARK                            x       y       z     vdW  Elec       q    Type
REMARK                         _______ _______ _______ _____ _____    ______ ____
ROOT
ATOM      1  O   UNL     1      37.350 -22.268 -17.163  0.00  0.00    -0.352 OA
ATOM      2  N   UNL     1      34.509 -20.006 -21.200  0.00  0.00    -0.316 N 
ATOM      3  N   UNL     1      36.363 -22.812 -16.351  0.00  0.00    -0.077 NA
ATOM      4  N   UNL     1      36.643 -20.458 -20.245  0.00  0.00    -0.226 NA
ATOM      5  C   UNL     1      35.394 -21.790 -18.146  0.00  0.00    +0.062 A 
ATOM      6  C   UNL     1      35.207 -22.516 -16.954  0.00  0.00    +0.123 A 
ATOM      7  C   UNL     1      35.293 -20.582 -20.166  0.00  0.00    +0.129 C 
ATOM      8  C   UNL     1      34.599 -21.233 -19.150  0.00  0.00    +0.039 C 
ATOM      9  C   UNL     1      36.769 -21.659 -18.231  0.00  0.00    +0.196 A 
ATOM     10  C   UNL     1      37.407 -21.002 -19.266  0.00  0.00    +0.140 C 
ATOM     11  H   UNL     1      33.529 -20.091 -21.154  0.00  0.00    +0.148 HD
ENDROOT
BRANCH   6  14
ATOM     12 CL   UNL     1      32.732 -25.121 -13.256  0.00  0.00    -0.082 Cl
ATOM     13  C   UNL     1      31.542 -22.950 -16.398  0.00  0.00    -0.021 C 
ATOM     14  C   UNL     1      33.957 -22.935 -16.375  0.00  0.00    +0.021 C 
ATOM     15  C   UNL     1      32.753 -22.545 -16.959  0.00  0.00    -0.003 C 
ATOM     16  C   UNL     1      31.536 -23.747 -15.253  0.00  0.00    +0.007 C 
ATOM     17  C   UNL     1      33.951 -23.732 -15.230  0.00  0.00    +0.013 C 
ATOM     18  C   UNL     1      32.740 -24.137 -14.669  0.00  0.00    +0.057 C 
BRANCH  13  19
ATOM     19  C   UNL     1      30.253 -22.531 -17.021  0.00  0.00    +0.029 C 
BRANCH  19  20
ATOM     20  C   UNL     1      29.060 -22.725 -16.077  0.00  0.00    +0.036 C 
BRANCH  20  21
ATOM     21  C   UNL     1      27.763 -22.971 -16.834  0.00  0.00    +0.138 C 
BRANCH  21  22
ATOM     22  O   UNL     1      27.697 -24.343 -17.198  0.00  0.00    -0.382 OA
ATOM     23  H   UNL     1      26.824 -24.697 -16.968  0.00  0.00    +0.210 HD
ENDBRANCH  21  22
ENDBRANCH  20  21
ENDBRANCH  19  20
ENDBRANCH  13  19
ENDBRANCH   6  14
BRANCH   2  24
ATOM     24  C   UNL     1      35.084 -19.309 -22.302  0.00  0.00    +0.093 C 
ATOM     25  C   UNL     1      34.496 -19.845 -23.605  0.00  0.00    +0.026 C 
BRANCH  24  26
ATOM     26  C   UNL     1      34.889 -17.817 -22.136  0.00  0.00    -0.005 C 
ATOM     27  C   UNL     1      34.900 -16.984 -23.254  0.00  0.00    -0.003 C 
ATOM     28  C   UNL     1      34.698 -17.276 -20.865  0.00  0.00    -0.003 C 
ATOM     29  C   UNL     1      34.722 -15.608 -23.101  0.00  0.00    -0.000 C 
ATOM     30  C   UNL     1      34.520 -15.902 -20.711  0.00  0.00    -0.000 C 
ATOM     31  C   UNL     1      34.530 -15.068 -21.829  0.00  0.00    -0.000 C 
ENDBRANCH  24  26
ENDBRANCH   2  24
TORSDOF 7
ENDMDL
