MODEL 1
REMARK VINA RESULT:     -11.9      0.000      0.000
REMARK  Name = 3151
REMARK  5 active torsions:
REMARK  status: ('A' for Active; 'I' for Inactive)
REMARK    1  A    between atoms: N_1  and  C_20
REMARK    2  A    between atoms: C_2  and  N_10
REMARK    3  A    between atoms: C_20  and  C_21
REMARK    4  A    between atoms: C_21  and  C_22
REMARK    5  A    between atoms: C_22  and  N_24
REMARK                            x       y       z     vdW  Elec       q    Type
REMARK                         _______ _______ _______ _____ _____    ______ ____
ROOT
ATOM      1  N   UNL     1      35.056 -15.612 -23.212  0.00  0.00    +0.387 N 
ATOM      2  C   UNL     1      34.894 -18.145 -21.758  0.00  0.00    +0.086 C 
ATOM      3  C   UNL     1      34.981 -16.797 -21.042  0.00  0.00    -0.000 C 
ATOM      4  C   UNL     1      35.510 -18.042 -23.154  0.00  0.00    -0.000 C 
ATOM      5  C   UNL     1      34.396 -15.674 -21.900  0.00  0.00    -0.075 C 
ATOM      6  C   UNL     1      34.907 -16.878 -23.942  0.00  0.00    -0.075 C 
ATOM      7  H   UNL     1      36.050 -15.453 -23.057  0.00  0.00    -0.080 HD
ENDROOT
BRANCH   2  10
ATOM      8 CL   UNL     1      33.558 -23.648 -17.757  0.00  0.00    -0.082 Cl
ATOM      9  O   UNL     1      37.843 -18.699 -21.279  0.00  0.00    -0.247 OA
ATOM     10  N   UNL     1      35.533 -19.179 -20.984  0.00  0.00    -0.282 N 
ATOM     11  N   UNL     1      37.064 -20.509 -19.971  0.00  0.00    -0.305 N 
ATOM     12  C   UNL     1      34.844 -20.172 -20.273  0.00  0.00    +0.079 A 
ATOM     13  C   UNL     1      36.931 -19.368 -20.812  0.00  0.00    +0.328 A 
ATOM     14  C   UNL     1      35.792 -20.985 -19.653  0.00  0.00    +0.077 A 
ATOM     15  C   UNL     1      33.492 -20.406 -20.135  0.00  0.00    +0.020 C 
ATOM     16  C   UNL     1      35.441 -22.063 -18.872  0.00  0.00    +0.030 C 
ATOM     17  C   UNL     1      33.111 -21.496 -19.346  0.00  0.00    +0.013 C 
ATOM     18  C   UNL     1      34.075 -22.315 -18.721  0.00  0.00    +0.059 C 
ATOM     19  H   UNL     1      37.914 -20.899 -19.665  0.00  0.00    +0.170 HD
ENDBRANCH   2  10
BRANCH   1  20
ATOM     20  C   UNL     1      34.520 -14.501 -24.001  0.00  0.00    -0.075 C 
BRANCH  20  21
ATOM     21  C   UNL     1      34.171 -13.294 -23.125  0.00  0.00    +0.002 C 
BRANCH  21  22
ATOM     22  C   UNL     1      32.673 -13.031 -22.981  0.00  0.00    +0.108 C 
BRANCH  22  24
ATOM     23  O   UNL     1      32.062 -14.102 -20.226  0.00  0.00    -0.247 OA
ATOM     24  N   UNL     1      32.353 -12.319 -21.774  0.00  0.00    -0.280 N 
ATOM     25  N   UNL     1      31.815 -11.830 -19.620  0.00  0.00    -0.305 N 
ATOM     26  C   UNL     1      32.260 -10.922 -21.647  0.00  0.00    +0.079 A 
ATOM     27  C   UNL     1      32.076 -12.912 -20.508  0.00  0.00    +0.328 A 
ATOM     28  C   UNL     1      31.931 -10.630 -20.325  0.00  0.00    +0.076 A 
ATOM     29  C   UNL     1      32.441  -9.924 -22.582  0.00  0.00    +0.019 C 
ATOM     30  C   UNL     1      31.765  -9.341 -19.872  0.00  0.00    +0.019 C 
ATOM     31  C   UNL     1      32.278  -8.605 -22.146  0.00  0.00    +0.002 C 
ATOM     32  C   UNL     1      31.945  -8.316 -20.806  0.00  0.00    +0.002 C 
ATOM     33  H   UNL     1      31.590 -11.913 -18.665  0.00  0.00    +0.170 HD
ENDBRANCH  22  24
ENDBRANCH  21  22
ENDBRANCH  20  21
ENDBRANCH   1  20
TORSDOF 5
ENDMDL
MODEL 2
REMARK VINA RESULT:     -11.8      3.602      6.212
REMARK  Name = 3151
REMARK  5 active torsions:
REMARK  status: ('A' for Active; 'I' for Inactive)
REMARK    1  A    between atoms: N_1  and  C_20
REMARK    2  A    between atoms: C_2  and  N_10
REMARK    3  A    between atoms: C_20  and  C_21
REMARK    4  A    between atoms: C_21  and  C_22
REMARK    5  A    between atoms: C_22  and  N_24
REMARK                            x       y       z     vdW  Elec       q    Type
REMARK                         _______ _______ _______ _____ _____    ______ ____
ROOT
ATOM      1  N   UNL     1      31.973 -10.392 -22.436  0.00  0.00    +0.387 N 
ATOM      2  C   UNL     1      33.617 -12.796 -22.702  0.00  0.00    +0.086 C 
ATOM      3  C   UNL     1      33.741 -11.613 -23.661  0.00  0.00    -0.000 C 
ATOM      4  C   UNL     1      32.222 -12.826 -22.077  0.00  0.00    -0.000 C 
ATOM      5  C   UNL     1      33.334 -10.304 -22.983  0.00  0.00    -0.075 C 
ATOM      6  C   UNL     1      31.866 -11.477 -21.451  0.00  0.00    -0.075 C 
ATOM      7  H   UNL     1      31.337 -10.601 -23.204  0.00  0.00    -0.080 HD
ENDROOT
BRANCH   2  10
ATOM      8 CL   UNL     1      35.776 -19.291 -21.589  0.00  0.00    -0.082 Cl
ATOM      9  O   UNL     1      33.445 -13.517 -25.648  0.00  0.00    -0.247 OA
ATOM     10  N   UNL     1      33.911 -14.036 -23.376  0.00  0.00    -0.282 N 
ATOM     11  N   UNL     1      34.198 -15.646 -24.946  0.00  0.00    -0.305 N 
ATOM     12  C   UNL     1      34.357 -15.198 -22.731  0.00  0.00    +0.079 A 
ATOM     13  C   UNL     1      33.802 -14.289 -24.770  0.00  0.00    +0.328 A 
ATOM     14  C   UNL     1      34.531 -16.182 -23.702  0.00  0.00    +0.077 A 
ATOM     15  C   UNL     1      34.612 -15.447 -21.399  0.00  0.00    +0.020 C 
ATOM     16  C   UNL     1      34.965 -17.453 -23.396  0.00  0.00    +0.030 C 
ATOM     17  C   UNL     1      35.055 -16.730 -21.063  0.00  0.00    +0.013 C 
ATOM     18  C   UNL     1      35.229 -17.722 -22.051  0.00  0.00    +0.059 C 
ATOM     19  H   UNL     1      34.231 -16.125 -25.805  0.00  0.00    +0.170 HD
ENDBRANCH   2  10
BRANCH   1  20
ATOM     20  C   UNL     1      31.580  -9.116 -21.835  0.00  0.00    -0.075 C 
BRANCH  20  21
ATOM     21  C   UNL     1      32.327  -8.847 -20.526  0.00  0.00    +0.002 C 
BRANCH  21  22
ATOM     22  C   UNL     1      32.831  -7.414 -20.370  0.00  0.00    +0.108 C 
BRANCH  22  24
ATOM     23  O   UNL     1      30.491  -5.629 -21.040  0.00  0.00    -0.247 OA
ATOM     24  N   UNL     1      32.597  -6.616 -21.542  0.00  0.00    -0.280 N 
ATOM     25  N   UNL     1      31.655  -5.204 -23.053  0.00  0.00    -0.305 N 
ATOM     26  C   UNL     1      33.456  -6.515 -22.649  0.00  0.00    +0.079 A 
ATOM     27  C   UNL     1      31.453  -5.797 -21.776  0.00  0.00    +0.328 A 
ATOM     28  C   UNL     1      32.873  -5.648 -23.571  0.00  0.00    +0.076 A 
ATOM     29  C   UNL     1      34.676  -7.113 -22.894  0.00  0.00    +0.019 C 
ATOM     30  C   UNL     1      33.469  -5.335 -24.772  0.00  0.00    +0.019 C 
ATOM     31  C   UNL     1      35.301  -6.811 -24.108  0.00  0.00    +0.002 C 
ATOM     32  C   UNL     1      34.706  -5.931 -25.036  0.00  0.00    +0.002 C 
ATOM     33  H   UNL     1      31.036  -4.581 -23.501  0.00  0.00    +0.170 HD
ENDBRANCH  22  24
ENDBRANCH  21  22
ENDBRANCH  20  21
ENDBRANCH   1  20
TORSDOF 5
ENDMDL
MODEL 3
REMARK VINA RESULT:     -11.6      3.430      5.766
REMARK  Name = 3151
REMARK  5 active torsions:
REMARK  status: ('A' for Active; 'I' for Inactive)
REMARK    1  A    between atoms: N_1  and  C_20
REMARK    2  A    between atoms: C_2  and  N_10
REMARK    3  A    between atoms: C_20  and  C_21
REMARK    4  A    between atoms: C_21  and  C_22
REMARK    5  A    between atoms: C_22  and  N_24
REMARK                            x       y       z     vdW  Elec       q    Type
REMARK                         _______ _______ _______ _____ _____    ______ ____
ROOT
ATOM      1  N   UNL     1      35.344 -20.159 -20.252  0.00  0.00    +0.387 N 
ATOM      2  C   UNL     1      34.641 -22.348 -18.444  0.00  0.00    +0.086 C 
ATOM      3  C   UNL     1      33.602 -21.356 -18.967  0.00  0.00    -0.000 C 
ATOM      4  C   UNL     1      36.031 -21.712 -18.454  0.00  0.00    -0.000 C 
ATOM      5  C   UNL     1      34.016 -20.783 -20.323  0.00  0.00    -0.075 C 
ATOM      6  C   UNL     1      36.364 -21.128 -19.828  0.00  0.00    -0.075 C 
ATOM      7  H   UNL     1      35.307 -19.417 -19.555  0.00  0.00    -0.080 HD
ENDROOT
BRANCH   2  10
ATOM      8 CL   UNL     1      37.333 -23.773 -12.215  0.00  0.00    -0.082 Cl
ATOM      9  O   UNL     1      31.946 -23.163 -17.301  0.00  0.00    -0.247 OA
ATOM     10  N   UNL     1      34.291 -22.810 -17.124  0.00  0.00    -0.282 N 
ATOM     11  N   UNL     1      33.158 -23.558 -15.309  0.00  0.00    -0.305 N 
ATOM     12  C   UNL     1      35.207 -22.970 -16.076  0.00  0.00    +0.079 A 
ATOM     13  C   UNL     1      32.994 -23.172 -16.670  0.00  0.00    +0.328 A 
ATOM     14  C   UNL     1      34.504 -23.429 -14.964  0.00  0.00    +0.077 A 
ATOM     15  C   UNL     1      36.567 -22.748 -16.027  0.00  0.00    +0.020 C 
ATOM     16  C   UNL     1      35.116 -23.689 -13.758  0.00  0.00    +0.030 C 
ATOM     17  C   UNL     1      37.213 -23.005 -14.814  0.00  0.00    +0.013 C 
ATOM     18  C   UNL     1      36.495 -23.470 -13.692  0.00  0.00    +0.059 C 
ATOM     19  H   UNL     1      32.439 -23.863 -14.710  0.00  0.00    +0.170 HD
ENDBRANCH   2  10
BRANCH   1  20
ATOM     20  C   UNL     1      35.703 -19.572 -21.544  0.00  0.00    -0.075 C 
BRANCH  20  21
ATOM     21  C   UNL     1      34.939 -18.272 -21.813  0.00  0.00    +0.002 C 
BRANCH  21  22
ATOM     22  C   UNL     1      35.681 -17.277 -22.703  0.00  0.00    +0.108 C 
BRANCH  22  24
ATOM     23  O   UNL     1      34.939 -16.450 -25.510  0.00  0.00    -0.247 OA
ATOM     24  N   UNL     1      34.838 -16.199 -23.146  0.00  0.00    -0.280 N 
ATOM     25  N   UNL     1      33.677 -14.750 -24.456  0.00  0.00    -0.305 N 
ATOM     26  C   UNL     1      34.171 -15.286 -22.313  0.00  0.00    +0.079 A 
ATOM     27  C   UNL     1      34.541 -15.880 -24.503  0.00  0.00    +0.328 A 
ATOM     28  C   UNL     1      33.462 -14.401 -23.122  0.00  0.00    +0.076 A 
ATOM     29  C   UNL     1      34.144 -15.183 -20.937  0.00  0.00    +0.019 C 
ATOM     30  C   UNL     1      32.698 -13.378 -22.607  0.00  0.00    +0.019 C 
ATOM     31  C   UNL     1      33.375 -14.152 -20.389  0.00  0.00    +0.002 C 
ATOM     32  C   UNL     1      32.659 -13.259 -21.215  0.00  0.00    +0.002 C 
ATOM     33  H   UNL     1      33.294 -14.288 -25.238  0.00  0.00    +0.170 HD
ENDBRANCH  22  24
ENDBRANCH  21  22
ENDBRANCH  20  21
ENDBRANCH   1  20
TORSDOF 5
ENDMDL
MODEL 4
REMARK VINA RESULT:     -11.5      4.501     11.014
REMARK  Name = 3151
REMARK  5 active torsions:
REMARK  status: ('A' for Active; 'I' for Inactive)
REMARK    1  A    between atoms: N_1  and  C_20
REMARK    2  A    between atoms: C_2  and  N_10
REMARK    3  A    between atoms: C_20  and  C_21
REMARK    4  A    between atoms: C_21  and  C_22
REMARK    5  A    between atoms: C_22  and  N_24
REMARK                            x       y       z     vdW  Elec       q    Type
REMARK                         _______ _______ _______ _____ _____    ______ ____
ROOT
ATOM      1  N   UNL     1      35.279 -21.601 -19.495  0.00  0.00    +0.387 N 
ATOM      2  C   UNL     1      34.997 -19.042 -20.884  0.00  0.00    +0.086 C 
ATOM      3  C   UNL     1      33.850 -20.047 -20.786  0.00  0.00    -0.000 C 
ATOM      4  C   UNL     1      36.341 -19.759 -20.759  0.00  0.00    -0.000 C 
ATOM      5  C   UNL     1      33.979 -20.915 -19.533  0.00  0.00    -0.075 C 
ATOM      6  C   UNL     1      36.388 -20.637 -19.507  0.00  0.00    -0.075 C 
ATOM      7  H   UNL     1      35.355 -22.178 -20.331  0.00  0.00    -0.080 HD
ENDROOT
BRANCH   2  10
ATOM      8 CL   UNL     1      34.232 -12.620 -23.385  0.00  0.00    -0.082 Cl
ATOM      9  O   UNL     1      35.152 -19.986 -23.767  0.00  0.00    -0.247 OA
ATOM     10  N   UNL     1      34.920 -18.294 -22.114  0.00  0.00    -0.282 N 
ATOM     11  N   UNL     1      34.875 -17.699 -24.301  0.00  0.00    -0.305 N 
ATOM     12  C   UNL     1      34.748 -16.905 -22.183  0.00  0.00    +0.079 A 
ATOM     13  C   UNL     1      35.003 -18.820 -23.431  0.00  0.00    +0.328 A 
ATOM     14  C   UNL     1      34.721 -16.547 -23.530  0.00  0.00    +0.077 A 
ATOM     15  C   UNL     1      34.619 -15.963 -21.184  0.00  0.00    +0.020 C 
ATOM     16  C   UNL     1      34.565 -15.243 -23.944  0.00  0.00    +0.030 C 
ATOM     17  C   UNL     1      34.458 -14.631 -21.580  0.00  0.00    +0.013 C 
ATOM     18  C   UNL     1      34.432 -14.275 -22.944  0.00  0.00    +0.059 C 
ATOM     19  H   UNL     1      34.892 -17.733 -25.284  0.00  0.00    +0.170 HD
ENDBRANCH   2  10
BRANCH   1  20
ATOM     20  C   UNL     1      35.366 -22.465 -18.317  0.00  0.00    -0.075 C 
BRANCH  20  21
ATOM     21  C   UNL     1      36.569 -22.112 -17.437  0.00  0.00    +0.002 C 
BRANCH  21  22
ATOM     22  C   UNL     1      36.270 -22.091 -15.939  0.00  0.00    +0.108 C 
BRANCH  22  24
ATOM     23  O   UNL     1      33.727 -23.637 -15.436  0.00  0.00    -0.247 OA
ATOM     24  N   UNL     1      36.095 -23.410 -15.393  0.00  0.00    -0.280 N 
ATOM     25  N   UNL     1      35.161 -25.338 -14.635  0.00  0.00    -0.305 N 
ATOM     26  C   UNL     1      37.126 -24.265 -14.972  0.00  0.00    +0.079 A 
ATOM     27  C   UNL     1      34.846 -24.066 -15.190  0.00  0.00    +0.328 A 
ATOM     28  C   UNL     1      36.547 -25.445 -14.508  0.00  0.00    +0.076 A 
ATOM     29  C   UNL     1      38.494 -24.085 -14.969  0.00  0.00    +0.019 C 
ATOM     30  C   UNL     1      37.294 -26.494 -14.023  0.00  0.00    +0.019 C 
ATOM     31  C   UNL     1      39.275 -25.137 -14.479  0.00  0.00    +0.002 C 
ATOM     32  C   UNL     1      38.682 -26.329 -14.012  0.00  0.00    +0.002 C 
ATOM     33  H   UNL     1      34.508 -26.030 -14.380  0.00  0.00    +0.170 HD
ENDBRANCH  22  24
ENDBRANCH  21  22
ENDBRANCH  20  21
ENDBRANCH   1  20
TORSDOF 5
ENDMDL
MODEL 5
REMARK VINA RESULT:     -11.5      3.136      5.562
REMARK  Name = 3151
REMARK  5 active torsions:
REMARK  status: ('A' for Active; 'I' for Inactive)
REMARK    1  A    between atoms: N_1  and  C_20
REMARK    2  A    between atoms: C_2  and  N_10
REMARK    3  A    between atoms: C_20  and  C_21
REMARK    4  A    between atoms: C_21  and  C_22
REMARK    5  A    between atoms: C_22  and  N_24
REMARK                            x       y       z     vdW  Elec       q    Type
REMARK                         _______ _______ _______ _____ _____    ______ ____
ROOT
ATOM      1  N   UNL     1      35.210 -20.249 -20.165  0.00  0.00    +0.387 N 
ATOM      2  C   UNL     1      35.049 -22.402 -18.191  0.00  0.00    +0.086 C 
ATOM      3  C   UNL     1      33.828 -21.578 -18.601  0.00  0.00    -0.000 C 
ATOM      4  C   UNL     1      36.329 -21.599 -18.421  0.00  0.00    -0.000 C 
ATOM      5  C   UNL     1      33.977 -21.037 -20.024  0.00  0.00    -0.075 C 
ATOM      6  C   UNL     1      36.395 -21.058 -19.851  0.00  0.00    -0.075 C 
ATOM      7  H   UNL     1      35.169 -19.478 -19.499  0.00  0.00    -0.080 HD
ENDROOT
BRANCH   2  10
ATOM      8 CL   UNL     1      30.471 -24.422 -13.391  0.00  0.00    -0.082 Cl
ATOM      9  O   UNL     1      37.201 -22.762 -16.076  0.00  0.00    -0.247 OA
ATOM     10  N   UNL     1      34.943 -22.827 -16.817  0.00  0.00    -0.282 N 
ATOM     11  N   UNL     1      35.408 -23.410 -14.677  0.00  0.00    -0.305 N 
ATOM     12  C   UNL     1      33.738 -23.168 -16.188  0.00  0.00    +0.079 A 
ATOM     13  C   UNL     1      36.010 -22.970 -15.890  0.00  0.00    +0.328 A 
ATOM     14  C   UNL     1      34.031 -23.525 -14.873  0.00  0.00    +0.077 A 
ATOM     15  C   UNL     1      32.445 -23.189 -16.669  0.00  0.00    +0.020 C 
ATOM     16  C   UNL     1      33.059 -23.917 -13.980  0.00  0.00    +0.030 C 
ATOM     17  C   UNL     1      31.440 -23.582 -15.781  0.00  0.00    +0.013 C 
ATOM     18  C   UNL     1      31.744 -23.942 -14.451  0.00  0.00    +0.059 C 
ATOM     19  H   UNL     1      35.885 -23.601 -13.838  0.00  0.00    +0.170 HD
ENDBRANCH   2  10
BRANCH   1  20
ATOM     20  C   UNL     1      35.312 -19.697 -21.517  0.00  0.00    -0.075 C 
BRANCH  20  21
ATOM     21  C   UNL     1      34.909 -18.220 -21.563  0.00  0.00    +0.002 C 
BRANCH  21  22
ATOM     22  C   UNL     1      35.623 -17.405 -22.639  0.00  0.00    +0.108 C 
BRANCH  22  24
ATOM     23  O   UNL     1      34.958 -16.605 -25.473  0.00  0.00    -0.247 OA
ATOM     24  N   UNL     1      34.828 -16.306 -23.116  0.00  0.00    -0.280 N 
ATOM     25  N   UNL     1      33.743 -14.841 -24.473  0.00  0.00    -0.305 N 
ATOM     26  C   UNL     1      34.180 -15.354 -22.312  0.00  0.00    +0.079 A 
ATOM     27  C   UNL     1      34.566 -16.002 -24.484  0.00  0.00    +0.328 A 
ATOM     28  C   UNL     1      33.518 -14.459 -23.150  0.00  0.00    +0.076 A 
ATOM     29  C   UNL     1      34.135 -15.224 -20.939  0.00  0.00    +0.019 C 
ATOM     30  C   UNL     1      32.783 -13.400 -22.667  0.00  0.00    +0.019 C 
ATOM     31  C   UNL     1      33.395 -14.155 -20.424  0.00  0.00    +0.002 C 
ATOM     32  C   UNL     1      32.726 -13.253 -21.278  0.00  0.00    +0.002 C 
ATOM     33  H   UNL     1      33.390 -14.380 -25.270  0.00  0.00    +0.170 HD
ENDBRANCH  22  24
ENDBRANCH  21  22
ENDBRANCH  20  21
ENDBRANCH   1  20
TORSDOF 5
ENDMDL
MODEL 6
REMARK VINA RESULT:     -11.3      3.639      9.626
REMARK  Name = 3151
REMARK  5 active torsions:
REMARK  status: ('A' for Active; 'I' for Inactive)
REMARK    1  A    between atoms: N_1  and  C_20
REMARK    2  A    between atoms: C_2  and  N_10
REMARK    3  A    between atoms: C_20  and  C_21
REMARK    4  A    between atoms: C_21  and  C_22
REMARK    5  A    between atoms: C_22  and  N_24
REMARK                            x       y       z     vdW  Elec       q    Type
REMARK                         _______ _______ _______ _____ _____    ______ ____
ROOT
ATOM      1  N   UNL     1      36.109 -19.786 -20.474  0.00  0.00    +0.387 N 
ATOM      2  C   UNL     1      35.467 -17.903 -22.618  0.00  0.00    +0.086 C 
ATOM      3  C   UNL     1      36.510 -17.592 -21.546  0.00  0.00    -0.000 C 
ATOM      4  C   UNL     1      34.451 -18.916 -22.090  0.00  0.00    -0.000 C 
ATOM      5  C   UNL     1      37.137 -18.874 -20.994  0.00  0.00    -0.075 C 
ATOM      6  C   UNL     1      35.147 -20.154 -21.521  0.00  0.00    -0.075 C 
ATOM      7  H   UNL     1      35.601 -19.299 -19.737  0.00  0.00    -0.080 HD
ENDROOT
BRANCH   2  10
ATOM      8 CL   UNL     1      32.157 -12.263 -20.313  0.00  0.00    -0.082 Cl
ATOM      9  O   UNL     1      35.027 -16.831 -25.427  0.00  0.00    -0.247 OA
ATOM     10  N   UNL     1      34.814 -16.697 -23.063  0.00  0.00    -0.282 N 
ATOM     11  N   UNL     1      33.950 -15.031 -24.334  0.00  0.00    -0.305 N 
ATOM     12  C   UNL     1      34.232 -15.753 -22.206  0.00  0.00    +0.079 A 
ATOM     13  C   UNL     1      34.651 -16.268 -24.408  0.00  0.00    +0.328 A 
ATOM     14  C   UNL     1      33.704 -14.732 -22.994  0.00  0.00    +0.077 A 
ATOM     15  C   UNL     1      34.136 -15.724 -20.830  0.00  0.00    +0.020 C 
ATOM     16  C   UNL     1      33.059 -13.642 -22.455  0.00  0.00    +0.030 C 
ATOM     17  C   UNL     1      33.485 -14.627 -20.259  0.00  0.00    +0.013 C 
ATOM     18  C   UNL     1      32.952 -13.597 -21.062  0.00  0.00    +0.059 C 
ATOM     19  H   UNL     1      33.684 -14.477 -25.103  0.00  0.00    +0.170 HD
ENDBRANCH   2  10
BRANCH   1  20
ATOM     20  C   UNL     1      36.729 -20.984 -19.905  0.00  0.00    -0.075 C 
BRANCH  20  21
ATOM     21  C   UNL     1      35.683 -21.992 -19.420  0.00  0.00    +0.002 C 
BRANCH  21  22
ATOM     22  C   UNL     1      35.637 -22.173 -17.904  0.00  0.00    +0.108 C 
BRANCH  22  24
ATOM     23  O   UNL     1      32.961 -21.834 -19.260  0.00  0.00    -0.247 OA
ATOM     24  N   UNL     1      34.323 -22.510 -17.429  0.00  0.00    -0.280 N 
ATOM     25  N   UNL     1      32.072 -22.788 -17.288  0.00  0.00    -0.305 N 
ATOM     26  C   UNL     1      34.025 -23.088 -16.183  0.00  0.00    +0.079 A 
ATOM     27  C   UNL     1      33.105 -22.312 -18.143  0.00  0.00    +0.328 A 
ATOM     28  C   UNL     1      32.644 -23.255 -16.104  0.00  0.00    +0.076 A 
ATOM     29  C   UNL     1      34.857 -23.464 -15.149  0.00  0.00    +0.019 C 
ATOM     30  C   UNL     1      32.028 -23.802 -15.001  0.00  0.00    +0.019 C 
ATOM     31  C   UNL     1      34.255 -24.021 -14.017  0.00  0.00    +0.002 C 
ATOM     32  C   UNL     1      32.856 -24.189 -13.943  0.00  0.00    +0.002 C 
ATOM     33  H   UNL     1      31.109 -22.788 -17.497  0.00  0.00    +0.170 HD
ENDBRANCH  22  24
ENDBRANCH  21  22
ENDBRANCH  20  21
ENDBRANCH   1  20
TORSDOF 5
ENDMDL
MODEL 7
REMARK VINA RESULT:     -11.3      4.207     10.064
REMARK  Name = 3151
REMARK  5 active torsions:
REMARK  status: ('A' for Active; 'I' for Inactive)
REMARK    1  A    between atoms: N_1  and  C_20
REMARK    2  A    between atoms: C_2  and  N_10
REMARK    3  A    between atoms: C_20  and  C_21
REMARK    4  A    between atoms: C_21  and  C_22
REMARK    5  A    between atoms: C_22  and  N_24
REMARK                            x       y       z     vdW  Elec       q    Type
REMARK                         _______ _______ _______ _____ _____    ______ ____
ROOT
ATOM      1  N   UNL     1      35.840 -21.163 -19.944  0.00  0.00    +0.387 N 
ATOM      2  C   UNL     1      35.165 -18.616 -21.213  0.00  0.00    +0.086 C 
ATOM      3  C   UNL     1      34.175 -19.779 -21.141  0.00  0.00    -0.000 C 
ATOM      4  C   UNL     1      36.600 -19.138 -21.142  0.00  0.00    -0.000 C 
ATOM      5  C   UNL     1      34.455 -20.671 -19.930  0.00  0.00    -0.075 C 
ATOM      6  C   UNL     1      36.799 -20.050 -19.931  0.00  0.00    -0.075 C 
ATOM      7  H   UNL     1      35.980 -21.689 -20.805  0.00  0.00    -0.080 HD
ENDROOT
BRANCH   2  10
ATOM      8 CL   UNL     1      33.956 -12.160 -23.435  0.00  0.00    -0.082 Cl
ATOM      9  O   UNL     1      35.100 -19.472 -24.128  0.00  0.00    -0.247 OA
ATOM     10  N   UNL     1      34.954 -17.837 -22.408  0.00  0.00    -0.282 N 
ATOM     11  N   UNL     1      34.696 -17.182 -24.563  0.00  0.00    -0.305 N 
ATOM     12  C   UNL     1      34.727 -16.454 -22.418  0.00  0.00    +0.079 A 
ATOM     13  C   UNL     1      34.940 -18.322 -23.744  0.00  0.00    +0.328 A 
ATOM     14  C   UNL     1      34.570 -16.059 -23.745  0.00  0.00    +0.077 A 
ATOM     15  C   UNL     1      34.653 -15.547 -21.382  0.00  0.00    +0.020 C 
ATOM     16  C   UNL     1      34.332 -14.751 -24.103  0.00  0.00    +0.030 C 
ATOM     17  C   UNL     1      34.411 -14.211 -21.720  0.00  0.00    +0.013 C 
ATOM     18  C   UNL     1      34.252 -13.818 -23.065  0.00  0.00    +0.059 C 
ATOM     19  H   UNL     1      34.629 -17.187 -25.545  0.00  0.00    +0.170 HD
ENDBRANCH   2  10
BRANCH   1  20
ATOM     20  C   UNL     1      36.077 -22.054 -18.806  0.00  0.00    -0.075 C 
BRANCH  20  21
ATOM     21  C   UNL     1      34.943 -21.984 -17.780  0.00  0.00    +0.002 C 
BRANCH  21  22
ATOM     22  C   UNL     1      34.190 -23.297 -17.580  0.00  0.00    +0.108 C 
BRANCH  22  24
ATOM     23  O   UNL     1      35.966 -24.168 -15.299  0.00  0.00    -0.247 OA
ATOM     24  N   UNL     1      33.856 -23.537 -16.202  0.00  0.00    -0.280 N 
ATOM     25  N   UNL     1      33.997 -24.060 -13.995  0.00  0.00    -0.305 N 
ATOM     26  C   UNL     1      32.578 -23.405 -15.633  0.00  0.00    +0.079 A 
ATOM     27  C   UNL     1      34.767 -23.950 -15.186  0.00  0.00    +0.328 A 
ATOM     28  C   UNL     1      32.672 -23.727 -14.281  0.00  0.00    +0.076 A 
ATOM     29  C   UNL     1      31.379 -23.033 -16.205  0.00  0.00    +0.019 C 
ATOM     30  C   UNL     1      31.585 -23.694 -13.437  0.00  0.00    +0.019 C 
ATOM     31  C   UNL     1      30.259 -22.993 -15.367  0.00  0.00    +0.002 C 
ATOM     32  C   UNL     1      30.361 -23.319 -13.998  0.00  0.00    +0.002 C 
ATOM     33  H   UNL     1      34.342 -24.328 -13.111  0.00  0.00    +0.170 HD
ENDBRANCH  22  24
ENDBRANCH  21  22
ENDBRANCH  20  21
ENDBRANCH   1  20
TORSDOF 5
ENDMDL
MODEL 8
REMARK VINA RESULT:     -11.3      3.514      6.173
REMARK  Name = 3151
REMARK  5 active torsions:
REMARK  status: ('A' for Active; 'I' for Inactive)
REMARK    1  A    between atoms: N_1  and  C_20
REMARK    2  A    between atoms: C_2  and  N_10
REMARK    3  A    between atoms: C_20  and  C_21
REMARK    4  A    between atoms: C_21  and  C_22
REMARK    5  A    between atoms: C_22  and  N_24
REMARK                            x       y       z     vdW  Elec       q    Type
REMARK                         _______ _______ _______ _____ _____    ______ ____
ROOT
ATOM      1  N   UNL     1      35.471 -20.403 -19.856  0.00  0.00    +0.387 N 
ATOM      2  C   UNL     1      34.380 -22.531 -18.171  0.00  0.00    +0.086 C 
ATOM      3  C   UNL     1      33.488 -21.506 -18.871  0.00  0.00    -0.000 C 
ATOM      4  C   UNL     1      35.778 -21.952 -17.952  0.00  0.00    -0.000 C 
ATOM      5  C   UNL     1      34.148 -20.974 -20.144  0.00  0.00    -0.075 C 
ATOM      6  C   UNL     1      36.362 -21.405 -19.256  0.00  0.00    -0.075 C 
ATOM      7  H   UNL     1      35.349 -19.648 -19.182  0.00  0.00    -0.080 HD
ENDROOT
BRANCH   2  10
ATOM      8 CL   UNL     1      35.986 -24.872 -11.845  0.00  0.00    -0.082 Cl
ATOM      9  O   UNL     1      31.465 -22.712 -17.335  0.00  0.00    -0.247 OA
ATOM     10  N   UNL     1      33.794 -22.955 -16.924  0.00  0.00    -0.282 N 
ATOM     11  N   UNL     1      32.331 -23.488 -15.276  0.00  0.00    -0.305 N 
ATOM     12  C   UNL     1      34.530 -23.386 -15.812  0.00  0.00    +0.079 A 
ATOM     13  C   UNL     1      32.408 -23.009 -16.615  0.00  0.00    +0.328 A 
ATOM     14  C   UNL     1      33.625 -23.711 -14.803  0.00  0.00    +0.077 A 
ATOM     15  C   UNL     1      35.891 -23.508 -15.626  0.00  0.00    +0.020 C 
ATOM     16  C   UNL     1      34.028 -24.171 -13.570  0.00  0.00    +0.030 C 
ATOM     17  C   UNL     1      36.325 -23.974 -14.381  0.00  0.00    +0.013 C 
ATOM     18  C   UNL     1      35.404 -24.302 -13.365  0.00  0.00    +0.059 C 
ATOM     19  H   UNL     1      31.502 -23.636 -14.768  0.00  0.00    +0.170 HD
ENDBRANCH   2  10
BRANCH   1  20
ATOM     20  C   UNL     1      36.067 -19.853 -21.074  0.00  0.00    -0.075 C 
BRANCH  20  21
ATOM     21  C   UNL     1      35.011 -19.249 -22.005  0.00  0.00    +0.002 C 
BRANCH  21  22
ATOM     22  C   UNL     1      35.547 -18.188 -22.964  0.00  0.00    +0.108 C 
BRANCH  22  24
ATOM     23  O   UNL     1      35.091 -16.691 -20.382  0.00  0.00    -0.247 OA
ATOM     24  N   UNL     1      34.950 -16.898 -22.748  0.00  0.00    -0.280 N 
ATOM     25  N   UNL     1      34.147 -15.017 -21.759  0.00  0.00    -0.305 N 
ATOM     26  C   UNL     1      34.442 -16.054 -23.750  0.00  0.00    +0.079 A 
ATOM     27  C   UNL     1      34.774 -16.264 -21.484  0.00  0.00    +0.328 A 
ATOM     28  C   UNL     1      33.952 -14.903 -23.136  0.00  0.00    +0.076 A 
ATOM     29  C   UNL     1      34.384 -16.222 -25.118  0.00  0.00    +0.019 C 
ATOM     30  C   UNL     1      33.384 -13.870 -23.848  0.00  0.00    +0.019 C 
ATOM     31  C   UNL     1      33.811 -15.186 -25.864  0.00  0.00    +0.002 C 
ATOM     32  C   UNL     1      33.317 -14.023 -25.236  0.00  0.00    +0.002 C 
ATOM     33  H   UNL     1      33.891 -14.343 -21.087  0.00  0.00    +0.170 HD
ENDBRANCH  22  24
ENDBRANCH  21  22
ENDBRANCH  20  21
ENDBRANCH   1  20
TORSDOF 5
ENDMDL
MODEL 9
REMARK VINA RESULT:     -11.2      4.564     10.576
REMARK  Name = 3151
REMARK  5 active torsions:
REMARK  status: ('A' for Active; 'I' for Inactive)
REMARK    1  A    between atoms: N_1  and  C_20
REMARK    2  A    between atoms: C_2  and  N_10
REMARK    3  A    between atoms: C_20  and  C_21
REMARK    4  A    between atoms: C_21  and  C_22
REMARK    5  A    between atoms: C_22  and  N_24
REMARK                            x       y       z     vdW  Elec       q    Type
REMARK                         _______ _______ _______ _____ _____    ______ ____
ROOT
ATOM      1  N   UNL     1      35.240 -21.549 -19.625  0.00  0.00    +0.387 N 
ATOM      2  C   UNL     1      34.971 -18.967 -20.975  0.00  0.00    +0.086 C 
ATOM      3  C   UNL     1      33.816 -19.964 -20.883  0.00  0.00    -0.000 C 
ATOM      4  C   UNL     1      36.310 -19.698 -20.870  0.00  0.00    -0.000 C 
ATOM      5  C   UNL     1      33.946 -20.852 -19.644  0.00  0.00    -0.075 C 
ATOM      6  C   UNL     1      36.357 -20.594 -19.630  0.00  0.00    -0.075 C 
ATOM      7  H   UNL     1      35.306 -22.115 -20.470  0.00  0.00    -0.080 HD
ENDROOT
BRANCH   2  10
ATOM      8 CL   UNL     1      34.216 -12.508 -23.379  0.00  0.00    -0.082 Cl
ATOM      9  O   UNL     1      35.114 -19.870 -23.872  0.00  0.00    -0.247 OA
ATOM     10  N   UNL     1      34.892 -18.201 -22.193  0.00  0.00    -0.282 N 
ATOM     11  N   UNL     1      34.841 -17.574 -24.371  0.00  0.00    -0.305 N 
ATOM     12  C   UNL     1      34.724 -16.811 -22.242  0.00  0.00    +0.079 A 
ATOM     13  C   UNL     1      34.969 -18.708 -23.519  0.00  0.00    +0.328 A 
ATOM     14  C   UNL     1      34.694 -16.433 -23.583  0.00  0.00    +0.077 A 
ATOM     15  C   UNL     1      34.601 -15.883 -21.228  0.00  0.00    +0.020 C 
ATOM     16  C   UNL     1      34.540 -15.123 -23.977  0.00  0.00    +0.030 C 
ATOM     17  C   UNL     1      34.442 -14.546 -21.604  0.00  0.00    +0.013 C 
ATOM     18  C   UNL     1      34.412 -14.170 -22.963  0.00  0.00    +0.059 C 
ATOM     19  H   UNL     1      34.856 -17.593 -25.355  0.00  0.00    +0.170 HD
ENDBRANCH   2  10
BRANCH   1  20
ATOM     20  C   UNL     1      35.328 -22.431 -18.460  0.00  0.00    -0.075 C 
BRANCH  20  21
ATOM     21  C   UNL     1      34.022 -22.454 -17.660  0.00  0.00    +0.002 C 
BRANCH  21  22
ATOM     22  C   UNL     1      33.687 -23.807 -17.038  0.00  0.00    +0.108 C 
BRANCH  22  24
ATOM     23  O   UNL     1      31.513 -22.707 -15.255  0.00  0.00    -0.247 OA
ATOM     24  N   UNL     1      33.622 -23.752 -15.602  0.00  0.00    -0.280 N 
ATOM     25  N   UNL     1      32.920 -23.372 -13.475  0.00  0.00    -0.305 N 
ATOM     26  C   UNL     1      34.608 -24.224 -14.720  0.00  0.00    +0.079 A 
ATOM     27  C   UNL     1      32.548 -23.210 -14.839  0.00  0.00    +0.328 A 
ATOM     28  C   UNL     1      34.171 -23.988 -13.418  0.00  0.00    +0.076 A 
ATOM     29  C   UNL     1      35.823 -24.828 -14.974  0.00  0.00    +0.019 C 
ATOM     30  C   UNL     1      34.915 -24.337 -12.314  0.00  0.00    +0.019 C 
ATOM     31  C   UNL     1      36.597 -25.192 -13.868  0.00  0.00    +0.002 C 
ATOM     32  C   UNL     1      36.149 -24.950 -12.552  0.00  0.00    +0.002 C 
ATOM     33  H   UNL     1      32.383 -23.094 -12.697  0.00  0.00    +0.170 HD
ENDBRANCH  22  24
ENDBRANCH  21  22
ENDBRANCH  20  21
ENDBRANCH   1  20
TORSDOF 5
ENDMDL
