MODEL 1
REMARK VINA RESULT:     -13.2      0.000      0.000
REMARK  Name = 6105620
REMARK  4 active torsions:
REMARK  status: ('A' for Active; 'I' for Inactive)
REMARK    1  A    between atoms: N_2  and  C_7
REMARK    2  A    between atoms: N_3  and  C_21
REMARK    3  A    between atoms: C_9  and  C_29
REMARK    4  A    between atoms: C_30  and  C_31
REMARK                            x       y       z     vdW  Elec       q    Type
REMARK                         _______ _______ _______ _____ _____    ______ ____
ROOT
ATOM      1  N   UNL     1      33.807 -22.788 -17.213  0.00  0.00    -0.086 NA
ATOM      2  N   UNL     1      35.198 -22.565 -16.831  0.00  0.00    -0.132 N 
ATOM      3  N   UNL     1      33.675 -22.242 -18.522  0.00  0.00    -0.240 N 
ATOM      4  N   UNL     1      35.821 -21.834 -17.834  0.00  0.00    -0.146 NA
ATOM      5  C   UNL     1      34.904 -21.675 -18.776  0.00  0.00    +0.162 C 
ATOM      6  H   UNL     1      32.886 -22.265 -19.111  0.00  0.00    +0.170 HD
ENDROOT
BRANCH   2  11
ATOM      7  O   UNL     1      36.450 -27.288 -15.354  0.00  0.00    -0.220 OA
ATOM      8  O   UNL     1      38.906 -24.256 -11.919  0.00  0.00    -0.220 OA
ATOM      9  N   UNL     1      37.794 -27.062 -13.526  0.00  0.00    -0.062 NA
ATOM     10  N   UNL     1      38.383 -26.335 -12.701  0.00  0.00    -0.062 NA
ATOM     11  C   UNL     1      35.976 -23.147 -15.809  0.00  0.00    +0.089 C 
ATOM     12  C   UNL     1      36.098 -24.544 -15.705  0.00  0.00    +0.030 C 
ATOM     13  C   UNL     1      36.647 -22.343 -14.870  0.00  0.00    +0.019 C 
ATOM     14  C   UNL     1      36.872 -25.112 -14.688  0.00  0.00    +0.097 C 
ATOM     15  C   UNL     1      37.524 -24.306 -13.775  0.00  0.00    +0.096 C 
ATOM     16  C   UNL     1      37.418 -22.915 -13.857  0.00  0.00    +0.014 C 
ATOM     17  C   UNL     1      37.024 -26.563 -14.547  0.00  0.00    +0.174 C 
ATOM     18  C   UNL     1      38.320 -24.964 -12.733  0.00  0.00    +0.174 C 
ENDBRANCH   2  11
BRANCH   1  21
ATOM     19  S   UNL     1      33.090 -23.863 -14.870  0.00  0.00    -0.074 S 
ATOM     20  N   UNL     1      31.530 -23.276 -16.893  0.00  0.00    -0.310 N 
ATOM     21  C   UNL     1      32.806 -23.241 -16.492  0.00  0.00    +0.222 C 
ATOM     22  C   UNL     1      30.703 -23.794 -15.948  0.00  0.00    +0.052 C 
ATOM     23  C   UNL     1      31.344 -24.178 -14.765  0.00  0.00    +0.041 C 
ATOM     24  C   UNL     1      29.332 -23.950 -16.089  0.00  0.00    +0.015 C 
ATOM     25  C   UNL     1      30.637 -24.723 -13.706  0.00  0.00    +0.007 C 
ATOM     26  C   UNL     1      28.609 -24.499 -15.028  0.00  0.00    +0.001 C 
ATOM     27  C   UNL     1      29.257 -24.883 -13.845  0.00  0.00    +0.001 C 
ATOM     28  H   UNL     1      31.225 -22.962 -17.775  0.00  0.00    +0.149 HD
ENDBRANCH   1  21
BRANCH   5  29
ATOM     29  C   UNL     1      35.212 -20.929 -20.006  0.00  0.00    +0.037 C 
ATOM     30  C   UNL     1      34.470 -19.910 -20.407  0.00  0.00    +0.003 C 
BRANCH  30  31
ATOM     31  C   UNL     1      34.731 -19.140 -21.634  0.00  0.00    +0.000 C 
ATOM     32  C   UNL     1      35.138 -17.818 -21.533  0.00  0.00    +0.000 C 
ATOM     33  C   UNL     1      34.566 -19.749 -22.867  0.00  0.00    +0.000 C 
ATOM     34  C   UNL     1      35.386 -17.088 -22.695  0.00  0.00    +0.000 C 
ATOM     35  C   UNL     1      34.814 -19.019 -24.030  0.00  0.00    +0.000 C 
ATOM     36  C   UNL     1      35.224 -17.689 -23.944  0.00  0.00    +0.000 C 
ENDBRANCH  30  31
ENDBRANCH   5  29
TORSDOF 4
ENDMDL
MODEL 2
REMARK VINA RESULT:     -13.1      2.296      5.454
REMARK  Name = 6105620
REMARK  4 active torsions:
REMARK  status: ('A' for Active; 'I' for Inactive)
REMARK    1  A    between atoms: N_2  and  C_7
REMARK    2  A    between atoms: N_3  and  C_21
REMARK    3  A    between atoms: C_9  and  C_29
REMARK    4  A    between atoms: C_30  and  C_31
REMARK                            x       y       z     vdW  Elec       q    Type
REMARK                         _______ _______ _______ _____ _____    ______ ____
ROOT
ATOM      1  N   UNL     1      35.575 -22.676 -16.865  0.00  0.00    -0.086 NA
ATOM      2  N   UNL     1      34.170 -22.712 -17.260  0.00  0.00    -0.132 N 
ATOM      3  N   UNL     1      36.230 -21.874 -17.843  0.00  0.00    -0.240 N 
ATOM      4  N   UNL     1      34.033 -22.042 -18.468  0.00  0.00    -0.146 NA
ATOM      5  C   UNL     1      35.241 -21.584 -18.758  0.00  0.00    +0.162 C 
ATOM      6  H   UNL     1      37.173 -21.592 -17.862  0.00  0.00    +0.170 HD
ENDROOT
BRANCH   2  11
ATOM      7  O   UNL     1      33.164 -24.862 -12.741  0.00  0.00    -0.220 OA
ATOM      8  O   UNL     1      28.446 -23.991 -14.742  0.00  0.00    -0.220 OA
ATOM      9  N   UNL     1      30.893 -24.985 -12.571  0.00  0.00    -0.062 NA
ATOM     10  N   UNL     1      29.760 -24.777 -13.051  0.00  0.00    -0.062 NA
ATOM     11  C   UNL     1      33.019 -23.075 -16.531  0.00  0.00    +0.089 C 
ATOM     12  C   UNL     1      33.129 -23.673 -15.262  0.00  0.00    +0.030 C 
ATOM     13  C   UNL     1      31.734 -22.848 -17.057  0.00  0.00    +0.019 C 
ATOM     14  C   UNL     1      31.982 -24.029 -14.548  0.00  0.00    +0.097 C 
ATOM     15  C   UNL     1      30.728 -23.799 -15.080  0.00  0.00    +0.096 C 
ATOM     16  C   UNL     1      30.592 -23.206 -16.339  0.00  0.00    +0.014 C 
ATOM     17  C   UNL     1      32.055 -24.654 -13.223  0.00  0.00    +0.174 C 
ATOM     18  C   UNL     1      29.564 -24.195 -14.279  0.00  0.00    +0.174 C 
ENDBRANCH   2  11
BRANCH   1  21
ATOM     19  S   UNL     1      37.238 -22.509 -14.775  0.00  0.00    -0.074 S 
ATOM     20  N   UNL     1      36.099 -24.667 -15.732  0.00  0.00    -0.310 N 
ATOM     21  C   UNL     1      36.193 -23.346 -15.919  0.00  0.00    +0.222 C 
ATOM     22  C   UNL     1      36.843 -25.097 -14.680  0.00  0.00    +0.052 C 
ATOM     23  C   UNL     1      37.544 -24.085 -14.015  0.00  0.00    +0.041 C 
ATOM     24  C   UNL     1      36.935 -26.415 -14.255  0.00  0.00    +0.015 C 
ATOM     25  C   UNL     1      38.347 -24.364 -12.921  0.00  0.00    +0.007 C 
ATOM     26  C   UNL     1      37.741 -26.708 -13.153  0.00  0.00    +0.001 C 
ATOM     27  C   UNL     1      38.443 -25.689 -12.491  0.00  0.00    +0.001 C 
ATOM     28  H   UNL     1      35.552 -25.262 -16.294  0.00  0.00    +0.149 HD
ENDBRANCH   1  21
BRANCH   5  29
ATOM     29  C   UNL     1      35.480 -20.820 -19.991  0.00  0.00    +0.037 C 
ATOM     30  C   UNL     1      34.644 -19.882 -20.404  0.00  0.00    +0.003 C 
BRANCH  30  31
ATOM     31  C   UNL     1      34.835 -19.099 -21.637  0.00  0.00    +0.000 C 
ATOM     32  C   UNL     1      35.186 -17.761 -21.543  0.00  0.00    +0.000 C 
ATOM     33  C   UNL     1      34.660 -19.713 -22.866  0.00  0.00    +0.000 C 
ATOM     34  C   UNL     1      35.368 -17.019 -22.710  0.00  0.00    +0.000 C 
ATOM     35  C   UNL     1      34.842 -18.971 -24.033  0.00  0.00    +0.000 C 
ATOM     36  C   UNL     1      35.196 -17.624 -23.955  0.00  0.00    +0.000 C 
ENDBRANCH  30  31
ENDBRANCH   5  29
TORSDOF 4
ENDMDL
MODEL 3
REMARK VINA RESULT:     -12.9      0.714      1.381
REMARK  Name = 6105620
REMARK  4 active torsions:
REMARK  status: ('A' for Active; 'I' for Inactive)
REMARK    1  A    between atoms: N_2  and  C_7
REMARK    2  A    between atoms: N_3  and  C_21
REMARK    3  A    between atoms: C_9  and  C_29
REMARK    4  A    between atoms: C_30  and  C_31
REMARK                            x       y       z     vdW  Elec       q    Type
REMARK                         _______ _______ _______ _____ _____    ______ ____
ROOT
ATOM      1  N   UNL     1      33.854 -22.766 -17.159  0.00  0.00    -0.086 NA
ATOM      2  N   UNL     1      35.255 -22.560 -16.807  0.00  0.00    -0.132 N 
ATOM      3  N   UNL     1      33.702 -22.227 -18.468  0.00  0.00    -0.240 N 
ATOM      4  N   UNL     1      35.867 -21.845 -17.828  0.00  0.00    -0.146 NA
ATOM      5  C   UNL     1      34.934 -21.680 -18.752  0.00  0.00    +0.162 C 
ATOM      6  H   UNL     1      32.900 -22.243 -19.040  0.00  0.00    +0.170 HD
ENDROOT
BRANCH   2  11
ATOM      7  O   UNL     1      36.408 -27.291 -15.275  0.00  0.00    -0.220 OA
ATOM      8  O   UNL     1      39.059 -24.272 -11.976  0.00  0.00    -0.220 OA
ATOM      9  N   UNL     1      37.814 -27.072 -13.493  0.00  0.00    -0.062 NA
ATOM     10  N   UNL     1      38.450 -26.348 -12.701  0.00  0.00    -0.062 NA
ATOM     11  C   UNL     1      36.046 -23.147 -15.797  0.00  0.00    +0.089 C 
ATOM     12  C   UNL     1      36.129 -24.545 -15.670  0.00  0.00    +0.030 C 
ATOM     13  C   UNL     1      36.769 -22.346 -14.895  0.00  0.00    +0.019 C 
ATOM     14  C   UNL     1      36.916 -25.116 -14.666  0.00  0.00    +0.097 C 
ATOM     15  C   UNL     1      37.620 -24.315 -13.788  0.00  0.00    +0.096 C 
ATOM     16  C   UNL     1      37.554 -22.922 -13.895  0.00  0.00    +0.014 C 
ATOM     17  C   UNL     1      37.029 -26.569 -14.500  0.00  0.00    +0.174 C 
ATOM     18  C   UNL     1      38.428 -24.977 -12.758  0.00  0.00    +0.174 C 
ENDBRANCH   2  11
BRANCH   1  21
ATOM     19  S   UNL     1      31.197 -22.816 -16.840  0.00  0.00    -0.074 S 
ATOM     20  N   UNL     1      33.002 -23.942 -15.310  0.00  0.00    -0.310 N 
ATOM     21  C   UNL     1      32.861 -23.200 -16.414  0.00  0.00    +0.222 C 
ATOM     22  C   UNL     1      31.811 -24.251 -14.736  0.00  0.00    +0.052 C 
ATOM     23  C   UNL     1      30.695 -23.739 -15.407  0.00  0.00    +0.041 C 
ATOM     24  C   UNL     1      31.655 -25.008 -13.584  0.00  0.00    +0.015 C 
ATOM     25  C   UNL     1      29.409 -23.967 -14.946  0.00  0.00    +0.007 C 
ATOM     26  C   UNL     1      30.363 -25.245 -13.110  0.00  0.00    +0.001 C 
ATOM     27  C   UNL     1      29.248 -24.728 -13.786  0.00  0.00    +0.001 C 
ATOM     28  H   UNL     1      33.873 -24.232 -14.953  0.00  0.00    +0.149 HD
ENDBRANCH   1  21
BRANCH   5  29
ATOM     29  C   UNL     1      35.225 -20.946 -19.993  0.00  0.00    +0.037 C 
ATOM     30  C   UNL     1      34.488 -19.921 -20.387  0.00  0.00    +0.003 C 
BRANCH  30  31
ATOM     31  C   UNL     1      34.735 -19.162 -21.625  0.00  0.00    +0.000 C 
ATOM     32  C   UNL     1      34.574 -19.791 -22.850  0.00  0.00    +0.000 C 
ATOM     33  C   UNL     1      35.124 -17.836 -21.542  0.00  0.00    +0.000 C 
ATOM     34  C   UNL     1      34.807 -19.073 -24.023  0.00  0.00    +0.000 C 
ATOM     35  C   UNL     1      35.357 -17.117 -22.715  0.00  0.00    +0.000 C 
ATOM     36  C   UNL     1      35.199 -17.736 -23.955  0.00  0.00    +0.000 C 
ENDBRANCH  30  31
ENDBRANCH   5  29
TORSDOF 4
ENDMDL
MODEL 4
REMARK VINA RESULT:     -12.0      1.340      2.163
REMARK  Name = 6105620
REMARK  4 active torsions:
REMARK  status: ('A' for Active; 'I' for Inactive)
REMARK    1  A    between atoms: N_2  and  C_7
REMARK    2  A    between atoms: N_3  and  C_21
REMARK    3  A    between atoms: C_9  and  C_29
REMARK    4  A    between atoms: C_30  and  C_31
REMARK                            x       y       z     vdW  Elec       q    Type
REMARK                         _______ _______ _______ _____ _____    ______ ____
ROOT
ATOM      1  N   UNL     1      33.887 -23.122 -16.681  0.00  0.00    -0.086 NA
ATOM      2  N   UNL     1      35.255 -23.010 -16.185  0.00  0.00    -0.132 N 
ATOM      3  N   UNL     1      33.896 -22.530 -17.976  0.00  0.00    -0.240 N 
ATOM      4  N   UNL     1      36.004 -22.296 -17.111  0.00  0.00    -0.146 NA
ATOM      5  C   UNL     1      35.178 -22.044 -18.115  0.00  0.00    +0.162 C 
ATOM      6  H   UNL     1      33.156 -22.479 -18.623  0.00  0.00    +0.170 HD
ENDROOT
BRANCH   2  11
ATOM      7  O   UNL     1      37.840 -21.675 -11.991  0.00  0.00    -0.220 OA
ATOM      8  O   UNL     1      37.925 -26.872 -11.861  0.00  0.00    -0.220 OA
ATOM      9  N   UNL     1      38.476 -23.615 -10.974  0.00  0.00    -0.062 NA
ATOM     10  N   UNL     1      38.497 -24.863 -10.943  0.00  0.00    -0.062 NA
ATOM     11  C   UNL     1      35.909 -23.677 -15.128  0.00  0.00    +0.089 C 
ATOM     12  C   UNL     1      36.541 -22.952 -14.102  0.00  0.00    +0.030 C 
ATOM     13  C   UNL     1      35.942 -25.082 -15.077  0.00  0.00    +0.019 C 
ATOM     14  C   UNL     1      37.186 -23.622 -13.058  0.00  0.00    +0.097 C 
ATOM     15  C   UNL     1      37.209 -25.003 -13.024  0.00  0.00    +0.096 C 
ATOM     16  C   UNL     1      36.588 -25.745 -14.032  0.00  0.00    +0.014 C 
ATOM     17  C   UNL     1      37.856 -22.903 -11.971  0.00  0.00    +0.174 C 
ATOM     18  C   UNL     1      37.902 -25.645 -11.902  0.00  0.00    +0.174 C 
ENDBRANCH   2  11
BRANCH   1  21
ATOM     19  S   UNL     1      32.909 -24.163 -14.417  0.00  0.00    -0.074 S 
ATOM     20  N   UNL     1      31.569 -23.494 -16.568  0.00  0.00    -0.310 N 
ATOM     21  C   UNL     1      32.804 -23.525 -16.055  0.00  0.00    +0.222 C 
ATOM     22  C   UNL     1      30.635 -23.970 -15.704  0.00  0.00    +0.052 C 
ATOM     23  C   UNL     1      31.147 -24.388 -14.471  0.00  0.00    +0.041 C 
ATOM     24  C   UNL     1      29.276 -24.055 -15.969  0.00  0.00    +0.015 C 
ATOM     25  C   UNL     1      30.322 -24.898 -13.483  0.00  0.00    +0.007 C 
ATOM     26  C   UNL     1      28.433 -24.568 -14.980  0.00  0.00    +0.001 C 
ATOM     27  C   UNL     1      28.953 -24.986 -13.746  0.00  0.00    +0.001 C 
ATOM     28  H   UNL     1      31.360 -23.163 -17.472  0.00  0.00    +0.149 HD
ENDBRANCH   1  21
BRANCH   5  29
ATOM     29  C   UNL     1      35.631 -21.285 -19.290  0.00  0.00    +0.037 C 
ATOM     30  C   UNL     1      34.800 -20.546 -20.006  0.00  0.00    +0.003 C 
BRANCH  30  31
ATOM     31  C   UNL     1      35.205 -19.777 -21.195  0.00  0.00    +0.000 C 
ATOM     32  C   UNL     1      34.376 -19.758 -22.306  0.00  0.00    +0.000 C 
ATOM     33  C   UNL     1      36.406 -19.087 -21.181  0.00  0.00    +0.000 C 
ATOM     34  C   UNL     1      34.759 -19.030 -23.432  0.00  0.00    +0.000 C 
ATOM     35  C   UNL     1      36.789 -18.358 -22.307  0.00  0.00    +0.000 C 
ATOM     36  C   UNL     1      35.966 -18.329 -23.433  0.00  0.00    +0.000 C 
ENDBRANCH  30  31
ENDBRANCH   5  29
TORSDOF 4
ENDMDL
