MODEL 1
REMARK VINA RESULT:     -11.5      0.000      0.000
REMARK  Name = 9887812
REMARK  11 active torsions:
REMARK  status: ('A' for Active; 'I' for Inactive)
REMARK    1  A    between atoms: N_1  and  C_3
REMARK    2  A    between atoms: N_1  and  C_19
REMARK    3  A    between atoms: C_4  and  C_9
REMARK    4  A    between atoms: C_12  and  C_16
REMARK    5  A    between atoms: C_16  and  O_17
REMARK    6  A    between atoms: C_19  and  C_20
REMARK    7  A    between atoms: C_20  and  N_21
REMARK    8  A    between atoms: N_21  and  C_24
REMARK    9  A    between atoms: C_24  and  C_25
REMARK   10  A    between atoms: C_25  and  C_27
REMARK   11  A    between atoms: C_25  and  O_33
REMARK                            x       y       z     vdW  Elec       q    Type
REMARK                         _______ _______ _______ _____ _____    ______ ____
ROOT
ATOM      1  N   UNL     1      34.905 -22.687 -18.785  0.00  0.00    -0.335 N 
ATOM      2  H   UNL     1      35.142 -23.486 -19.310  0.00  0.00    +0.147 HD
ENDROOT
BRANCH   1   3
ATOM      3  C   UNL     1      34.521 -22.856 -17.439  0.00  0.00    +0.045 C 
ATOM      4  C   UNL     1      32.822 -23.352 -15.794  0.00  0.00    +0.001 C 
ATOM      5  C   UNL     1      33.202 -23.186 -17.126  0.00  0.00    +0.014 C 
ATOM      6  C   UNL     1      35.459 -22.692 -16.420  0.00  0.00    +0.014 C 
ATOM      7  C   UNL     1      33.761 -23.188 -14.774  0.00  0.00    +0.000 C 
ATOM      8  C   UNL     1      35.080 -22.858 -15.088  0.00  0.00    +0.001 C 
BRANCH   4   9
ATOM      9  C   UNL     1      31.455 -23.694 -15.469  0.00  0.00    +0.000 C 
ATOM     10  C   UNL     1      30.403 -23.120 -16.185  0.00  0.00    +0.006 C 
ATOM     11  C   UNL     1      31.187 -24.597 -14.440  0.00  0.00    +0.000 C 
ATOM     12  C   UNL     1      29.085 -23.450 -15.871  0.00  0.00    +0.075 C 
ATOM     13  C   UNL     1      29.868 -24.926 -14.126  0.00  0.00    +0.000 C 
ATOM     14  C   UNL     1      28.817 -24.352 -14.842  0.00  0.00    +0.006 C 
BRANCH  12  16
ATOM     15  O   UNL     1      27.609 -21.681 -16.519  0.00  0.00    -0.245 OA
ATOM     16  C   UNL     1      27.988 -22.853 -16.617  0.00  0.00    +0.338 C 
BRANCH  16  17
ATOM     17  O   UNL     1      27.395 -23.737 -17.467  0.00  0.00    -0.477 OA
ATOM     18  H   UNL     1      26.845 -23.425 -18.158  0.00  0.00    +0.295 HD
ENDBRANCH  16  17
ENDBRANCH  12  16
ENDBRANCH   4   9
ENDBRANCH   1   3
BRANCH   1  19
ATOM     19  C   UNL     1      34.968 -21.407 -19.421  0.00  0.00    +0.064 C 
BRANCH  19  20
ATOM     20  C   UNL     1      36.423 -21.027 -19.661  0.00  0.00    -0.060 C 
BRANCH  20  21
ATOM     21  N   UNL     1      36.511 -19.683 -20.219  0.00  0.00    +0.387 N 
ATOM     22  H   UNL     1      36.429 -19.003 -19.464  0.00  0.00    -0.084 HD
ATOM     23  H   UNL     1      37.410 -19.584 -20.691  0.00  0.00    -0.084 HD
BRANCH  21  24
ATOM     24  C   UNL     1      35.448 -19.452 -21.188  0.00  0.00    -0.047 C 
BRANCH  24  25
ATOM     25  C   UNL     1      35.982 -18.699 -22.413  0.00  0.00    +0.112 C 
BRANCH  25  27
ATOM     26 CL   UNL     1      33.844 -15.181 -25.590  0.00  0.00    -0.082 Cl
ATOM     27  C   UNL     1      35.289 -17.365 -22.587  0.00  0.00    +0.003 C 
ATOM     28  C   UNL     1      34.934 -16.949 -23.858  0.00  0.00    +0.009 C 
ATOM     29  C   UNL     1      35.023 -16.591 -21.470  0.00  0.00    -0.002 C 
ATOM     30  C   UNL     1      34.295 -15.719 -24.018  0.00  0.00    +0.057 C 
ATOM     31  C   UNL     1      34.385 -15.362 -21.630  0.00  0.00    +0.001 C 
ATOM     32  C   UNL     1      34.020 -14.926 -22.904  0.00  0.00    +0.011 C 
ENDBRANCH  25  27
BRANCH  25  33
ATOM     33  O   UNL     1      37.381 -18.460 -22.276  0.00  0.00    -0.382 OA
ATOM     34  H   UNL     1      37.592 -18.300 -21.343  0.00  0.00    +0.211 HD
ENDBRANCH  25  33
ENDBRANCH  24  25
ENDBRANCH  21  24
ENDBRANCH  20  21
ENDBRANCH  19  20
ENDBRANCH   1  19
TORSDOF 11
ENDMDL
MODEL 2
REMARK VINA RESULT:     -11.4      0.959      1.313
REMARK  Name = 9887812
REMARK  11 active torsions:
REMARK  status: ('A' for Active; 'I' for Inactive)
REMARK    1  A    between atoms: N_1  and  C_3
REMARK    2  A    between atoms: N_1  and  C_19
REMARK    3  A    between atoms: C_4  and  C_9
REMARK    4  A    between atoms: C_12  and  C_16
REMARK    5  A    between atoms: C_16  and  O_17
REMARK    6  A    between atoms: C_19  and  C_20
REMARK    7  A    between atoms: C_20  and  N_21
REMARK    8  A    between atoms: N_21  and  C_24
REMARK    9  A    between atoms: C_24  and  C_25
REMARK   10  A    between atoms: C_25  and  C_27
REMARK   11  A    between atoms: C_25  and  O_33
REMARK                            x       y       z     vdW  Elec       q    Type
REMARK                         _______ _______ _______ _____ _____    ______ ____
ROOT
ATOM      1  N   UNL     1      34.907 -22.663 -18.796  0.00  0.00    -0.335 N 
ATOM      2  H   UNL     1      35.171 -23.457 -19.314  0.00  0.00    +0.147 HD
ENDROOT
BRANCH   1   3
ATOM      3  C   UNL     1      34.527 -22.834 -17.449  0.00  0.00    +0.045 C 
ATOM      4  C   UNL     1      32.834 -23.334 -15.799  0.00  0.00    +0.001 C 
ATOM      5  C   UNL     1      33.209 -23.165 -17.132  0.00  0.00    +0.014 C 
ATOM      6  C   UNL     1      35.468 -22.672 -16.432  0.00  0.00    +0.014 C 
ATOM      7  C   UNL     1      33.775 -23.172 -14.782  0.00  0.00    +0.000 C 
ATOM      8  C   UNL     1      35.093 -22.840 -15.100  0.00  0.00    +0.001 C 
BRANCH   4   9
ATOM      9  C   UNL     1      31.467 -23.677 -15.471  0.00  0.00    +0.000 C 
ATOM     10  C   UNL     1      30.413 -23.109 -16.188  0.00  0.00    +0.006 C 
ATOM     11  C   UNL     1      31.203 -24.576 -14.437  0.00  0.00    +0.000 C 
ATOM     12  C   UNL     1      29.097 -23.440 -15.871  0.00  0.00    +0.075 C 
ATOM     13  C   UNL     1      29.885 -24.906 -14.120  0.00  0.00    +0.000 C 
ATOM     14  C   UNL     1      28.832 -24.338 -14.837  0.00  0.00    +0.006 C 
BRANCH  12  16
ATOM     15  O   UNL     1      27.614 -21.679 -16.523  0.00  0.00    -0.245 OA
ATOM     16  C   UNL     1      27.997 -22.849 -16.619  0.00  0.00    +0.338 C 
BRANCH  16  17
ATOM     17  O   UNL     1      27.407 -23.738 -17.466  0.00  0.00    -0.477 OA
ATOM     18  H   UNL     1      26.559 -24.082 -17.266  0.00  0.00    +0.295 HD
ENDBRANCH  16  17
ENDBRANCH  12  16
ENDBRANCH   4   9
ENDBRANCH   1   3
BRANCH   1  19
ATOM     19  C   UNL     1      34.929 -21.386 -19.441  0.00  0.00    +0.064 C 
BRANCH  19  20
ATOM     20  C   UNL     1      36.370 -20.974 -19.710  0.00  0.00    -0.060 C 
BRANCH  20  21
ATOM     21  N   UNL     1      36.419 -19.616 -20.239  0.00  0.00    +0.387 N 
ATOM     22  H   UNL     1      36.277 -18.956 -19.474  0.00  0.00    -0.084 HD
ATOM     23  H   UNL     1      37.330 -19.468 -20.672  0.00  0.00    -0.084 HD
BRANCH  21  24
ATOM     24  C   UNL     1      35.386 -19.412 -21.244  0.00  0.00    -0.047 C 
BRANCH  24  25
ATOM     25  C   UNL     1      35.963 -18.722 -22.487  0.00  0.00    +0.112 C 
BRANCH  25  27
ATOM     26 CL   UNL     1      34.123 -14.260 -20.552  0.00  0.00    -0.082 Cl
ATOM     27  C   UNL     1      35.309 -17.380 -22.728  0.00  0.00    +0.003 C 
ATOM     28  C   UNL     1      35.053 -16.549 -21.652  0.00  0.00    +0.009 C 
ATOM     29  C   UNL     1      34.982 -17.011 -24.022  0.00  0.00    -0.002 C 
ATOM     30  C   UNL     1      34.450 -15.310 -21.876  0.00  0.00    +0.057 C 
ATOM     31  C   UNL     1      34.379 -15.773 -24.246  0.00  0.00    +0.001 C 
ATOM     32  C   UNL     1      34.114 -14.923 -23.173  0.00  0.00    +0.011 C 
ENDBRANCH  25  27
BRANCH  25  33
ATOM     33  O   UNL     1      37.365 -18.513 -22.329  0.00  0.00    -0.382 OA
ATOM     34  H   UNL     1      37.561 -18.320 -21.399  0.00  0.00    +0.211 HD
ENDBRANCH  25  33
ENDBRANCH  24  25
ENDBRANCH  21  24
ENDBRANCH  20  21
ENDBRANCH  19  20
ENDBRANCH   1  19
TORSDOF 11
ENDMDL
MODEL 3
REMARK VINA RESULT:     -11.3      3.437      4.784
REMARK  Name = 9887812
REMARK  11 active torsions:
REMARK  status: ('A' for Active; 'I' for Inactive)
REMARK    1  A    between atoms: N_1  and  C_3
REMARK    2  A    between atoms: N_1  and  C_19
REMARK    3  A    between atoms: C_4  and  C_9
REMARK    4  A    between atoms: C_12  and  C_16
REMARK    5  A    between atoms: C_16  and  O_17
REMARK    6  A    between atoms: C_19  and  C_20
REMARK    7  A    between atoms: C_20  and  N_21
REMARK    8  A    between atoms: N_21  and  C_24
REMARK    9  A    between atoms: C_24  and  C_25
REMARK   10  A    between atoms: C_25  and  C_27
REMARK   11  A    between atoms: C_25  and  O_33
REMARK                            x       y       z     vdW  Elec       q    Type
REMARK                         _______ _______ _______ _____ _____    ______ ____
ROOT
ATOM      1  N   UNL     1      32.756 -22.490 -18.266  0.00  0.00    -0.335 N 
ATOM      2  H   UNL     1      31.994 -22.594 -18.881  0.00  0.00    +0.147 HD
ENDROOT
BRANCH   1   3
ATOM      3  C   UNL     1      32.588 -22.865 -16.917  0.00  0.00    +0.045 C 
ATOM      4  C   UNL     1      33.484 -23.799 -14.877  0.00  0.00    +0.001 C 
ATOM      5  C   UNL     1      33.651 -23.428 -16.212  0.00  0.00    +0.014 C 
ATOM      6  C   UNL     1      31.357 -22.675 -16.288  0.00  0.00    +0.014 C 
ATOM      7  C   UNL     1      32.254 -23.609 -14.248  0.00  0.00    +0.000 C 
ATOM      8  C   UNL     1      31.190 -23.047 -14.954  0.00  0.00    +0.001 C 
BRANCH   4   9
ATOM      9  C   UNL     1      34.588 -24.383 -14.146  0.00  0.00    +0.000 C 
ATOM     10  C   UNL     1      35.453 -25.274 -14.782  0.00  0.00    +0.006 C 
ATOM     11  C   UNL     1      34.786 -24.055 -12.805  0.00  0.00    +0.000 C 
ATOM     12  C   UNL     1      36.516 -25.837 -14.076  0.00  0.00    +0.075 C 
ATOM     13  C   UNL     1      35.849 -24.618 -12.099  0.00  0.00    +0.000 C 
ATOM     14  C   UNL     1      36.715 -25.509 -12.735  0.00  0.00    +0.006 C 
BRANCH  12  16
ATOM     15  O   UNL     1      38.549 -27.071 -14.341  0.00  0.00    -0.245 OA
ATOM     16  C   UNL     1      37.419 -26.765 -14.738  0.00  0.00    +0.338 C 
BRANCH  16  17
ATOM     17  O   UNL     1      36.887 -27.285 -15.879  0.00  0.00    -0.477 OA
ATOM     18  H   UNL     1      36.008 -27.075 -16.123  0.00  0.00    +0.295 HD
ENDBRANCH  16  17
ENDBRANCH  12  16
ENDBRANCH   4   9
ENDBRANCH   1   3
BRANCH   1  19
ATOM     19  C   UNL     1      33.984 -21.968 -18.780  0.00  0.00    +0.064 C 
BRANCH  19  20
ATOM     20  C   UNL     1      33.689 -20.939 -19.864  0.00  0.00    -0.060 C 
BRANCH  20  21
ATOM     21  N   UNL     1      34.918 -20.275 -20.281  0.00  0.00    +0.387 N 
ATOM     22  H   UNL     1      35.195 -19.606 -19.563  0.00  0.00    -0.084 HD
ATOM     23  H   UNL     1      35.643 -20.981 -20.409  0.00  0.00    -0.084 HD
BRANCH  21  24
ATOM     24  C   UNL     1      34.725 -19.571 -21.541  0.00  0.00    -0.047 C 
BRANCH  24  25
ATOM     25  C   UNL     1      35.769 -18.460 -21.709  0.00  0.00    +0.112 C 
BRANCH  25  27
ATOM     26 CL   UNL     1      34.082 -15.448 -25.599  0.00  0.00    -0.082 Cl
ATOM     27  C   UNL     1      35.130 -17.164 -22.158  0.00  0.00    +0.003 C 
ATOM     28  C   UNL     1      34.931 -16.941 -23.510  0.00  0.00    +0.009 C 
ATOM     29  C   UNL     1      34.757 -16.229 -21.207  0.00  0.00    -0.002 C 
ATOM     30  C   UNL     1      34.341 -15.746 -23.923  0.00  0.00    +0.057 C 
ATOM     31  C   UNL     1      34.168 -15.035 -21.621  0.00  0.00    +0.001 C 
ATOM     32  C   UNL     1      33.959 -14.793 -22.978  0.00  0.00    +0.011 C 
ENDBRANCH  25  27
BRANCH  25  33
ATOM     33  O   UNL     1      36.440 -18.221 -20.474  0.00  0.00    -0.382 OA
ATOM     34  H   UNL     1      37.380 -18.048 -20.643  0.00  0.00    +0.211 HD
ENDBRANCH  25  33
ENDBRANCH  24  25
ENDBRANCH  21  24
ENDBRANCH  20  21
ENDBRANCH  19  20
ENDBRANCH   1  19
TORSDOF 11
ENDMDL
MODEL 4
REMARK VINA RESULT:     -11.2      3.610      5.007
REMARK  Name = 9887812
REMARK  11 active torsions:
REMARK  status: ('A' for Active; 'I' for Inactive)
REMARK    1  A    between atoms: N_1  and  C_3
REMARK    2  A    between atoms: N_1  and  C_19
REMARK    3  A    between atoms: C_4  and  C_9
REMARK    4  A    between atoms: C_12  and  C_16
REMARK    5  A    between atoms: C_16  and  O_17
REMARK    6  A    between atoms: C_19  and  C_20
REMARK    7  A    between atoms: C_20  and  N_21
REMARK    8  A    between atoms: N_21  and  C_24
REMARK    9  A    between atoms: C_24  and  C_25
REMARK   10  A    between atoms: C_25  and  C_27
REMARK   11  A    between atoms: C_25  and  O_33
REMARK                            x       y       z     vdW  Elec       q    Type
REMARK                         _______ _______ _______ _____ _____    ______ ____
ROOT
ATOM      1  N   UNL     1      32.646 -22.540 -18.096  0.00  0.00    -0.335 N 
ATOM      2  H   UNL     1      31.836 -22.553 -18.655  0.00  0.00    +0.147 HD
ENDROOT
BRANCH   1   3
ATOM      3  C   UNL     1      32.543 -22.953 -16.751  0.00  0.00    +0.045 C 
ATOM      4  C   UNL     1      33.559 -23.865 -14.759  0.00  0.00    +0.001 C 
ATOM      5  C   UNL     1      33.662 -23.457 -16.089  0.00  0.00    +0.014 C 
ATOM      6  C   UNL     1      31.322 -22.858 -16.084  0.00  0.00    +0.014 C 
ATOM      7  C   UNL     1      32.338 -23.771 -14.091  0.00  0.00    +0.000 C 
ATOM      8  C   UNL     1      31.218 -23.268 -14.755  0.00  0.00    +0.001 C 
BRANCH   4   9
ATOM      9  C   UNL     1      34.720 -24.388 -14.072  0.00  0.00    +0.000 C 
ATOM     10  C   UNL     1      34.849 -24.223 -12.692  0.00  0.00    +0.006 C 
ATOM     11  C   UNL     1      35.711 -25.058 -14.789  0.00  0.00    +0.000 C 
ATOM     12  C   UNL     1      35.968 -24.726 -12.031  0.00  0.00    +0.075 C 
ATOM     13  C   UNL     1      36.831 -25.562 -14.127  0.00  0.00    +0.000 C 
ATOM     14  C   UNL     1      36.960 -25.396 -12.748  0.00  0.00    +0.006 C 
BRANCH  12  16
ATOM     15  O   UNL     1      36.889 -23.784 -10.034  0.00  0.00    -0.245 OA
ATOM     16  C   UNL     1      36.102 -24.555 -10.593  0.00  0.00    +0.338 C 
BRANCH  16  17
ATOM     17  O   UNL     1      35.250 -25.353  -9.891  0.00  0.00    -0.477 OA
ATOM     18  H   UNL     1      35.417 -25.535  -8.988  0.00  0.00    +0.295 HD
ENDBRANCH  16  17
ENDBRANCH  12  16
ENDBRANCH   4   9
ENDBRANCH   1   3
BRANCH   1  19
ATOM     19  C   UNL     1      33.876 -22.106 -18.684  0.00  0.00    +0.064 C 
BRANCH  19  20
ATOM     20  C   UNL     1      33.598 -20.994 -19.686  0.00  0.00    -0.060 C 
BRANCH  20  21
ATOM     21  N   UNL     1      34.842 -20.338 -20.073  0.00  0.00    +0.387 N 
ATOM     22  H   UNL     1      35.008 -19.546 -19.453  0.00  0.00    -0.084 HD
ATOM     23  H   UNL     1      35.603 -21.013 -20.000  0.00  0.00    -0.084 HD
BRANCH  21  24
ATOM     24  C   UNL     1      34.772 -19.861 -21.448  0.00  0.00    -0.047 C 
BRANCH  24  25
ATOM     25  C   UNL     1      35.877 -18.834 -21.725  0.00  0.00    +0.112 C 
BRANCH  25  27
ATOM     26 CL   UNL     1      34.000 -14.108 -20.637  0.00  0.00    -0.082 Cl
ATOM     27  C   UNL     1      35.304 -17.525 -22.220  0.00  0.00    +0.003 C 
ATOM     28  C   UNL     1      34.961 -16.547 -21.303  0.00  0.00    +0.009 C 
ATOM     29  C   UNL     1      35.137 -17.332 -23.581  0.00  0.00    -0.002 C 
ATOM     30  C   UNL     1      34.433 -15.339 -21.760  0.00  0.00    +0.057 C 
ATOM     31  C   UNL     1      34.609 -16.125 -24.038  0.00  0.00    +0.001 C 
ATOM     32  C   UNL     1      34.258 -15.128 -23.128  0.00  0.00    +0.011 C 
ENDBRANCH  25  27
BRANCH  25  33
ATOM     33  O   UNL     1      36.620 -18.574 -20.536  0.00  0.00    -0.382 OA
ATOM     34  H   UNL     1      37.203 -17.812 -20.678  0.00  0.00    +0.211 HD
ENDBRANCH  25  33
ENDBRANCH  24  25
ENDBRANCH  21  24
ENDBRANCH  20  21
ENDBRANCH  19  20
ENDBRANCH   1  19
TORSDOF 11
ENDMDL
MODEL 5
REMARK VINA RESULT:     -11.2      4.204      9.726
REMARK  Name = 9887812
REMARK  11 active torsions:
REMARK  status: ('A' for Active; 'I' for Inactive)
REMARK    1  A    between atoms: N_1  and  C_3
REMARK    2  A    between atoms: N_1  and  C_19
REMARK    3  A    between atoms: C_4  and  C_9
REMARK    4  A    between atoms: C_12  and  C_16
REMARK    5  A    between atoms: C_16  and  O_17
REMARK    6  A    between atoms: C_19  and  C_20
REMARK    7  A    between atoms: C_20  and  N_21
REMARK    8  A    between atoms: N_21  and  C_24
REMARK    9  A    between atoms: C_24  and  C_25
REMARK   10  A    between atoms: C_25  and  C_27
REMARK   11  A    between atoms: C_25  and  O_33
REMARK                            x       y       z     vdW  Elec       q    Type
REMARK                         _______ _______ _______ _____ _____    ______ ____
ROOT
ATOM      1  N   UNL     1      32.988 -22.362 -18.585  0.00  0.00    -0.335 N 
ATOM      2  H   UNL     1      32.137 -22.230 -19.061  0.00  0.00    +0.147 HD
ENDROOT
BRANCH   1   3
ATOM      3  C   UNL     1      34.142 -21.720 -19.080  0.00  0.00    +0.045 C 
ATOM      4  C   UNL     1      35.172 -20.121 -20.570  0.00  0.00    +0.001 C 
ATOM      5  C   UNL     1      34.030 -20.756 -20.081  0.00  0.00    +0.014 C 
ATOM      6  C   UNL     1      35.397 -22.050 -18.568  0.00  0.00    +0.014 C 
ATOM      7  C   UNL     1      36.427 -20.451 -20.058  0.00  0.00    +0.000 C 
ATOM      8  C   UNL     1      36.539 -21.417 -19.057  0.00  0.00    +0.001 C 
BRANCH   4   9
ATOM      9  C   UNL     1      35.055 -19.121 -21.608  0.00  0.00    +0.000 C 
ATOM     10  C   UNL     1      34.981 -17.769 -21.271  0.00  0.00    +0.006 C 
ATOM     11  C   UNL     1      35.017 -19.509 -22.948  0.00  0.00    +0.000 C 
ATOM     12  C   UNL     1      34.867 -16.806 -22.273  0.00  0.00    +0.075 C 
ATOM     13  C   UNL     1      34.903 -18.545 -23.950  0.00  0.00    +0.000 C 
ATOM     14  C   UNL     1      34.829 -17.193 -23.612  0.00  0.00    +0.006 C 
BRANCH  12  16
ATOM     15  O   UNL     1      34.528 -14.951 -20.800  0.00  0.00    -0.245 OA
ATOM     16  C   UNL     1      34.790 -15.397 -21.922  0.00  0.00    +0.338 C 
BRANCH  16  17
ATOM     17  O   UNL     1      35.043 -14.581 -22.983  0.00  0.00    -0.477 OA
ATOM     18  H   UNL     1      34.359 -14.048 -23.337  0.00  0.00    +0.295 HD
ENDBRANCH  16  17
ENDBRANCH  12  16
ENDBRANCH   4   9
ENDBRANCH   1   3
BRANCH   1  19
ATOM     19  C   UNL     1      32.999 -23.194 -17.422  0.00  0.00    +0.064 C 
BRANCH  19  20
ATOM     20  C   UNL     1      31.869 -22.782 -16.488  0.00  0.00    -0.060 C 
BRANCH  20  21
ATOM     21  N   UNL     1      31.772 -23.711 -15.368  0.00  0.00    +0.387 N 
ATOM     22  H   UNL     1      30.823 -23.687 -14.997  0.00  0.00    -0.084 HD
ATOM     23  H   UNL     1      32.001 -24.647 -15.700  0.00  0.00    -0.084 HD
BRANCH  21  24
ATOM     24  C   UNL     1      32.707 -23.349 -14.311  0.00  0.00    -0.047 C 
BRANCH  24  25
ATOM     25  C   UNL     1      33.649 -24.518 -13.994  0.00  0.00    +0.112 C 
BRANCH  25  27
ATOM     26 CL   UNL     1      38.593 -26.070 -14.425  0.00  0.00    -0.082 Cl
ATOM     27  C   UNL     1      35.079 -24.192 -14.364  0.00  0.00    +0.003 C 
ATOM     28  C   UNL     1      36.050 -25.170 -14.235  0.00  0.00    +0.009 C 
ATOM     29  C   UNL     1      35.386 -22.924 -14.826  0.00  0.00    -0.002 C 
ATOM     30  C   UNL     1      37.369 -24.870 -14.577  0.00  0.00    +0.057 C 
ATOM     31  C   UNL     1      36.704 -22.624 -15.168  0.00  0.00    +0.001 C 
ATOM     32  C   UNL     1      37.695 -23.596 -15.044  0.00  0.00    +0.011 C 
ENDBRANCH  25  27
BRANCH  25  33
ATOM     33  O   UNL     1      33.607 -24.822 -12.601  0.00  0.00    -0.382 OA
ATOM     34  H   UNL     1      32.958 -24.249 -12.164  0.00  0.00    +0.211 HD
ENDBRANCH  25  33
ENDBRANCH  24  25
ENDBRANCH  21  24
ENDBRANCH  20  21
ENDBRANCH  19  20
ENDBRANCH   1  19
TORSDOF 11
ENDMDL
MODEL 6
REMARK VINA RESULT:     -11.1      4.972      8.557
REMARK  Name = 9887812
REMARK  11 active torsions:
REMARK  status: ('A' for Active; 'I' for Inactive)
REMARK    1  A    between atoms: N_1  and  C_3
REMARK    2  A    between atoms: N_1  and  C_19
REMARK    3  A    between atoms: C_4  and  C_9
REMARK    4  A    between atoms: C_12  and  C_16
REMARK    5  A    between atoms: C_16  and  O_17
REMARK    6  A    between atoms: C_19  and  C_20
REMARK    7  A    between atoms: C_20  and  N_21
REMARK    8  A    between atoms: N_21  and  C_24
REMARK    9  A    between atoms: C_24  and  C_25
REMARK   10  A    between atoms: C_25  and  C_27
REMARK   11  A    between atoms: C_25  and  O_33
REMARK                            x       y       z     vdW  Elec       q    Type
REMARK                         _______ _______ _______ _____ _____    ______ ____
ROOT
ATOM      1  N   UNL     1      34.488 -14.400 -22.048  0.00  0.00    -0.335 N 
ATOM      2  H   UNL     1      34.617 -13.640 -22.659  0.00  0.00    +0.147 HD
ENDROOT
BRANCH   1   3
ATOM      3  C   UNL     1      34.701 -15.704 -22.541  0.00  0.00    +0.045 C 
ATOM      4  C   UNL     1      35.188 -18.038 -22.146  0.00  0.00    +0.001 C 
ATOM      5  C   UNL     1      34.977 -16.748 -21.657  0.00  0.00    +0.014 C 
ATOM      6  C   UNL     1      34.637 -15.951 -23.912  0.00  0.00    +0.014 C 
ATOM      7  C   UNL     1      35.124 -18.284 -23.517  0.00  0.00    +0.000 C 
ATOM      8  C   UNL     1      34.850 -17.239 -24.401  0.00  0.00    +0.001 C 
BRANCH   4   9
ATOM      9  C   UNL     1      35.474 -19.119 -21.229  0.00  0.00    +0.000 C 
ATOM     10  C   UNL     1      34.433 -19.894 -20.717  0.00  0.00    +0.006 C 
ATOM     11  C   UNL     1      36.791 -19.388 -20.858  0.00  0.00    +0.000 C 
ATOM     12  C   UNL     1      34.710 -20.937 -19.833  0.00  0.00    +0.075 C 
ATOM     13  C   UNL     1      37.068 -20.431 -19.973  0.00  0.00    +0.000 C 
ATOM     14  C   UNL     1      36.027 -21.206 -19.460  0.00  0.00    +0.006 C 
BRANCH  12  16
ATOM     15  O   UNL     1      33.678 -22.961 -19.081  0.00  0.00    -0.245 OA
ATOM     16  C   UNL     1      33.625 -21.746 -19.299  0.00  0.00    +0.338 C 
BRANCH  16  17
ATOM     17  O   UNL     1      32.503 -21.015 -19.052  0.00  0.00    -0.477 OA
ATOM     18  H   UNL     1      31.689 -21.261 -19.443  0.00  0.00    +0.295 HD
ENDBRANCH  16  17
ENDBRANCH  12  16
ENDBRANCH   4   9
ENDBRANCH   1   3
BRANCH   1  19
ATOM     19  C   UNL     1      34.094 -14.134 -20.699  0.00  0.00    +0.064 C 
BRANCH  19  20
ATOM     20  C   UNL     1      32.575 -14.158 -20.595  0.00  0.00    -0.060 C 
BRANCH  20  21
ATOM     21  N   UNL     1      31.978 -13.441 -21.716  0.00  0.00    +0.387 N 
ATOM     22  H   UNL     1      32.285 -13.871 -22.588  0.00  0.00    -0.084 HD
ATOM     23  H   UNL     1      30.963 -13.491 -21.632  0.00  0.00    -0.084 HD
BRANCH  21  24
ATOM     24  C   UNL     1      32.378 -12.040 -21.707  0.00  0.00    -0.047 C 
BRANCH  24  25
ATOM     25  C   UNL     1      31.575 -11.250 -20.667  0.00  0.00    +0.112 C 
BRANCH  25  27
ATOM     26 CL   UNL     1      31.721  -7.087 -23.779  0.00  0.00    -0.082 Cl
ATOM     27  C   UNL     1      31.780  -9.760 -20.825  0.00  0.00    +0.003 C 
ATOM     28  C   UNL     1      31.667  -9.191 -22.081  0.00  0.00    +0.009 C 
ATOM     29  C   UNL     1      32.073  -8.996 -19.707  0.00  0.00    -0.002 C 
ATOM     30  C   UNL     1      31.856  -7.816 -22.226  0.00  0.00    +0.057 C 
ATOM     31  C   UNL     1      32.262  -7.622 -19.852  0.00  0.00    +0.001 C 
ATOM     32  C   UNL     1      32.152  -7.032 -21.111  0.00  0.00    +0.011 C 
ENDBRANCH  25  27
BRANCH  25  33
ATOM     33  O   UNL     1      30.182 -11.526 -20.805  0.00  0.00    -0.382 OA
ATOM     34  H   UNL     1      29.908 -11.359 -21.720  0.00  0.00    +0.211 HD
ENDBRANCH  25  33
ENDBRANCH  24  25
ENDBRANCH  21  24
ENDBRANCH  20  21
ENDBRANCH  19  20
ENDBRANCH   1  19
TORSDOF 11
ENDMDL
MODEL 7
REMARK VINA RESULT:     -10.9      4.233      9.535
REMARK  Name = 9887812
REMARK  11 active torsions:
REMARK  status: ('A' for Active; 'I' for Inactive)
REMARK    1  A    between atoms: N_1  and  C_3
REMARK    2  A    between atoms: N_1  and  C_19
REMARK    3  A    between atoms: C_4  and  C_9
REMARK    4  A    between atoms: C_12  and  C_16
REMARK    5  A    between atoms: C_16  and  O_17
REMARK    6  A    between atoms: C_19  and  C_20
REMARK    7  A    between atoms: C_20  and  N_21
REMARK    8  A    between atoms: N_21  and  C_24
REMARK    9  A    between atoms: C_24  and  C_25
REMARK   10  A    between atoms: C_25  and  C_27
REMARK   11  A    between atoms: C_25  and  O_33
REMARK                            x       y       z     vdW  Elec       q    Type
REMARK                         _______ _______ _______ _____ _____    ______ ____
ROOT
ATOM      1  N   UNL     1      36.919 -21.907 -18.238  0.00  0.00    -0.335 N 
ATOM      2  H   UNL     1      37.485 -22.598 -18.650  0.00  0.00    +0.147 HD
ENDROOT
BRANCH   1   3
ATOM      3  C   UNL     1      35.762 -21.486 -18.926  0.00  0.00    +0.045 C 
ATOM      4  C   UNL     1      34.715 -20.115 -20.617  0.00  0.00    +0.001 C 
ATOM      5  C   UNL     1      35.860 -20.531 -19.937  0.00  0.00    +0.014 C 
ATOM      6  C   UNL     1      34.519 -22.025 -18.594  0.00  0.00    +0.014 C 
ATOM      7  C   UNL     1      33.471 -20.654 -20.286  0.00  0.00    +0.000 C 
ATOM      8  C   UNL     1      33.374 -21.609 -19.273  0.00  0.00    +0.001 C 
BRANCH   4   9
ATOM      9  C   UNL     1      34.817 -19.124 -21.666  0.00  0.00    +0.000 C 
ATOM     10  C   UNL     1      34.775 -17.766 -21.350  0.00  0.00    +0.006 C 
ATOM     11  C   UNL     1      34.957 -19.527 -22.994  0.00  0.00    +0.000 C 
ATOM     12  C   UNL     1      34.873 -16.811 -22.362  0.00  0.00    +0.075 C 
ATOM     13  C   UNL     1      35.055 -18.572 -24.006  0.00  0.00    +0.000 C 
ATOM     14  C   UNL     1      35.013 -17.213 -23.690  0.00  0.00    +0.006 C 
BRANCH  12  16
ATOM     15  O   UNL     1      34.626 -14.927 -20.908  0.00  0.00    -0.245 OA
ATOM     16  C   UNL     1      34.831 -15.395 -22.033  0.00  0.00    +0.338 C 
BRANCH  16  17
ATOM     17  O   UNL     1      35.046 -14.601 -23.119  0.00  0.00    -0.477 OA
ATOM     18  H   UNL     1      35.235 -14.988 -23.950  0.00  0.00    +0.295 HD
ENDBRANCH  16  17
ENDBRANCH  12  16
ENDBRANCH   4   9
ENDBRANCH   1   3
BRANCH   1  19
ATOM     19  C   UNL     1      37.304 -21.374 -16.967  0.00  0.00    +0.064 C 
BRANCH  19  20
ATOM     20  C   UNL     1      38.001 -22.455 -16.151  0.00  0.00    -0.060 C 
BRANCH  20  21
ATOM     21  N   UNL     1      37.091 -23.566 -15.899  0.00  0.00    +0.387 N 
ATOM     22  H   UNL     1      36.436 -23.643 -16.677  0.00  0.00    -0.084 HD
ATOM     23  H   UNL     1      37.639 -24.422 -15.809  0.00  0.00    -0.084 HD
BRANCH  21  24
ATOM     24  C   UNL     1      36.346 -23.358 -14.665  0.00  0.00    -0.047 C 
BRANCH  24  25
ATOM     25  C   UNL     1      35.415 -24.544 -14.384  0.00  0.00    +0.112 C 
BRANCH  25  27
ATOM     26 CL   UNL     1      30.496 -24.628 -12.699  0.00  0.00    -0.082 Cl
ATOM     27  C   UNL     1      33.965 -24.175 -14.607  0.00  0.00    +0.003 C 
ATOM     28  C   UNL     1      33.023 -24.534 -13.659  0.00  0.00    +0.009 C 
ATOM     29  C   UNL     1      33.612 -23.483 -15.753  0.00  0.00    -0.002 C 
ATOM     30  C   UNL     1      31.686 -24.192 -13.865  0.00  0.00    +0.057 C 
ATOM     31  C   UNL     1      32.276 -23.142 -15.959  0.00  0.00    +0.001 C 
ATOM     32  C   UNL     1      31.313 -23.496 -15.015  0.00  0.00    +0.011 C 
ENDBRANCH  25  27
BRANCH  25  33
ATOM     33  O   UNL     1      35.734 -25.637 -15.244  0.00  0.00    -0.382 OA
ATOM     34  H   UNL     1      36.077 -26.375 -14.716  0.00  0.00    +0.211 HD
ENDBRANCH  25  33
ENDBRANCH  24  25
ENDBRANCH  21  24
ENDBRANCH  20  21
ENDBRANCH  19  20
ENDBRANCH   1  19
TORSDOF 11
ENDMDL
MODEL 8
REMARK VINA RESULT:     -10.8      7.932     11.814
REMARK  Name = 9887812
REMARK  11 active torsions:
REMARK  status: ('A' for Active; 'I' for Inactive)
REMARK    1  A    between atoms: N_1  and  C_3
REMARK    2  A    between atoms: N_1  and  C_19
REMARK    3  A    between atoms: C_4  and  C_9
REMARK    4  A    between atoms: C_12  and  C_16
REMARK    5  A    between atoms: C_16  and  O_17
REMARK    6  A    between atoms: C_19  and  C_20
REMARK    7  A    between atoms: C_20  and  N_21
REMARK    8  A    between atoms: N_21  and  C_24
REMARK    9  A    between atoms: C_24  and  C_25
REMARK   10  A    between atoms: C_25  and  C_27
REMARK   11  A    between atoms: C_25  and  O_33
REMARK                            x       y       z     vdW  Elec       q    Type
REMARK                         _______ _______ _______ _____ _____    ______ ____
ROOT
ATOM      1  N   UNL     1      31.223 -11.870 -20.964  0.00  0.00    -0.335 N 
ATOM      2  H   UNL     1      30.284 -11.774 -21.243  0.00  0.00    +0.147 HD
ENDROOT
BRANCH   1   3
ATOM      3  C   UNL     1      32.208 -12.034 -21.959  0.00  0.00    +0.045 C 
ATOM      4  C   UNL     1      33.649 -13.471 -23.262  0.00  0.00    +0.001 C 
ATOM      5  C   UNL     1      32.673 -13.310 -22.277  0.00  0.00    +0.014 C 
ATOM      6  C   UNL     1      32.719 -10.920 -22.625  0.00  0.00    +0.014 C 
ATOM      7  C   UNL     1      34.159 -12.357 -23.928  0.00  0.00    +0.000 C 
ATOM      8  C   UNL     1      33.694 -11.081 -23.609  0.00  0.00    +0.001 C 
BRANCH   4   9
ATOM      9  C   UNL     1      34.131 -14.794 -23.591  0.00  0.00    +0.000 C 
ATOM     10  C   UNL     1      34.691 -15.601 -22.599  0.00  0.00    +0.006 C 
ATOM     11  C   UNL     1      34.036 -15.265 -24.901  0.00  0.00    +0.000 C 
ATOM     12  C   UNL     1      35.156 -16.876 -22.918  0.00  0.00    +0.075 C 
ATOM     13  C   UNL     1      34.502 -16.540 -25.220  0.00  0.00    +0.000 C 
ATOM     14  C   UNL     1      35.062 -17.347 -24.228  0.00  0.00    +0.006 C 
BRANCH  12  16
ATOM     15  O   UNL     1      35.254 -17.917 -20.766  0.00  0.00    -0.245 OA
ATOM     16  C   UNL     1      35.739 -17.717 -21.885  0.00  0.00    +0.338 C 
BRANCH  16  17
ATOM     17  O   UNL     1      36.912 -18.286 -22.277  0.00  0.00    -0.477 OA
ATOM     18  H   UNL     1      37.265 -19.009 -21.797  0.00  0.00    +0.295 HD
ENDBRANCH  16  17
ENDBRANCH  12  16
ENDBRANCH   4   9
ENDBRANCH   1   3
BRANCH   1  19
ATOM     19  C   UNL     1      31.528 -11.834 -19.567  0.00  0.00    +0.064 C 
BRANCH  19  20
ATOM     20  C   UNL     1      31.084 -10.501 -18.980  0.00  0.00    -0.060 C 
BRANCH  20  21
ATOM     21  N   UNL     1      32.185  -9.545 -19.002  0.00  0.00    +0.387 N 
ATOM     22  H   UNL     1      32.291  -9.138 -18.073  0.00  0.00    -0.084 HD
ATOM     23  H   UNL     1      33.037 -10.035 -19.275  0.00  0.00    -0.084 HD
BRANCH  21  24
ATOM     24  C   UNL     1      31.931  -8.481 -19.963  0.00  0.00    -0.047 C 
BRANCH  24  25
ATOM     25  C   UNL     1      33.202  -7.662 -20.218  0.00  0.00    +0.112 C 
BRANCH  25  27
ATOM     26 CL   UNL     1      30.912  -4.180 -23.328  0.00  0.00    -0.082 Cl
ATOM     27  C   UNL     1      33.150  -6.961 -21.558  0.00  0.00    +0.003 C 
ATOM     28  C   UNL     1      32.170  -6.012 -21.786  0.00  0.00    +0.009 C 
ATOM     29  C   UNL     1      34.086  -7.284 -22.526  0.00  0.00    -0.002 C 
ATOM     30  C   UNL     1      32.123  -5.365 -23.022  0.00  0.00    +0.057 C 
ATOM     31  C   UNL     1      34.038  -6.637 -23.761  0.00  0.00    +0.001 C 
ATOM     32  C   UNL     1      33.057  -5.678 -24.009  0.00  0.00    +0.011 C 
ENDBRANCH  25  27
BRANCH  25  33
ATOM     33  O   UNL     1      33.365  -6.673 -19.204  0.00  0.00    -0.382 OA
ATOM     34  H   UNL     1      33.358  -5.791 -19.607  0.00  0.00    +0.211 HD
ENDBRANCH  25  33
ENDBRANCH  24  25
ENDBRANCH  21  24
ENDBRANCH  20  21
ENDBRANCH  19  20
ENDBRANCH   1  19
TORSDOF 11
ENDMDL
MODEL 9
REMARK VINA RESULT:     -10.7      3.854      4.939
REMARK  Name = 9887812
REMARK  11 active torsions:
REMARK  status: ('A' for Active; 'I' for Inactive)
REMARK    1  A    between atoms: N_1  and  C_3
REMARK    2  A    between atoms: N_1  and  C_19
REMARK    3  A    between atoms: C_4  and  C_9
REMARK    4  A    between atoms: C_12  and  C_16
REMARK    5  A    between atoms: C_16  and  O_17
REMARK    6  A    between atoms: C_19  and  C_20
REMARK    7  A    between atoms: C_20  and  N_21
REMARK    8  A    between atoms: N_21  and  C_24
REMARK    9  A    between atoms: C_24  and  C_25
REMARK   10  A    between atoms: C_25  and  C_27
REMARK   11  A    between atoms: C_25  and  O_33
REMARK                            x       y       z     vdW  Elec       q    Type
REMARK                         _______ _______ _______ _____ _____    ______ ____
ROOT
ATOM      1  N   UNL     1      34.765 -22.191 -19.090  0.00  0.00    -0.335 N 
ATOM      2  H   UNL     1      35.067 -22.696 -19.879  0.00  0.00    +0.147 HD
ENDROOT
BRANCH   1   3
ATOM      3  C   UNL     1      35.606 -22.144 -17.959  0.00  0.00    +0.045 C 
ATOM      4  C   UNL     1      36.019 -22.663 -15.635  0.00  0.00    +0.001 C 
ATOM      5  C   UNL     1      35.187 -22.710 -16.755  0.00  0.00    +0.014 C 
ATOM      6  C   UNL     1      36.856 -21.531 -18.043  0.00  0.00    +0.014 C 
ATOM      7  C   UNL     1      37.269 -22.050 -15.720  0.00  0.00    +0.000 C 
ATOM      8  C   UNL     1      37.687 -21.483 -16.925  0.00  0.00    +0.001 C 
BRANCH   4   9
ATOM      9  C   UNL     1      35.584 -23.250 -14.387  0.00  0.00    +0.000 C 
ATOM     10  C   UNL     1      36.398 -23.168 -13.256  0.00  0.00    +0.006 C 
ATOM     11  C   UNL     1      34.351 -23.897 -14.313  0.00  0.00    +0.000 C 
ATOM     12  C   UNL     1      35.978 -23.735 -12.053  0.00  0.00    +0.075 C 
ATOM     13  C   UNL     1      33.931 -24.464 -13.109  0.00  0.00    +0.000 C 
ATOM     14  C   UNL     1      34.745 -24.382 -11.979  0.00  0.00    +0.006 C 
BRANCH  12  16
ATOM     15  O   UNL     1      37.949 -23.137 -10.835  0.00  0.00    -0.245 OA
ATOM     16  C   UNL     1      36.825 -23.649 -10.874  0.00  0.00    +0.338 C 
BRANCH  16  17
ATOM     17  O   UNL     1      36.246 -24.207  -9.775  0.00  0.00    -0.477 OA
ATOM     18  H   UNL     1      35.721 -23.681  -9.205  0.00  0.00    +0.295 HD
ENDBRANCH  16  17
ENDBRANCH  12  16
ENDBRANCH   4   9
ENDBRANCH   1   3
BRANCH   1  19
ATOM     19  C   UNL     1      33.496 -21.534 -19.143  0.00  0.00    +0.064 C 
BRANCH  19  20
ATOM     20  C   UNL     1      33.513 -20.474 -20.236  0.00  0.00    -0.060 C 
BRANCH  20  21
ATOM     21  N   UNL     1      34.860 -20.322 -20.773  0.00  0.00    +0.387 N 
ATOM     22  H   UNL     1      35.440 -19.839 -20.087  0.00  0.00    -0.084 HD
ATOM     23  H   UNL     1      35.239 -21.248 -20.970  0.00  0.00    -0.084 HD
BRANCH  21  24
ATOM     24  C   UNL     1      34.843 -19.552 -22.010  0.00  0.00    -0.047 C 
BRANCH  24  25
ATOM     25  C   UNL     1      35.810 -18.365 -21.927  0.00  0.00    +0.112 C 
BRANCH  25  27
ATOM     26 CL   UNL     1      33.542 -13.850 -20.697  0.00  0.00    -0.082 Cl
ATOM     27  C   UNL     1      35.152 -17.082 -22.383  0.00  0.00    +0.003 C 
ATOM     28  C   UNL     1      34.708 -16.176 -21.436  0.00  0.00    +0.009 C 
ATOM     29  C   UNL     1      35.010 -16.840 -23.739  0.00  0.00    -0.002 C 
ATOM     30  C   UNL     1      34.102 -14.992 -21.858  0.00  0.00    +0.057 C 
ATOM     31  C   UNL     1      34.404 -15.657 -24.160  0.00  0.00    +0.001 C 
ATOM     32  C   UNL     1      33.950 -14.733 -23.220  0.00  0.00    +0.011 C 
ENDBRANCH  25  27
BRANCH  25  33
ATOM     33  O   UNL     1      36.256 -18.184 -20.584  0.00  0.00    -0.382 OA
ATOM     34  H   UNL     1      36.151 -19.015 -20.093  0.00  0.00    +0.211 HD
ENDBRANCH  25  33
ENDBRANCH  24  25
ENDBRANCH  21  24
ENDBRANCH  20  21
ENDBRANCH  19  20
ENDBRANCH   1  19
TORSDOF 11
ENDMDL
