MODEL 1
REMARK VINA RESULT:     -12.4      0.000      0.000
REMARK  Name = 68488178
REMARK  9 active torsions:
REMARK  status: ('A' for Active; 'I' for Inactive)
REMARK    1  A    between atoms: N_1  and  C_10
REMARK    2  A    between atoms: N_2  and  C_29
REMARK    3  A    between atoms: C_10  and  C_11
REMARK    4  A    between atoms: C_16  and  O_17
REMARK    5  A    between atoms: O_17  and  C_18
REMARK    6  A    between atoms: C_23  and  C_26
REMARK    7  A    between atoms: C_29  and  C_30
REMARK    8  A    between atoms: C_35  and  C_37
REMARK    9  A    between atoms: C_37  and  O_38
REMARK                            x       y       z     vdW  Elec       q    Type
REMARK                         _______ _______ _______ _____ _____    ______ ____
ROOT
ATOM      1  N   UNL     1      33.251 -23.472 -16.816  0.00  0.00    +0.388 N 
ATOM      2  N   UNL     1      34.334 -24.819 -14.611  0.00  0.00    +0.388 N 
ATOM      3  C   UNL     1      34.330 -22.893 -15.979  0.00  0.00    -0.081 C 
ATOM      4  C   UNL     1      33.119 -23.973 -14.512  0.00  0.00    -0.081 C 
ATOM      5  C   UNL     1      33.641 -22.556 -14.669  0.00  0.00    -0.046 C 
ATOM      6  C   UNL     1      32.360 -24.149 -15.840  0.00  0.00    -0.098 C 
ATOM      7  C   UNL     1      35.217 -24.073 -15.542  0.00  0.00    -0.098 C 
ATOM      8  H   UNL     1      33.617 -24.114 -17.520  0.00  0.00    -0.079 HD
ATOM      9  H   UNL     1      34.119 -25.759 -14.946  0.00  0.00    -0.079 HD
ENDROOT
BRANCH   1  10
ATOM     10  C   UNL     1      32.544 -22.464 -17.597  0.00  0.00    -0.050 C 
BRANCH  10  11
ATOM     11  C   UNL     1      33.446 -21.796 -18.600  0.00  0.00    -0.043 C 
ATOM     12  C   UNL     1      32.913 -20.907 -19.533  0.00  0.00    -0.003 C 
ATOM     13  C   UNL     1      34.815 -22.067 -18.596  0.00  0.00    -0.003 C 
ATOM     14  C   UNL     1      33.749 -20.288 -20.463  0.00  0.00    +0.037 C 
ATOM     15  C   UNL     1      35.650 -21.448 -19.526  0.00  0.00    +0.037 C 
ATOM     16  C   UNL     1      35.117 -20.558 -20.460  0.00  0.00    +0.145 C 
BRANCH  16  17
ATOM     17  O   UNL     1      35.933 -19.955 -21.367  0.00  0.00    -0.453 OA
BRANCH  17  18
ATOM     18  C   UNL     1      35.536 -18.729 -21.875  0.00  0.00    +0.145 C 
ATOM     19  C   UNL     1      35.302 -18.583 -23.242  0.00  0.00    +0.038 C 
ATOM     20  C   UNL     1      35.371 -17.640 -21.019  0.00  0.00    +0.038 C 
ATOM     21  C   UNL     1      34.905 -17.348 -23.753  0.00  0.00    +0.008 C 
ATOM     22  C   UNL     1      34.975 -16.405 -21.530  0.00  0.00    +0.008 C 
ATOM     23  C   UNL     1      34.741 -16.258 -22.898  0.00  0.00    +0.054 C 
BRANCH  23  26
ATOM     24  O   UNL     1      33.696 -15.029 -24.630  0.00  0.00    -0.431 OA
ATOM     25  N   UNL     1      34.483 -13.780 -22.916  0.00  0.00    -0.206 NA
ATOM     26  C   UNL     1      34.331 -14.981 -23.427  0.00  0.00    +0.230 C 
ATOM     27  C   UNL     1      33.423 -13.721 -24.898  0.00  0.00    +0.202 C 
ATOM     28  C   UNL     1      33.901 -12.968 -23.856  0.00  0.00    +0.143 C 
ENDBRANCH  23  26
ENDBRANCH  17  18
ENDBRANCH  16  17
ENDBRANCH  10  11
ENDBRANCH   1  10
BRANCH   2  29
ATOM     29  C   UNL     1      34.967 -25.045 -13.317  0.00  0.00    -0.050 C 
BRANCH  29  30
ATOM     30  C   UNL     1      36.446 -25.292 -13.452  0.00  0.00    -0.043 C 
ATOM     31  C   UNL     1      37.355 -24.455 -12.803  0.00  0.00    -0.006 C 
ATOM     32  C   UNL     1      36.909 -26.355 -14.228  0.00  0.00    -0.006 C 
ATOM     33  C   UNL     1      38.724 -24.683 -12.929  0.00  0.00    +0.006 C 
ATOM     34  C   UNL     1      38.278 -26.582 -14.354  0.00  0.00    +0.006 C 
ATOM     35  C   UNL     1      39.188 -25.747 -13.704  0.00  0.00    +0.075 C 
BRANCH  35  37
ATOM     36  O   UNL     1      41.210 -27.002 -13.464  0.00  0.00    -0.245 OA
ATOM     37  C   UNL     1      40.615 -25.984 -13.834  0.00  0.00    +0.338 C 
BRANCH  37  38
ATOM     38  O   UNL     1      41.264 -24.944 -14.426  0.00  0.00    -0.477 OA
ATOM     39  H   UNL     1      42.101 -24.670 -14.106  0.00  0.00    +0.295 HD
ENDBRANCH  37  38
ENDBRANCH  35  37
ENDBRANCH  29  30
ENDBRANCH   2  29
TORSDOF 9
ENDMDL
MODEL 2
REMARK VINA RESULT:     -12.1      4.169     12.965
REMARK  Name = 68488178
REMARK  9 active torsions:
REMARK  status: ('A' for Active; 'I' for Inactive)
REMARK    1  A    between atoms: N_1  and  C_10
REMARK    2  A    between atoms: N_2  and  C_29
REMARK    3  A    between atoms: C_10  and  C_11
REMARK    4  A    between atoms: C_16  and  O_17
REMARK    5  A    between atoms: O_17  and  C_18
REMARK    6  A    between atoms: C_23  and  C_26
REMARK    7  A    between atoms: C_29  and  C_30
REMARK    8  A    between atoms: C_35  and  C_37
REMARK    9  A    between atoms: C_37  and  O_38
REMARK                            x       y       z     vdW  Elec       q    Type
REMARK                         _______ _______ _______ _____ _____    ______ ____
ROOT
ATOM      1  N   UNL     1      33.444 -14.886 -22.704  0.00  0.00    +0.388 N 
ATOM      2  N   UNL     1      31.964 -13.130 -21.099  0.00  0.00    +0.388 N 
ATOM      3  C   UNL     1      33.704 -14.721 -21.253  0.00  0.00    -0.081 C 
ATOM      4  C   UNL     1      33.154 -12.695 -21.870  0.00  0.00    -0.081 C 
ATOM      5  C   UNL     1      34.321 -13.339 -21.142  0.00  0.00    -0.046 C 
ATOM      6  C   UNL     1      33.145 -13.511 -23.176  0.00  0.00    -0.098 C 
ATOM      7  C   UNL     1      32.333 -14.477 -20.595  0.00  0.00    -0.098 C 
ATOM      8  H   UNL     1      32.677 -15.535 -22.883  0.00  0.00    -0.079 HD
ATOM      9  H   UNL     1      31.121 -13.147 -21.675  0.00  0.00    -0.079 HD
ENDROOT
BRANCH   1  10
ATOM     10  C   UNL     1      34.574 -15.476 -23.413  0.00  0.00    -0.050 C 
BRANCH  10  11
ATOM     11  C   UNL     1      34.971 -16.805 -22.828  0.00  0.00    -0.043 C 
ATOM     12  C   UNL     1      35.371 -16.888 -21.494  0.00  0.00    -0.003 C 
ATOM     13  C   UNL     1      34.940 -17.953 -23.620  0.00  0.00    -0.003 C 
ATOM     14  C   UNL     1      35.739 -18.119 -20.951  0.00  0.00    +0.037 C 
ATOM     15  C   UNL     1      35.308 -19.184 -23.078  0.00  0.00    +0.037 C 
ATOM     16  C   UNL     1      35.708 -19.267 -21.743  0.00  0.00    +0.145 C 
BRANCH  16  17
ATOM     17  O   UNL     1      36.068 -20.469 -21.215  0.00  0.00    -0.453 OA
BRANCH  17  18
ATOM     18  C   UNL     1      35.270 -20.996 -20.213  0.00  0.00    +0.145 C 
ATOM     19  C   UNL     1      35.841 -21.765 -19.199  0.00  0.00    +0.038 C 
ATOM     20  C   UNL     1      33.895 -20.760 -20.219  0.00  0.00    +0.038 C 
ATOM     21  C   UNL     1      35.038 -22.300 -18.193  0.00  0.00    +0.008 C 
ATOM     22  C   UNL     1      33.092 -21.294 -19.212  0.00  0.00    +0.008 C 
ATOM     23  C   UNL     1      33.663 -22.064 -18.197  0.00  0.00    +0.054 C 
BRANCH  23  26
ATOM     24  O   UNL     1      31.498 -22.379 -17.292  0.00  0.00    -0.431 OA
ATOM     25  N   UNL     1      33.175 -23.315 -16.098  0.00  0.00    -0.206 NA
ATOM     26  C   UNL     1      32.832 -22.616 -17.156  0.00  0.00    +0.230 C 
ATOM     27  C   UNL     1      30.953 -22.992 -16.205  0.00  0.00    +0.202 C 
ATOM     28  C   UNL     1      31.974 -23.559 -15.484  0.00  0.00    +0.143 C 
ENDBRANCH  23  26
ENDBRANCH  17  18
ENDBRANCH  16  17
ENDBRANCH  10  11
ENDBRANCH   1  10
BRANCH   2  29
ATOM     29  C   UNL     1      31.629 -12.212 -20.016  0.00  0.00    -0.050 C 
BRANCH  29  30
ATOM     30  C   UNL     1      31.724 -10.774 -20.451  0.00  0.00    -0.043 C 
ATOM     31  C   UNL     1      31.387 -10.417 -21.757  0.00  0.00    -0.006 C 
ATOM     32  C   UNL     1      32.151  -9.799 -19.549  0.00  0.00    -0.006 C 
ATOM     33  C   UNL     1      31.476  -9.086 -22.160  0.00  0.00    +0.006 C 
ATOM     34  C   UNL     1      32.240  -8.467 -19.953  0.00  0.00    +0.006 C 
ATOM     35  C   UNL     1      31.901  -8.109 -21.259  0.00  0.00    +0.075 C 
BRANCH  35  37
ATOM     36  O   UNL     1      31.900  -6.317 -22.843  0.00  0.00    -0.245 OA
ATOM     37  C   UNL     1      31.993  -6.721 -21.679  0.00  0.00    +0.338 C 
BRANCH  37  38
ATOM     38  O   UNL     1      32.199  -5.873 -20.634  0.00  0.00    -0.477 OA
ATOM     39  H   UNL     1      33.050  -5.804 -20.247  0.00  0.00    +0.295 HD
ENDBRANCH  37  38
ENDBRANCH  35  37
ENDBRANCH  29  30
ENDBRANCH   2  29
TORSDOF 9
ENDMDL
MODEL 3
REMARK VINA RESULT:     -11.8      4.626      8.358
REMARK  Name = 68488178
REMARK  9 active torsions:
REMARK  status: ('A' for Active; 'I' for Inactive)
REMARK    1  A    between atoms: N_1  and  C_10
REMARK    2  A    between atoms: N_2  and  C_29
REMARK    3  A    between atoms: C_10  and  C_11
REMARK    4  A    between atoms: C_16  and  O_17
REMARK    5  A    between atoms: O_17  and  C_18
REMARK    6  A    between atoms: C_23  and  C_26
REMARK    7  A    between atoms: C_29  and  C_30
REMARK    8  A    between atoms: C_35  and  C_37
REMARK    9  A    between atoms: C_37  and  O_38
REMARK                            x       y       z     vdW  Elec       q    Type
REMARK                         _______ _______ _______ _____ _____    ______ ____
ROOT
ATOM      1  N   UNL     1      34.485 -17.050 -22.050  0.00  0.00    +0.388 N 
ATOM      2  N   UNL     1      35.287 -19.459 -20.864  0.00  0.00    +0.388 N 
ATOM      3  C   UNL     1      35.064 -18.170 -22.831  0.00  0.00    -0.081 C 
ATOM      4  C   UNL     1      36.179 -18.277 -20.953  0.00  0.00    -0.081 C 
ATOM      5  C   UNL     1      36.527 -18.186 -22.428  0.00  0.00    -0.046 C 
ATOM      6  C   UNL     1      35.276 -17.040 -20.793  0.00  0.00    -0.098 C 
ATOM      7  C   UNL     1      34.567 -19.464 -22.163  0.00  0.00    -0.098 C 
ATOM      8  H   UNL     1      33.487 -17.178 -21.881  0.00  0.00    -0.079 HD
ATOM      9  H   UNL     1      34.652 -19.399 -20.067  0.00  0.00    -0.079 HD
ENDROOT
BRANCH   1  10
ATOM     10  C   UNL     1      34.560 -15.776 -22.755  0.00  0.00    -0.050 C 
BRANCH  10  11
ATOM     11  C   UNL     1      33.744 -14.709 -22.075  0.00  0.00    -0.043 C 
ATOM     12  C   UNL     1      33.637 -13.442 -22.648  0.00  0.00    -0.003 C 
ATOM     13  C   UNL     1      33.095 -14.988 -20.872  0.00  0.00    -0.003 C 
ATOM     14  C   UNL     1      32.881 -12.453 -22.018  0.00  0.00    +0.037 C 
ATOM     15  C   UNL     1      32.339 -13.999 -20.242  0.00  0.00    +0.037 C 
ATOM     16  C   UNL     1      32.232 -12.732 -20.815  0.00  0.00    +0.145 C 
BRANCH  16  17
ATOM     17  O   UNL     1      31.495 -11.767 -20.200  0.00  0.00    -0.453 OA
BRANCH  17  18
ATOM     18  C   UNL     1      31.570 -10.479 -20.705  0.00  0.00    +0.145 C 
ATOM     19  C   UNL     1      31.227 -10.232 -22.035  0.00  0.00    +0.038 C 
ATOM     20  C   UNL     1      31.988  -9.431 -19.886  0.00  0.00    +0.038 C 
ATOM     21  C   UNL     1      31.306  -8.936 -22.545  0.00  0.00    +0.008 C 
ATOM     22  C   UNL     1      32.066  -8.136 -20.396  0.00  0.00    +0.008 C 
ATOM     23  C   UNL     1      31.724  -7.887 -21.726  0.00  0.00    +0.054 C 
BRANCH  23  26
ATOM     24  O   UNL     1      30.803  -5.711 -21.867  0.00  0.00    -0.431 OA
ATOM     25  N   UNL     1      32.705  -6.018 -23.051  0.00  0.00    -0.206 NA
ATOM     26  C   UNL     1      31.805  -6.547 -22.254  0.00  0.00    +0.230 C 
ATOM     27  C   UNL     1      31.109  -4.539 -22.490  0.00  0.00    +0.202 C 
ATOM     28  C   UNL     1      32.264  -4.730 -23.206  0.00  0.00    +0.143 C 
ENDBRANCH  23  26
ENDBRANCH  17  18
ENDBRANCH  16  17
ENDBRANCH  10  11
ENDBRANCH   1  10
BRANCH   2  29
ATOM     29  C   UNL     1      36.018 -20.700 -20.637  0.00  0.00    -0.050 C 
BRANCH  29  30
ATOM     30  C   UNL     1      35.548 -21.408 -19.395  0.00  0.00    -0.043 C 
ATOM     31  C   UNL     1      34.216 -21.808 -19.282  0.00  0.00    -0.006 C 
ATOM     32  C   UNL     1      36.443 -21.665 -18.356  0.00  0.00    -0.006 C 
ATOM     33  C   UNL     1      33.780 -22.463 -18.131  0.00  0.00    +0.006 C 
ATOM     34  C   UNL     1      36.007 -22.320 -17.205  0.00  0.00    +0.006 C 
ATOM     35  C   UNL     1      34.675 -22.721 -17.093  0.00  0.00    +0.075 C 
BRANCH  35  37
ATOM     36  O   UNL     1      33.213 -23.114 -15.241  0.00  0.00    -0.245 OA
ATOM     37  C   UNL     1      34.221 -23.405 -15.894  0.00  0.00    +0.338 C 
BRANCH  37  38
ATOM     38  O   UNL     1      35.037 -24.436 -15.542  0.00  0.00    -0.477 OA
ATOM     39  H   UNL     1      35.908 -24.483 -15.885  0.00  0.00    +0.295 HD
ENDBRANCH  37  38
ENDBRANCH  35  37
ENDBRANCH  29  30
ENDBRANCH   2  29
TORSDOF 9
ENDMDL
MODEL 4
REMARK VINA RESULT:     -11.8      3.032     12.391
REMARK  Name = 68488178
REMARK  9 active torsions:
REMARK  status: ('A' for Active; 'I' for Inactive)
REMARK    1  A    between atoms: N_1  and  C_10
REMARK    2  A    between atoms: N_2  and  C_29
REMARK    3  A    between atoms: C_10  and  C_11
REMARK    4  A    between atoms: C_16  and  O_17
REMARK    5  A    between atoms: O_17  and  C_18
REMARK    6  A    between atoms: C_23  and  C_26
REMARK    7  A    between atoms: C_29  and  C_30
REMARK    8  A    between atoms: C_35  and  C_37
REMARK    9  A    between atoms: C_37  and  O_38
REMARK                            x       y       z     vdW  Elec       q    Type
REMARK                         _______ _______ _______ _____ _____    ______ ____
ROOT
ATOM      1  N   UNL     1      34.946 -19.133 -21.342  0.00  0.00    +0.388 N 
ATOM      2  N   UNL     1      34.506 -16.673 -22.612  0.00  0.00    +0.388 N 
ATOM      3  C   UNL     1      35.849 -17.970 -21.163  0.00  0.00    -0.081 C 
ATOM      4  C   UNL     1      35.247 -17.784 -23.258  0.00  0.00    -0.081 C 
ATOM      5  C   UNL     1      36.561 -17.844 -22.498  0.00  0.00    -0.046 C 
ATOM      6  C   UNL     1      34.579 -19.086 -22.780  0.00  0.00    -0.098 C 
ATOM      7  C   UNL     1      34.953 -16.718 -21.196  0.00  0.00    -0.098 C 
ATOM      8  H   UNL     1      34.132 -19.081 -20.730  0.00  0.00    -0.079 HD
ATOM      9  H   UNL     1      33.496 -16.783 -22.705  0.00  0.00    -0.079 HD
ENDROOT
BRANCH   1  10
ATOM     10  C   UNL     1      35.578 -20.395 -20.977  0.00  0.00    -0.050 C 
BRANCH  10  11
ATOM     11  C   UNL     1      34.802 -21.124 -19.914  0.00  0.00    -0.043 C 
ATOM     12  C   UNL     1      35.450 -22.035 -19.078  0.00  0.00    -0.003 C 
ATOM     13  C   UNL     1      33.435 -20.890 -19.763  0.00  0.00    -0.003 C 
ATOM     14  C   UNL     1      34.731 -22.711 -18.093  0.00  0.00    +0.037 C 
ATOM     15  C   UNL     1      32.716 -21.566 -18.778  0.00  0.00    +0.037 C 
ATOM     16  C   UNL     1      33.364 -22.476 -17.942  0.00  0.00    +0.145 C 
BRANCH  16  17
ATOM     17  O   UNL     1      32.662 -23.137 -16.981  0.00  0.00    -0.453 OA
BRANCH  17  18
ATOM     18  C   UNL     1      33.291 -23.367 -15.768  0.00  0.00    +0.145 C 
ATOM     19  C   UNL     1      32.544 -23.772 -14.662  0.00  0.00    +0.038 C 
ATOM     20  C   UNL     1      34.670 -23.194 -15.654  0.00  0.00    +0.038 C 
ATOM     21  C   UNL     1      33.177 -24.001 -13.441  0.00  0.00    +0.008 C 
ATOM     22  C   UNL     1      35.302 -23.423 -14.432  0.00  0.00    +0.008 C 
ATOM     23  C   UNL     1      34.556 -23.827 -13.325  0.00  0.00    +0.054 C 
BRANCH  23  26
ATOM     24  O   UNL     1      36.309 -23.296 -11.825  0.00  0.00    -0.431 OA
ATOM     25  N   UNL     1      34.899 -24.912 -11.107  0.00  0.00    -0.206 NA
ATOM     26  C   UNL     1      35.210 -24.064 -12.061  0.00  0.00    +0.230 C 
ATOM     27  C   UNL     1      36.728 -23.708 -10.596  0.00  0.00    +0.202 C 
ATOM     28  C   UNL     1      35.869 -24.688 -10.165  0.00  0.00    +0.143 C 
ENDBRANCH  23  26
ENDBRANCH  17  18
ENDBRANCH  16  17
ENDBRANCH  10  11
ENDBRANCH   1  10
BRANCH   2  29
ATOM     29  C   UNL     1      34.777 -15.382 -23.232  0.00  0.00    -0.050 C 
BRANCH  29  30
ATOM     30  C   UNL     1      33.910 -14.293 -22.660  0.00  0.00    -0.043 C 
ATOM     31  C   UNL     1      33.869 -13.040 -23.272  0.00  0.00    -0.006 C 
ATOM     32  C   UNL     1      33.148 -14.535 -21.516  0.00  0.00    -0.006 C 
ATOM     33  C   UNL     1      33.066 -12.031 -22.741  0.00  0.00    +0.006 C 
ATOM     34  C   UNL     1      32.346 -13.526 -20.986  0.00  0.00    +0.006 C 
ATOM     35  C   UNL     1      32.303 -12.273 -21.598  0.00  0.00    +0.075 C 
BRANCH  35  37
ATOM     36  O   UNL     1      31.873 -10.148 -20.588  0.00  0.00    -0.245 OA
ATOM     37  C   UNL     1      31.466 -11.221 -21.046  0.00  0.00    +0.338 C 
BRANCH  37  38
ATOM     38  O   UNL     1      30.143 -11.537 -21.081  0.00  0.00    -0.477 OA
ATOM     39  H   UNL     1      29.873 -12.403 -21.316  0.00  0.00    +0.295 HD
ENDBRANCH  37  38
ENDBRANCH  35  37
ENDBRANCH  29  30
ENDBRANCH   2  29
TORSDOF 9
ENDMDL
MODEL 5
REMARK VINA RESULT:     -11.6      3.749      7.022
REMARK  Name = 68488178
REMARK  9 active torsions:
REMARK  status: ('A' for Active; 'I' for Inactive)
REMARK    1  A    between atoms: N_1  and  C_10
REMARK    2  A    between atoms: N_2  and  C_29
REMARK    3  A    between atoms: C_10  and  C_11
REMARK    4  A    between atoms: C_16  and  O_17
REMARK    5  A    between atoms: O_17  and  C_18
REMARK    6  A    between atoms: C_23  and  C_26
REMARK    7  A    between atoms: C_29  and  C_30
REMARK    8  A    between atoms: C_35  and  C_37
REMARK    9  A    between atoms: C_37  and  O_38
REMARK                            x       y       z     vdW  Elec       q    Type
REMARK                         _______ _______ _______ _____ _____    ______ ____
ROOT
ATOM      1  N   UNL     1      33.410 -23.906 -14.818  0.00  0.00    +0.388 N 
ATOM      2  N   UNL     1      30.714 -24.670 -14.880  0.00  0.00    +0.388 N 
ATOM      3  C   UNL     1      32.547 -23.886 -13.611  0.00  0.00    -0.081 C 
ATOM      4  C   UNL     1      31.161 -23.290 -15.195  0.00  0.00    -0.081 C 
ATOM      5  C   UNL     1      31.597 -22.728 -13.854  0.00  0.00    -0.046 C 
ATOM      6  C   UNL     1      32.520 -23.427 -15.905  0.00  0.00    -0.098 C 
ATOM      7  C   UNL     1      31.585 -25.080 -13.750  0.00  0.00    -0.098 C 
ATOM      8  H   UNL     1      33.786 -24.836 -15.003  0.00  0.00    -0.079 HD
ATOM      9  H   UNL     1      30.801 -25.292 -15.685  0.00  0.00    -0.079 HD
ENDROOT
BRANCH   1  10
ATOM     10  C   UNL     1      34.597 -23.072 -14.672  0.00  0.00    -0.050 C 
BRANCH  10  11
ATOM     11  C   UNL     1      35.175 -22.681 -16.006  0.00  0.00    -0.043 C 
ATOM     12  C   UNL     1      34.396 -22.780 -17.160  0.00  0.00    -0.003 C 
ATOM     13  C   UNL     1      36.489 -22.220 -16.089  0.00  0.00    -0.003 C 
ATOM     14  C   UNL     1      34.931 -22.419 -18.396  0.00  0.00    +0.037 C 
ATOM     15  C   UNL     1      37.024 -21.858 -17.326  0.00  0.00    +0.037 C 
ATOM     16  C   UNL     1      36.245 -21.958 -18.479  0.00  0.00    +0.145 C 
BRANCH  16  17
ATOM     17  O   UNL     1      36.768 -21.606 -19.685  0.00  0.00    -0.453 OA
BRANCH  17  18
ATOM     18  C   UNL     1      36.317 -20.431 -20.265  0.00  0.00    +0.145 C 
ATOM     19  C   UNL     1      37.226 -19.436 -20.622  0.00  0.00    +0.038 C 
ATOM     20  C   UNL     1      34.953 -20.244 -20.490  0.00  0.00    +0.038 C 
ATOM     21  C   UNL     1      36.771 -18.252 -21.202  0.00  0.00    +0.008 C 
ATOM     22  C   UNL     1      34.498 -19.060 -21.070  0.00  0.00    +0.008 C 
ATOM     23  C   UNL     1      35.408 -18.063 -21.427  0.00  0.00    +0.054 C 
BRANCH  23  26
ATOM     24  O   UNL     1      34.799 -16.873 -23.380  0.00  0.00    -0.431 OA
ATOM     25  N   UNL     1      34.624 -15.698 -21.456  0.00  0.00    -0.206 NA
ATOM     26  C   UNL     1      34.937 -16.839 -22.027  0.00  0.00    +0.230 C 
ATOM     27  C   UNL     1      34.353 -15.623 -23.687  0.00  0.00    +0.202 C 
ATOM     28  C   UNL     1      34.248 -14.914 -22.516  0.00  0.00    +0.143 C 
ENDBRANCH  23  26
ENDBRANCH  17  18
ENDBRANCH  16  17
ENDBRANCH  10  11
ENDBRANCH   1  10
BRANCH   2  29
ATOM     29  C   UNL     1      29.299 -24.737 -14.536  0.00  0.00    -0.050 C 
BRANCH  29  30
ATOM     30  C   UNL     1      28.462 -23.863 -15.430  0.00  0.00    -0.043 C 
ATOM     31  C   UNL     1      27.779 -22.770 -14.895  0.00  0.00    -0.006 C 
ATOM     32  C   UNL     1      28.368 -24.145 -16.793  0.00  0.00    -0.006 C 
ATOM     33  C   UNL     1      27.003 -21.961 -15.724  0.00  0.00    +0.006 C 
ATOM     34  C   UNL     1      27.592 -23.336 -17.621  0.00  0.00    +0.006 C 
ATOM     35  C   UNL     1      26.910 -22.242 -17.087  0.00  0.00    +0.075 C 
BRANCH  35  37
ATOM     36  O   UNL     1      25.619 -21.735 -19.036  0.00  0.00    -0.245 OA
ATOM     37  C   UNL     1      26.101 -21.397 -17.951  0.00  0.00    +0.338 C 
BRANCH  37  38
ATOM     38  O   UNL     1      25.915 -20.152 -17.434  0.00  0.00    -0.477 OA
ATOM     39  H   UNL     1      26.652 -19.644 -17.156  0.00  0.00    +0.295 HD
ENDBRANCH  37  38
ENDBRANCH  35  37
ENDBRANCH  29  30
ENDBRANCH   2  29
TORSDOF 9
ENDMDL
MODEL 6
REMARK VINA RESULT:     -11.2      3.937     13.057
REMARK  Name = 68488178
REMARK  9 active torsions:
REMARK  status: ('A' for Active; 'I' for Inactive)
REMARK    1  A    between atoms: N_1  and  C_10
REMARK    2  A    between atoms: N_2  and  C_29
REMARK    3  A    between atoms: C_10  and  C_11
REMARK    4  A    between atoms: C_16  and  O_17
REMARK    5  A    between atoms: O_17  and  C_18
REMARK    6  A    between atoms: C_23  and  C_26
REMARK    7  A    between atoms: C_29  and  C_30
REMARK    8  A    between atoms: C_35  and  C_37
REMARK    9  A    between atoms: C_37  and  O_38
REMARK                            x       y       z     vdW  Elec       q    Type
REMARK                         _______ _______ _______ _____ _____    ______ ____
ROOT
ATOM      1  N   UNL     1      33.869 -14.877 -22.416  0.00  0.00    +0.388 N 
ATOM      2  N   UNL     1      32.239 -13.020 -21.094  0.00  0.00    +0.388 N 
ATOM      3  C   UNL     1      33.719 -14.856 -20.941  0.00  0.00    -0.081 C 
ATOM      4  C   UNL     1      33.649 -12.731 -21.456  0.00  0.00    -0.081 C 
ATOM      5  C   UNL     1      34.459 -13.601 -20.512  0.00  0.00    -0.046 C 
ATOM      6  C   UNL     1      33.906 -13.443 -22.797  0.00  0.00    -0.098 C 
ATOM      7  C   UNL     1      32.263 -14.440 -20.661  0.00  0.00    -0.098 C 
ATOM      8  H   UNL     1      33.105 -15.381 -22.870  0.00  0.00    -0.079 HD
ATOM      9  H   UNL     1      31.604 -12.862 -21.877  0.00  0.00    -0.079 HD
ENDROOT
BRANCH   1  10
ATOM     10  C   UNL     1      35.064 -15.591 -22.849  0.00  0.00    -0.050 C 
BRANCH  10  11
ATOM     11  C   UNL     1      35.014 -17.048 -22.474  0.00  0.00    -0.043 C 
ATOM     12  C   UNL     1      35.085 -17.426 -21.133  0.00  0.00    -0.003 C 
ATOM     13  C   UNL     1      34.896 -18.021 -23.467  0.00  0.00    -0.003 C 
ATOM     14  C   UNL     1      35.039 -18.776 -20.785  0.00  0.00    +0.037 C 
ATOM     15  C   UNL     1      34.850 -19.371 -23.119  0.00  0.00    +0.037 C 
ATOM     16  C   UNL     1      34.921 -19.748 -21.778  0.00  0.00    +0.145 C 
BRANCH  16  17
ATOM     17  O   UNL     1      34.877 -21.066 -21.439  0.00  0.00    -0.453 OA
BRANCH  17  18
ATOM     18  C   UNL     1      35.226 -21.409 -20.143  0.00  0.00    +0.145 C 
ATOM     19  C   UNL     1      36.517 -21.156 -19.679  0.00  0.00    +0.038 C 
ATOM     20  C   UNL     1      34.288 -22.009 -19.303  0.00  0.00    +0.038 C 
ATOM     21  C   UNL     1      36.870 -21.504 -18.376  0.00  0.00    +0.008 C 
ATOM     22  C   UNL     1      34.641 -22.358 -18.000  0.00  0.00    +0.008 C 
ATOM     23  C   UNL     1      35.933 -22.105 -17.535  0.00  0.00    +0.054 C 
BRANCH  23  26
ATOM     24  O   UNL     1      35.254 -22.660 -15.337  0.00  0.00    -0.431 OA
ATOM     25  N   UNL     1      37.491 -22.634 -15.664  0.00  0.00    -0.206 NA
ATOM     26  C   UNL     1      36.298 -22.466 -16.188  0.00  0.00    +0.230 C 
ATOM     27  C   UNL     1      35.858 -22.982 -14.159  0.00  0.00    +0.202 C 
ATOM     28  C   UNL     1      37.215 -22.966 -14.363  0.00  0.00    +0.143 C 
ENDBRANCH  23  26
ENDBRANCH  17  18
ENDBRANCH  16  17
ENDBRANCH  10  11
ENDBRANCH   1  10
BRANCH   2  29
ATOM     29  C   UNL     1      31.735 -12.136 -20.050  0.00  0.00    -0.050 C 
BRANCH  29  30
ATOM     30  C   UNL     1      31.796 -10.689 -20.462  0.00  0.00    -0.043 C 
ATOM     31  C   UNL     1      32.155  -9.714 -19.532  0.00  0.00    -0.006 C 
ATOM     32  C   UNL     1      31.493 -10.324 -21.775  0.00  0.00    -0.006 C 
ATOM     33  C   UNL     1      32.211  -8.374 -19.914  0.00  0.00    +0.006 C 
ATOM     34  C   UNL     1      31.549  -8.984 -22.156  0.00  0.00    +0.006 C 
ATOM     35  C   UNL     1      31.909  -8.008 -21.226  0.00  0.00    +0.075 C 
BRANCH  35  37
ATOM     36  O   UNL     1      31.842  -6.189 -22.777  0.00  0.00    -0.245 OA
ATOM     37  C   UNL     1      31.968  -6.612 -21.623  0.00  0.00    +0.338 C 
BRANCH  37  38
ATOM     38  O   UNL     1      32.183  -5.779 -20.568  0.00  0.00    -0.477 OA
ATOM     39  H   UNL     1      31.456  -5.380 -20.130  0.00  0.00    +0.295 HD
ENDBRANCH  37  38
ENDBRANCH  35  37
ENDBRANCH  29  30
ENDBRANCH   2  29
TORSDOF 9
ENDMDL
MODEL 7
REMARK VINA RESULT:     -11.2      5.814     16.221
REMARK  Name = 68488178
REMARK  9 active torsions:
REMARK  status: ('A' for Active; 'I' for Inactive)
REMARK    1  A    between atoms: N_1  and  C_10
REMARK    2  A    between atoms: N_2  and  C_29
REMARK    3  A    between atoms: C_10  and  C_11
REMARK    4  A    between atoms: C_16  and  O_17
REMARK    5  A    between atoms: O_17  and  C_18
REMARK    6  A    between atoms: C_23  and  C_26
REMARK    7  A    between atoms: C_29  and  C_30
REMARK    8  A    between atoms: C_35  and  C_37
REMARK    9  A    between atoms: C_37  and  O_38
REMARK                            x       y       z     vdW  Elec       q    Type
REMARK                         _______ _______ _______ _____ _____    ______ ____
ROOT
ATOM      1  N   UNL     1      32.174  -9.666 -22.659  0.00  0.00    +0.388 N 
ATOM      2  N   UNL     1      32.559  -7.061 -23.618  0.00  0.00    +0.388 N 
ATOM      3  C   UNL     1      31.398  -8.507 -22.154  0.00  0.00    -0.081 C 
ATOM      4  C   UNL     1      33.371  -7.635 -22.517  0.00  0.00    -0.081 C 
ATOM      5  C   UNL     1      32.407  -7.710 -21.347  0.00  0.00    -0.046 C 
ATOM      6  C   UNL     1      33.546  -9.130 -22.842  0.00  0.00    -0.098 C 
ATOM      7  C   UNL     1      31.189  -7.570 -23.357  0.00  0.00    -0.098 C 
ATOM      8  H   UNL     1      31.782 -10.039 -23.525  0.00  0.00    -0.079 HD
ATOM      9  H   UNL     1      32.909  -7.339 -24.536  0.00  0.00    -0.079 HD
ENDROOT
BRANCH   1  10
ATOM     10  C   UNL     1      32.146 -10.802 -21.745  0.00  0.00    -0.050 C 
BRANCH  10  11
ATOM     11  C   UNL     1      32.793 -12.021 -22.346  0.00  0.00    -0.043 C 
ATOM     12  C   UNL     1      33.624 -11.893 -23.459  0.00  0.00    -0.003 C 
ATOM     13  C   UNL     1      32.561 -13.279 -21.789  0.00  0.00    -0.003 C 
ATOM     14  C   UNL     1      34.223 -13.022 -24.016  0.00  0.00    +0.037 C 
ATOM     15  C   UNL     1      33.161 -14.409 -22.346  0.00  0.00    +0.037 C 
ATOM     16  C   UNL     1      33.992 -14.280 -23.460  0.00  0.00    +0.145 C 
BRANCH  16  17
ATOM     17  O   UNL     1      34.576 -15.383 -24.003  0.00  0.00    -0.453 OA
BRANCH  17  18
ATOM     18  C   UNL     1      34.805 -16.467 -23.172  0.00  0.00    +0.145 C 
ATOM     19  C   UNL     1      34.864 -17.754 -23.705  0.00  0.00    +0.038 C 
ATOM     20  C   UNL     1      34.976 -16.270 -21.801  0.00  0.00    +0.038 C 
ATOM     21  C   UNL     1      35.092 -18.845 -22.867  0.00  0.00    +0.008 C 
ATOM     22  C   UNL     1      35.204 -17.361 -20.964  0.00  0.00    +0.008 C 
ATOM     23  C   UNL     1      35.263 -18.650 -21.496  0.00  0.00    +0.054 C 
BRANCH  23  26
ATOM     24  O   UNL     1      34.387 -20.488 -20.288  0.00  0.00    -0.431 OA
ATOM     25  N   UNL     1      36.627 -20.220 -20.124  0.00  0.00    -0.206 NA
ATOM     26  C   UNL     1      35.498 -19.779 -20.630  0.00  0.00    +0.230 C 
ATOM     27  C   UNL     1      34.874 -21.474 -19.484  0.00  0.00    +0.202 C 
ATOM     28  C   UNL     1      36.233 -21.308 -19.388  0.00  0.00    +0.143 C 
ENDBRANCH  23  26
ENDBRANCH  17  18
ENDBRANCH  16  17
ENDBRANCH  10  11
ENDBRANCH   1  10
BRANCH   2  29
ATOM     29  C   UNL     1      32.606  -5.604 -23.651  0.00  0.00    -0.050 C 
BRANCH  29  30
ATOM     30  C   UNL     1      33.375  -5.095 -24.841  0.00  0.00    -0.043 C 
ATOM     31  C   UNL     1      32.822  -4.108 -25.658  0.00  0.00    -0.006 C 
ATOM     32  C   UNL     1      34.639  -5.610 -25.127  0.00  0.00    -0.006 C 
ATOM     33  C   UNL     1      33.534  -3.637 -26.760  0.00  0.00    +0.006 C 
ATOM     34  C   UNL     1      35.350  -5.139 -26.230  0.00  0.00    +0.006 C 
ATOM     35  C   UNL     1      34.799  -4.151 -27.047  0.00  0.00    +0.075 C 
BRANCH  35  37
ATOM     36  O   UNL     1      35.624  -2.477 -28.542  0.00  0.00    -0.245 OA
ATOM     37  C   UNL     1      35.541  -3.660 -28.196  0.00  0.00    +0.338 C 
BRANCH  37  38
ATOM     38  O   UNL     1      36.160  -4.659 -28.881  0.00  0.00    -0.477 OA
ATOM     39  H   UNL     1      36.934  -4.477 -29.379  0.00  0.00    +0.295 HD
ENDBRANCH  37  38
ENDBRANCH  35  37
ENDBRANCH  29  30
ENDBRANCH   2  29
TORSDOF 9
ENDMDL
MODEL 8
REMARK VINA RESULT:     -11.1      3.512      6.339
REMARK  Name = 68488178
REMARK  9 active torsions:
REMARK  status: ('A' for Active; 'I' for Inactive)
REMARK    1  A    between atoms: N_1  and  C_10
REMARK    2  A    between atoms: N_2  and  C_29
REMARK    3  A    between atoms: C_10  and  C_11
REMARK    4  A    between atoms: C_16  and  O_17
REMARK    5  A    between atoms: O_17  and  C_18
REMARK    6  A    between atoms: C_23  and  C_26
REMARK    7  A    between atoms: C_29  and  C_30
REMARK    8  A    between atoms: C_35  and  C_37
REMARK    9  A    between atoms: C_37  and  O_38
REMARK                            x       y       z     vdW  Elec       q    Type
REMARK                         _______ _______ _______ _____ _____    ______ ____
ROOT
ATOM      1  N   UNL     1      35.713 -19.328 -20.332  0.00  0.00    +0.388 N 
ATOM      2  N   UNL     1      34.466 -21.453 -18.997  0.00  0.00    +0.388 N 
ATOM      3  C   UNL     1      34.697 -20.192 -20.981  0.00  0.00    -0.081 C 
ATOM      4  C   UNL     1      35.766 -21.602 -19.695  0.00  0.00    -0.081 C 
ATOM      5  C   UNL     1      35.406 -21.521 -21.168  0.00  0.00    -0.046 C 
ATOM      6  C   UNL     1      36.514 -20.269 -19.508  0.00  0.00    -0.098 C 
ATOM      7  C   UNL     1      33.680 -20.560 -19.886  0.00  0.00    -0.098 C 
ATOM      8  H   UNL     1      35.285 -18.589 -19.774  0.00  0.00    -0.079 HD
ATOM      9  H   UNL     1      34.579 -21.067 -18.058  0.00  0.00    -0.079 HD
ENDROOT
BRANCH   1  10
ATOM     10  C   UNL     1      36.536 -18.607 -21.296  0.00  0.00    -0.050 C 
BRANCH  10  11
ATOM     11  C   UNL     1      35.728 -17.616 -22.092  0.00  0.00    -0.043 C 
ATOM     12  C   UNL     1      35.186 -16.494 -21.463  0.00  0.00    -0.003 C 
ATOM     13  C   UNL     1      35.523 -17.819 -23.456  0.00  0.00    -0.003 C 
ATOM     14  C   UNL     1      34.438 -15.576 -22.200  0.00  0.00    +0.037 C 
ATOM     15  C   UNL     1      34.774 -16.901 -24.193  0.00  0.00    +0.037 C 
ATOM     16  C   UNL     1      34.232 -15.779 -23.565  0.00  0.00    +0.145 C 
BRANCH  16  17
ATOM     17  O   UNL     1      33.501 -14.884 -24.284  0.00  0.00    -0.453 OA
BRANCH  17  18
ATOM     18  C   UNL     1      33.348 -13.610 -23.760  0.00  0.00    +0.145 C 
ATOM     19  C   UNL     1      32.557 -13.413 -22.629  0.00  0.00    +0.038 C 
ATOM     20  C   UNL     1      33.983 -12.526 -24.366  0.00  0.00    +0.038 C 
ATOM     21  C   UNL     1      32.399 -12.131 -22.104  0.00  0.00    +0.008 C 
ATOM     22  C   UNL     1      33.826 -11.244 -23.841  0.00  0.00    +0.008 C 
ATOM     23  C   UNL     1      33.034 -11.045 -22.708  0.00  0.00    +0.054 C 
BRANCH  23  26
ATOM     24  O   UNL     1      32.021  -9.628 -21.106  0.00  0.00    -0.431 OA
ATOM     25  N   UNL     1      33.422  -8.589 -22.546  0.00  0.00    -0.206 NA
ATOM     26  C   UNL     1      32.871  -9.719 -22.166  0.00  0.00    +0.230 C 
ATOM     27  C   UNL     1      32.045  -8.302 -20.792  0.00  0.00    +0.202 C 
ATOM     28  C   UNL     1      32.897  -7.677 -21.668  0.00  0.00    +0.143 C 
ENDBRANCH  23  26
ENDBRANCH  17  18
ENDBRANCH  16  17
ENDBRANCH  10  11
ENDBRANCH   1  10
BRANCH   2  29
ATOM     29  C   UNL     1      33.799 -22.730 -18.772  0.00  0.00    -0.050 C 
BRANCH  29  30
ATOM     30  C   UNL     1      33.483 -22.949 -17.317  0.00  0.00    -0.043 C 
ATOM     31  C   UNL     1      34.514 -23.189 -16.409  0.00  0.00    -0.006 C 
ATOM     32  C   UNL     1      32.159 -22.914 -16.877  0.00  0.00    -0.006 C 
ATOM     33  C   UNL     1      34.221 -23.393 -15.061  0.00  0.00    +0.006 C 
ATOM     34  C   UNL     1      31.867 -23.119 -15.529  0.00  0.00    +0.006 C 
ATOM     35  C   UNL     1      32.899 -23.357 -14.620  0.00  0.00    +0.075 C 
BRANCH  35  37
ATOM     36  O   UNL     1      31.466 -23.748 -12.745  0.00  0.00    -0.245 OA
ATOM     37  C   UNL     1      32.594 -23.569 -13.214  0.00  0.00    +0.338 C 
BRANCH  37  38
ATOM     38  O   UNL     1      33.708 -23.555 -12.433  0.00  0.00    -0.477 OA
ATOM     39  H   UNL     1      34.481 -23.113 -12.726  0.00  0.00    +0.295 HD
ENDBRANCH  37  38
ENDBRANCH  35  37
ENDBRANCH  29  30
ENDBRANCH   2  29
TORSDOF 9
ENDMDL
MODEL 9
REMARK VINA RESULT:     -11.0      3.993     11.300
REMARK  Name = 68488178
REMARK  9 active torsions:
REMARK  status: ('A' for Active; 'I' for Inactive)
REMARK    1  A    between atoms: N_1  and  C_10
REMARK    2  A    between atoms: N_2  and  C_29
REMARK    3  A    between atoms: C_10  and  C_11
REMARK    4  A    between atoms: C_16  and  O_17
REMARK    5  A    between atoms: O_17  and  C_18
REMARK    6  A    between atoms: C_23  and  C_26
REMARK    7  A    between atoms: C_29  and  C_30
REMARK    8  A    between atoms: C_35  and  C_37
REMARK    9  A    between atoms: C_37  and  O_38
REMARK                            x       y       z     vdW  Elec       q    Type
REMARK                         _______ _______ _______ _____ _____    ______ ____
ROOT
ATOM      1  N   UNL     1      36.088 -19.868 -20.147  0.00  0.00    +0.388 N 
ATOM      2  N   UNL     1      35.160 -17.691 -21.646  0.00  0.00    +0.388 N 
ATOM      3  C   UNL     1      36.942 -19.152 -21.125  0.00  0.00    -0.081 C 
ATOM      4  C   UNL     1      34.976 -19.097 -22.082  0.00  0.00    -0.081 C 
ATOM      5  C   UNL     1      36.372 -19.548 -22.475  0.00  0.00    -0.046 C 
ATOM      6  C   UNL     1      34.757 -19.922 -20.801  0.00  0.00    -0.098 C 
ATOM      7  C   UNL     1      36.524 -17.671 -21.060  0.00  0.00    -0.098 C 
ATOM      8  H   UNL     1      36.061 -19.393 -19.244  0.00  0.00    -0.079 HD
ATOM      9  H   UNL     1      34.445 -17.401 -20.978  0.00  0.00    -0.079 HD
ENDROOT
BRANCH   1  10
ATOM     10  C   UNL     1      36.596 -21.197 -19.826  0.00  0.00    -0.050 C 
BRANCH  10  11
ATOM     11  C   UNL     1      35.756 -21.882 -18.781  0.00  0.00    -0.043 C 
ATOM     12  C   UNL     1      36.185 -21.913 -17.453  0.00  0.00    -0.003 C 
ATOM     13  C   UNL     1      34.550 -22.484 -19.140  0.00  0.00    -0.003 C 
ATOM     14  C   UNL     1      35.407 -22.548 -16.485  0.00  0.00    +0.037 C 
ATOM     15  C   UNL     1      33.773 -23.119 -18.171  0.00  0.00    +0.037 C 
ATOM     16  C   UNL     1      34.201 -23.150 -16.843  0.00  0.00    +0.145 C 
BRANCH  16  17
ATOM     17  O   UNL     1      33.442 -23.770 -15.898  0.00  0.00    -0.453 OA
BRANCH  17  18
ATOM     18  C   UNL     1      32.095 -23.452 -15.844  0.00  0.00    +0.145 C 
ATOM     19  C   UNL     1      31.570 -22.492 -16.709  0.00  0.00    +0.038 C 
ATOM     20  C   UNL     1      31.264 -24.092 -14.924  0.00  0.00    +0.038 C 
ATOM     21  C   UNL     1      30.215 -22.170 -16.652  0.00  0.00    +0.008 C 
ATOM     22  C   UNL     1      29.909 -23.769 -14.867  0.00  0.00    +0.008 C 
ATOM     23  C   UNL     1      29.383 -22.808 -15.732  0.00  0.00    +0.054 C 
BRANCH  23  26
ATOM     24  O   UNL     1      27.448 -22.004 -16.834  0.00  0.00    -0.431 OA
ATOM     25  N   UNL     1      27.146 -22.559 -14.662  0.00  0.00    -0.206 NA
ATOM     26  C   UNL     1      27.981 -22.474 -15.673  0.00  0.00    +0.230 C 
ATOM     27  C   UNL     1      26.145 -21.769 -16.514  0.00  0.00    +0.202 C 
ATOM     28  C   UNL     1      25.966 -22.109 -15.196  0.00  0.00    +0.143 C 
ENDBRANCH  23  26
ENDBRANCH  17  18
ENDBRANCH  16  17
ENDBRANCH  10  11
ENDBRANCH   1  10
BRANCH   2  29
ATOM     29  C   UNL     1      35.021 -16.739 -22.742  0.00  0.00    -0.050 C 
BRANCH  29  30
ATOM     30  C   UNL     1      34.208 -15.538 -22.342  0.00  0.00    -0.043 C 
ATOM     31  C   UNL     1      33.864 -14.579 -23.295  0.00  0.00    -0.006 C 
ATOM     32  C   UNL     1      33.800 -15.381 -21.017  0.00  0.00    -0.006 C 
ATOM     33  C   UNL     1      33.111 -13.466 -22.924  0.00  0.00    +0.006 C 
ATOM     34  C   UNL     1      33.048 -14.267 -20.645  0.00  0.00    +0.006 C 
ATOM     35  C   UNL     1      32.702 -13.309 -21.599  0.00  0.00    +0.075 C 
BRANCH  35  37
ATOM     36  O   UNL     1      31.613 -11.209 -21.955  0.00  0.00    -0.245 OA
ATOM     37  C   UNL     1      31.918 -12.148 -21.213  0.00  0.00    +0.338 C 
BRANCH  37  38
ATOM     38  O   UNL     1      31.532 -12.192 -19.908  0.00  0.00    -0.477 OA
ATOM     39  H   UNL     1      30.632 -12.065 -19.680  0.00  0.00    +0.295 HD
ENDBRANCH  37  38
ENDBRANCH  35  37
ENDBRANCH  29  30
ENDBRANCH   2  29
TORSDOF 9
ENDMDL
