MODEL 1
REMARK VINA RESULT:     -11.9      0.000      0.000
REMARK  Name = 5288711
REMARK  4 active torsions:
REMARK  status: ('A' for Active; 'I' for Inactive)
REMARK    1  A    between atoms: C_1  and  S_7
REMARK    2  A    between atoms: C_2  and  N_17
REMARK    3  A    between atoms: S_7  and  N_11
REMARK    4  A    between atoms: N_17  and  C_25
REMARK                            x       y       z     vdW  Elec       q    Type
REMARK                         _______ _______ _______ _____ _____    ______ ____
ROOT
ATOM      1  C   UNL     1      35.153 -19.757 -20.874  0.00  0.00    +0.125 C 
ATOM      2  C   UNL     1      34.716 -21.909 -19.143  0.00  0.00    +0.048 C 
ATOM      3  C   UNL     1      36.236 -20.451 -20.336  0.00  0.00    +0.021 C 
ATOM      4  C   UNL     1      33.851 -20.137 -20.548  0.00  0.00    +0.021 C 
ATOM      5  C   UNL     1      36.019 -21.525 -19.473  0.00  0.00    +0.016 C 
ATOM      6  C   UNL     1      33.632 -21.211 -19.685  0.00  0.00    +0.016 C 
ENDROOT
BRANCH   1   7
ATOM      7  S   UNL     1      35.424 -18.412 -21.954  0.00  0.00    +0.075 S 
ATOM      8  O   UNL     1      36.824 -18.017 -21.855  0.00  0.00    -0.150 OA
ATOM      9  O   UNL     1      34.870 -18.770 -23.253  0.00  0.00    -0.150 OA
BRANCH   7  11
ATOM     10  S   UNL     1      34.444 -14.428 -21.044  0.00  0.00    -0.050 S 
ATOM     11  N   UNL     1      34.454 -17.197 -21.222  0.00  0.00    -0.194 N 
ATOM     12  N   UNL     1      34.371 -15.824 -23.218  0.00  0.00    -0.221 NA
ATOM     13  C   UNL     1      34.420 -15.891 -21.917  0.00  0.00    +0.179 C 
ATOM     14  C   UNL     1      34.383 -13.586 -22.537  0.00  0.00    +0.059 C 
ATOM     15  C   UNL     1      34.349 -14.491 -23.578  0.00  0.00    +0.108 C 
ATOM     16  H   UNL     1      33.950 -17.359 -20.392  0.00  0.00    +0.176 HD
ENDBRANCH   7  11
ENDBRANCH   1   7
BRANCH   2  17
ATOM     17  N   UNL     1      34.497 -22.990 -18.274  0.00  0.00    -0.311 N 
ATOM     18  H   UNL     1      35.229 -23.645 -18.215  0.00  0.00    +0.152 HD
BRANCH  17  25
ATOM     19  O   UNL     1      35.651 -22.770 -15.623  0.00  0.00    -0.270 OA
ATOM     20  N   UNL     1      33.998 -23.175 -13.984  0.00  0.00    -0.280 N 
ATOM     21  C   UNL     1      32.177 -23.569 -15.333  0.00  0.00    +0.019 C 
ATOM     22  C   UNL     1      33.337 -23.290 -16.172  0.00  0.00    +0.069 C 
ATOM     23  C   UNL     1      32.634 -23.487 -14.014  0.00  0.00    +0.051 C 
ATOM     24  C   UNL     1      34.515 -23.036 -15.276  0.00  0.00    +0.251 C 
ATOM     25  C   UNL     1      33.410 -23.251 -17.504  0.00  0.00    +0.066 C 
ATOM     26  C   UNL     1      30.856 -23.867 -15.604  0.00  0.00    +0.001 C 
ATOM     27  C   UNL     1      31.805 -23.695 -12.930  0.00  0.00    +0.015 C 
ATOM     28  C   UNL     1      29.997 -24.082 -14.520  0.00  0.00    +0.000 C 
ATOM     29  C   UNL     1      30.467 -23.996 -13.197  0.00  0.00    +0.001 C 
ATOM     30  H   UNL     1      34.526 -23.068 -13.161  0.00  0.00    +0.155 HD
ENDBRANCH  17  25
ENDBRANCH   2  17
TORSDOF 4
ENDMDL
MODEL 2
REMARK VINA RESULT:     -11.7      2.809      9.739
REMARK  Name = 5288711
REMARK  4 active torsions:
REMARK  status: ('A' for Active; 'I' for Inactive)
REMARK    1  A    between atoms: C_1  and  S_7
REMARK    2  A    between atoms: C_2  and  N_17
REMARK    3  A    between atoms: S_7  and  N_11
REMARK    4  A    between atoms: N_17  and  C_25
REMARK                            x       y       z     vdW  Elec       q    Type
REMARK                         _______ _______ _______ _____ _____    ______ ____
ROOT
ATOM      1  C   UNL     1      34.584 -21.477 -19.428  0.00  0.00    +0.125 C 
ATOM      2  C   UNL     1      35.735 -19.442 -20.961  0.00  0.00    +0.048 C 
ATOM      3  C   UNL     1      33.772 -20.604 -20.152  0.00  0.00    +0.021 C 
ATOM      4  C   UNL     1      35.970 -21.334 -19.469  0.00  0.00    +0.021 C 
ATOM      5  C   UNL     1      34.345 -19.589 -20.917  0.00  0.00    +0.016 C 
ATOM      6  C   UNL     1      36.546 -20.319 -20.234  0.00  0.00    +0.016 C 
ENDROOT
BRANCH   1   7
ATOM      7  S   UNL     1      33.866 -22.748 -18.470  0.00  0.00    +0.075 S 
ATOM      8  O   UNL     1      32.707 -22.202 -17.775  0.00  0.00    -0.150 OA
ATOM      9  O   UNL     1      33.704 -23.913 -19.330  0.00  0.00    -0.150 OA
BRANCH   7  11
ATOM     10  S   UNL     1      35.462 -22.778 -14.582  0.00  0.00    -0.050 S 
ATOM     11  N   UNL     1      35.111 -23.042 -17.321  0.00  0.00    -0.194 N 
ATOM     12  N   UNL     1      33.639 -24.177 -15.766  0.00  0.00    -0.221 NA
ATOM     13  C   UNL     1      34.661 -23.390 -15.956  0.00  0.00    +0.179 C 
ATOM     14  C   UNL     1      34.348 -23.637 -13.602  0.00  0.00    +0.059 C 
ATOM     15  C   UNL     1      33.457 -24.321 -14.404  0.00  0.00    +0.108 C 
ATOM     16  H   UNL     1      36.065 -22.983 -17.558  0.00  0.00    +0.176 HD
ENDBRANCH   7  11
ENDBRANCH   1   7
BRANCH   2  17
ATOM     17  N   UNL     1      36.312 -18.419 -21.731  0.00  0.00    -0.311 N 
ATOM     18  H   UNL     1      37.231 -18.165 -21.484  0.00  0.00    +0.152 HD
BRANCH  17  25
ATOM     19  O   UNL     1      34.992 -16.255 -20.325  0.00  0.00    -0.270 OA
ATOM     20  N   UNL     1      33.916 -14.824 -21.866  0.00  0.00    -0.280 N 
ATOM     21  C   UNL     1      34.452 -15.877 -23.840  0.00  0.00    +0.019 C 
ATOM     22  C   UNL     1      35.038 -16.622 -22.730  0.00  0.00    +0.069 C 
ATOM     23  C   UNL     1      33.783 -14.796 -23.259  0.00  0.00    +0.051 C 
ATOM     24  C   UNL     1      34.678 -15.922 -21.452  0.00  0.00    +0.251 C 
ATOM     25  C   UNL     1      35.773 -17.735 -22.772  0.00  0.00    +0.066 C 
ATOM     26  C   UNL     1      34.455 -16.052 -25.210  0.00  0.00    +0.001 C 
ATOM     27  C   UNL     1      33.099 -13.860 -24.010  0.00  0.00    +0.015 C 
ATOM     28  C   UNL     1      33.769 -15.115 -25.991  0.00  0.00    +0.000 C 
ATOM     29  C   UNL     1      33.098 -14.030 -25.396  0.00  0.00    +0.001 C 
ATOM     30  H   UNL     1      33.524 -14.159 -21.257  0.00  0.00    +0.155 HD
ENDBRANCH  17  25
ENDBRANCH   2  17
TORSDOF 4
ENDMDL
MODEL 3
REMARK VINA RESULT:     -11.7      2.712      9.848
REMARK  Name = 5288711
REMARK  4 active torsions:
REMARK  status: ('A' for Active; 'I' for Inactive)
REMARK    1  A    between atoms: C_1  and  S_7
REMARK    2  A    between atoms: C_2  and  N_17
REMARK    3  A    between atoms: S_7  and  N_11
REMARK    4  A    between atoms: N_17  and  C_25
REMARK                            x       y       z     vdW  Elec       q    Type
REMARK                         _______ _______ _______ _____ _____    ______ ____
ROOT
ATOM      1  C   UNL     1      34.252 -21.910 -18.811  0.00  0.00    +0.125 C 
ATOM      2  C   UNL     1      35.211 -20.021 -20.636  0.00  0.00    +0.048 C 
ATOM      3  C   UNL     1      33.357 -21.128 -19.543  0.00  0.00    +0.021 C 
ATOM      4  C   UNL     1      35.626 -21.749 -18.991  0.00  0.00    +0.021 C 
ATOM      5  C   UNL     1      33.835 -20.187 -20.453  0.00  0.00    +0.016 C 
ATOM      6  C   UNL     1      36.105 -20.807 -19.902  0.00  0.00    +0.016 C 
ENDROOT
BRANCH   1   7
ATOM      7  S   UNL     1      33.654 -23.089 -17.671  0.00  0.00    +0.075 S 
ATOM      8  O   UNL     1      33.411 -24.337 -18.383  0.00  0.00    -0.150 OA
ATOM      9  O   UNL     1      34.546 -23.082 -16.519  0.00  0.00    -0.150 OA
BRANCH   7  11
ATOM     10  S   UNL     1      29.747 -23.254 -16.131  0.00  0.00    -0.050 S 
ATOM     11  N   UNL     1      32.141 -22.396 -17.239  0.00  0.00    -0.194 N 
ATOM     12  N   UNL     1      32.090 -23.452 -15.058  0.00  0.00    -0.221 NA
ATOM     13  C   UNL     1      31.437 -23.036 -16.107  0.00  0.00    +0.179 C 
ATOM     14  C   UNL     1      29.861 -23.983 -14.583  0.00  0.00    +0.059 C 
ATOM     15  C   UNL     1      31.179 -23.999 -14.176  0.00  0.00    +0.108 C 
ATOM     16  H   UNL     1      31.767 -21.619 -17.715  0.00  0.00    +0.176 HD
ENDBRANCH   7  11
ENDBRANCH   1   7
BRANCH   2  17
ATOM     17  N   UNL     1      35.693 -19.072 -21.553  0.00  0.00    -0.311 N 
ATOM     18  H   UNL     1      36.347 -19.405 -22.208  0.00  0.00    +0.152 HD
BRANCH  17  25
ATOM     19  O   UNL     1      34.967 -18.912 -24.355  0.00  0.00    -0.270 OA
ATOM     20  N   UNL     1      34.341 -16.701 -24.905  0.00  0.00    -0.280 N 
ATOM     21  C   UNL     1      34.617 -15.681 -22.862  0.00  0.00    +0.019 C 
ATOM     22  C   UNL     1      34.961 -17.094 -22.737  0.00  0.00    +0.069 C 
ATOM     23  C   UNL     1      34.247 -15.497 -24.198  0.00  0.00    +0.051 C 
ATOM     24  C   UNL     1      34.776 -17.743 -24.078  0.00  0.00    +0.251 C 
ATOM     25  C   UNL     1      35.375 -17.756 -21.655  0.00  0.00    +0.066 C 
ATOM     26  C   UNL     1      34.602 -14.623 -21.973  0.00  0.00    +0.001 C 
ATOM     27  C   UNL     1      33.854 -14.270 -24.693  0.00  0.00    +0.015 C 
ATOM     28  C   UNL     1      34.206 -13.370 -22.454  0.00  0.00    +0.000 C 
ATOM     29  C   UNL     1      33.835 -13.196 -23.800  0.00  0.00    +0.001 C 
ATOM     30  H   UNL     1      34.128 -16.802 -25.860  0.00  0.00    +0.155 HD
ENDBRANCH  17  25
ENDBRANCH   2  17
TORSDOF 4
ENDMDL
MODEL 4
REMARK VINA RESULT:     -11.6      2.733      9.561
REMARK  Name = 5288711
REMARK  4 active torsions:
REMARK  status: ('A' for Active; 'I' for Inactive)
REMARK    1  A    between atoms: C_1  and  S_7
REMARK    2  A    between atoms: C_2  and  N_17
REMARK    3  A    between atoms: S_7  and  N_11
REMARK    4  A    between atoms: N_17  and  C_25
REMARK                            x       y       z     vdW  Elec       q    Type
REMARK                         _______ _______ _______ _____ _____    ______ ____
ROOT
ATOM      1  C   UNL     1      34.579 -21.703 -19.141  0.00  0.00    +0.125 C 
ATOM      2  C   UNL     1      35.731 -19.677 -20.683  0.00  0.00    +0.048 C 
ATOM      3  C   UNL     1      33.770 -20.864 -19.908  0.00  0.00    +0.021 C 
ATOM      4  C   UNL     1      35.962 -21.531 -19.144  0.00  0.00    +0.021 C 
ATOM      5  C   UNL     1      34.345 -19.854 -20.677  0.00  0.00    +0.016 C 
ATOM      6  C   UNL     1      36.539 -20.520 -19.914  0.00  0.00    +0.016 C 
ENDROOT
BRANCH   1   7
ATOM      7  S   UNL     1      33.859 -22.969 -18.176  0.00  0.00    +0.075 S 
ATOM      8  O   UNL     1      33.666 -24.140 -19.022  0.00  0.00    -0.150 OA
ATOM      9  O   UNL     1      34.640 -23.090 -16.952  0.00  0.00    -0.150 OA
BRANCH   7  11
ATOM     10  S   UNL     1      30.032 -23.020 -16.441  0.00  0.00    -0.050 S 
ATOM     11  N   UNL     1      32.323 -22.284 -17.821  0.00  0.00    -0.194 N 
ATOM     12  N   UNL     1      32.421 -22.862 -15.469  0.00  0.00    -0.221 NA
ATOM     13  C   UNL     1      31.704 -22.711 -16.547  0.00  0.00    +0.179 C 
ATOM     14  C   UNL     1      30.250 -23.402 -14.784  0.00  0.00    +0.059 C 
ATOM     15  C   UNL     1      31.581 -23.261 -14.449  0.00  0.00    +0.108 C 
ATOM     16  H   UNL     1      31.883 -21.645 -18.428  0.00  0.00    +0.176 HD
ENDBRANCH   7  11
ENDBRANCH   1   7
BRANCH   2  17
ATOM     17  N   UNL     1      36.310 -18.659 -21.458  0.00  0.00    -0.311 N 
ATOM     18  H   UNL     1      37.214 -18.377 -21.188  0.00  0.00    +0.152 HD
BRANCH  17  25
ATOM     19  O   UNL     1      35.085 -16.373 -20.162  0.00  0.00    -0.270 OA
ATOM     20  N   UNL     1      34.052 -14.986 -21.772  0.00  0.00    -0.280 N 
ATOM     21  C   UNL     1      34.532 -16.162 -23.689  0.00  0.00    +0.019 C 
ATOM     22  C   UNL     1      35.098 -16.869 -22.545  0.00  0.00    +0.069 C 
ATOM     23  C   UNL     1      33.909 -15.026 -23.164  0.00  0.00    +0.051 C 
ATOM     24  C   UNL     1      34.775 -16.088 -21.303  0.00  0.00    +0.251 C 
ATOM     25  C   UNL     1      35.789 -18.011 -22.531  0.00  0.00    +0.066 C 
ATOM     26  C   UNL     1      34.517 -16.410 -25.048  0.00  0.00    +0.001 C 
ATOM     27  C   UNL     1      33.256 -14.107 -23.959  0.00  0.00    +0.015 C 
ATOM     28  C   UNL     1      33.861 -15.490 -25.874  0.00  0.00    +0.000 C 
ATOM     29  C   UNL     1      33.237 -14.350 -25.334  0.00  0.00    +0.001 C 
ATOM     30  H   UNL     1      33.691 -14.274 -21.196  0.00  0.00    +0.155 HD
ENDBRANCH  17  25
ENDBRANCH   2  17
TORSDOF 4
ENDMDL
MODEL 5
REMARK VINA RESULT:     -11.3      4.524      9.931
REMARK  Name = 5288711
REMARK  4 active torsions:
REMARK  status: ('A' for Active; 'I' for Inactive)
REMARK    1  A    between atoms: C_1  and  S_7
REMARK    2  A    between atoms: C_2  and  N_17
REMARK    3  A    between atoms: S_7  and  N_11
REMARK    4  A    between atoms: N_17  and  C_25
REMARK                            x       y       z     vdW  Elec       q    Type
REMARK                         _______ _______ _______ _____ _____    ______ ____
ROOT
ATOM      1  C   UNL     1      35.570 -23.515 -13.801  0.00  0.00    +0.125 C 
ATOM      2  C   UNL     1      35.149 -22.987 -16.514  0.00  0.00    +0.048 C 
ATOM      3  C   UNL     1      34.418 -23.983 -14.433  0.00  0.00    +0.021 C 
ATOM      4  C   UNL     1      36.512 -22.784 -14.523  0.00  0.00    +0.021 C 
ATOM      5  C   UNL     1      34.208 -23.720 -15.786  0.00  0.00    +0.016 C 
ATOM      6  C   UNL     1      36.303 -22.520 -15.877  0.00  0.00    +0.016 C 
ENDROOT
BRANCH   1   7
ATOM      7  S   UNL     1      35.833 -23.844 -12.106  0.00  0.00    +0.075 S 
ATOM      8  O   UNL     1      36.887 -22.961 -11.623  0.00  0.00    -0.150 OA
ATOM      9  O   UNL     1      34.533 -23.837 -11.447  0.00  0.00    -0.150 OA
BRANCH   7  11
ATOM     10  S   UNL     1      37.983 -26.979 -13.899  0.00  0.00    -0.050 S 
ATOM     11  N   UNL     1      36.443 -25.450 -12.170  0.00  0.00    -0.194 N 
ATOM     12  N   UNL     1      38.682 -24.755 -12.783  0.00  0.00    -0.221 NA
ATOM     13  C   UNL     1      37.721 -25.628 -12.894  0.00  0.00    +0.179 C 
ATOM     14  C   UNL     1      39.547 -26.366 -14.244  0.00  0.00    +0.059 C 
ATOM     15  C   UNL     1      39.739 -25.181 -13.564  0.00  0.00    +0.108 C 
ATOM     16  H   UNL     1      35.971 -26.205 -11.750  0.00  0.00    +0.176 HD
ENDBRANCH   7  11
ENDBRANCH   1   7
BRANCH   2  17
ATOM     17  N   UNL     1      34.937 -22.721 -17.877  0.00  0.00    -0.311 N 
ATOM     18  H   UNL     1      34.230 -23.251 -18.310  0.00  0.00    +0.152 HD
BRANCH  17  25
ATOM     19  O   UNL     1      32.713 -21.689 -19.424  0.00  0.00    -0.270 OA
ATOM     20  N   UNL     1      33.480 -20.068 -20.963  0.00  0.00    -0.280 N 
ATOM     21  C   UNL     1      35.728 -20.082 -20.480  0.00  0.00    +0.019 C 
ATOM     22  C   UNL     1      35.052 -21.042 -19.614  0.00  0.00    +0.069 C 
ATOM     23  C   UNL     1      34.728 -19.519 -21.278  0.00  0.00    +0.051 C 
ATOM     24  C   UNL     1      33.587 -21.020 -19.943  0.00  0.00    +0.251 C 
ATOM     25  C   UNL     1      35.579 -21.832 -18.676  0.00  0.00    +0.066 C 
ATOM     26  C   UNL     1      37.046 -19.689 -20.618  0.00  0.00    +0.001 C 
ATOM     27  C   UNL     1      34.996 -18.558 -22.231  0.00  0.00    +0.015 C 
ATOM     28  C   UNL     1      37.341 -18.715 -21.578  0.00  0.00    +0.000 C 
ATOM     29  C   UNL     1      36.326 -18.155 -22.377  0.00  0.00    +0.001 C 
ATOM     30  H   UNL     1      32.636 -19.818 -21.402  0.00  0.00    +0.155 HD
ENDBRANCH  17  25
ENDBRANCH   2  17
TORSDOF 4
ENDMDL
MODEL 6
REMARK VINA RESULT:     -11.2      1.900      2.839
REMARK  Name = 5288711
REMARK  4 active torsions:
REMARK  status: ('A' for Active; 'I' for Inactive)
REMARK    1  A    between atoms: C_1  and  S_7
REMARK    2  A    between atoms: C_2  and  N_17
REMARK    3  A    between atoms: S_7  and  N_11
REMARK    4  A    between atoms: N_17  and  C_25
REMARK                            x       y       z     vdW  Elec       q    Type
REMARK                         _______ _______ _______ _____ _____    ______ ____
ROOT
ATOM      1  C   UNL     1      35.316 -20.158 -20.565  0.00  0.00    +0.125 C 
ATOM      2  C   UNL     1      34.942 -21.989 -18.486  0.00  0.00    +0.048 C 
ATOM      3  C   UNL     1      36.418 -20.670 -19.879  0.00  0.00    +0.021 C 
ATOM      4  C   UNL     1      34.028 -20.560 -20.214  0.00  0.00    +0.021 C 
ATOM      5  C   UNL     1      36.231 -21.584 -18.843  0.00  0.00    +0.016 C 
ATOM      6  C   UNL     1      33.841 -21.474 -19.177  0.00  0.00    +0.016 C 
ENDROOT
BRANCH   1   7
ATOM      7  S   UNL     1      35.549 -19.014 -21.863  0.00  0.00    +0.075 S 
ATOM      8  O   UNL     1      36.927 -18.539 -21.818  0.00  0.00    -0.150 OA
ATOM      9  O   UNL     1      35.040 -19.622 -23.086  0.00  0.00    -0.150 OA
BRANCH   7  11
ATOM     10  S   UNL     1      34.492 -14.965 -21.474  0.00  0.00    -0.050 S 
ATOM     11  N   UNL     1      34.508 -17.737 -21.372  0.00  0.00    -0.194 N 
ATOM     12  N   UNL     1      34.659 -16.572 -23.491  0.00  0.00    -0.221 NA
ATOM     13  C   UNL     1      34.560 -16.508 -22.193  0.00  0.00    +0.179 C 
ATOM     14  C   UNL     1      34.605 -14.277 -23.041  0.00  0.00    +0.059 C 
ATOM     15  C   UNL     1      34.684 -15.282 -23.983  0.00  0.00    +0.108 C 
ATOM     16  H   UNL     1      33.913 -17.819 -20.592  0.00  0.00    +0.176 HD
ENDBRANCH   7  11
ENDBRANCH   1   7
BRANCH   2  17
ATOM     17  N   UNL     1      34.755 -22.910 -17.442  0.00  0.00    -0.311 N 
ATOM     18  H   UNL     1      33.977 -23.507 -17.533  0.00  0.00    +0.152 HD
BRANCH  17  25
ATOM     19  O   UNL     1      32.681 -23.458 -15.490  0.00  0.00    -0.270 OA
ATOM     20  N   UNL     1      33.645 -23.824 -13.365  0.00  0.00    -0.280 N 
ATOM     21  C   UNL     1      35.871 -23.558 -13.878  0.00  0.00    +0.019 C 
ATOM     22  C   UNL     1      35.080 -23.368 -15.089  0.00  0.00    +0.069 C 
ATOM     23  C   UNL     1      34.951 -23.833 -12.862  0.00  0.00    +0.051 C 
ATOM     24  C   UNL     1      33.631 -23.544 -14.736  0.00  0.00    +0.251 C 
ATOM     25  C   UNL     1      35.502 -23.085 -16.323  0.00  0.00    +0.066 C 
ATOM     26  C   UNL     1      37.226 -23.515 -13.610  0.00  0.00    +0.001 C 
ATOM     27  C   UNL     1      35.338 -24.071 -11.558  0.00  0.00    +0.015 C 
ATOM     28  C   UNL     1      37.641 -23.754 -12.295  0.00  0.00    +0.000 C 
ATOM     29  C   UNL     1      36.706 -24.029 -11.280  0.00  0.00    +0.001 C 
ATOM     30  H   UNL     1      32.840 -23.992 -12.825  0.00  0.00    +0.155 HD
ENDBRANCH  17  25
ENDBRANCH   2  17
TORSDOF 4
ENDMDL
MODEL 7
REMARK VINA RESULT:     -11.1      2.981      9.939
REMARK  Name = 5288711
REMARK  4 active torsions:
REMARK  status: ('A' for Active; 'I' for Inactive)
REMARK    1  A    between atoms: C_1  and  S_7
REMARK    2  A    between atoms: C_2  and  N_17
REMARK    3  A    between atoms: S_7  and  N_11
REMARK    4  A    between atoms: N_17  and  C_25
REMARK                            x       y       z     vdW  Elec       q    Type
REMARK                         _______ _______ _______ _____ _____    ______ ____
ROOT
ATOM      1  C   UNL     1      34.321 -21.912 -18.790  0.00  0.00    +0.125 C 
ATOM      2  C   UNL     1      35.244 -20.001 -20.610  0.00  0.00    +0.048 C 
ATOM      3  C   UNL     1      33.411 -21.155 -19.529  0.00  0.00    +0.021 C 
ATOM      4  C   UNL     1      35.691 -21.716 -18.960  0.00  0.00    +0.021 C 
ATOM      5  C   UNL     1      33.871 -20.202 -20.437  0.00  0.00    +0.016 C 
ATOM      6  C   UNL     1      36.152 -20.763 -19.869  0.00  0.00    +0.016 C 
ENDROOT
BRANCH   1   7
ATOM      7  S   UNL     1      33.745 -23.105 -17.652  0.00  0.00    +0.075 S 
ATOM      8  O   UNL     1      32.726 -22.487 -16.812  0.00  0.00    -0.150 OA
ATOM      9  O   UNL     1      33.421 -24.311 -18.403  0.00  0.00    -0.150 OA
BRANCH   7  11
ATOM     10  S   UNL     1      35.917 -23.078 -14.054  0.00  0.00    -0.050 S 
ATOM     11  N   UNL     1      35.155 -23.370 -16.706  0.00  0.00    -0.194 N 
ATOM     12  N   UNL     1      33.958 -24.516 -14.938  0.00  0.00    -0.221 NA
ATOM     13  C   UNL     1      34.926 -23.714 -15.286  0.00  0.00    +0.179 C 
ATOM     14  C   UNL     1      34.980 -23.947 -12.911  0.00  0.00    +0.059 C 
ATOM     15  C   UNL     1      33.989 -24.651 -13.563  0.00  0.00    +0.108 C 
ATOM     16  H   UNL     1      36.061 -23.298 -17.087  0.00  0.00    +0.176 HD
ENDBRANCH   7  11
ENDBRANCH   1   7
BRANCH   2  17
ATOM     17  N   UNL     1      35.707 -19.041 -21.525  0.00  0.00    -0.311 N 
ATOM     18  H   UNL     1      36.359 -19.363 -22.188  0.00  0.00    +0.152 HD
BRANCH  17  25
ATOM     19  O   UNL     1      35.013 -18.856 -24.334  0.00  0.00    -0.270 OA
ATOM     20  N   UNL     1      34.367 -16.646 -24.865  0.00  0.00    -0.280 N 
ATOM     21  C   UNL     1      34.607 -15.648 -22.807  0.00  0.00    +0.019 C 
ATOM     22  C   UNL     1      34.967 -17.058 -22.695  0.00  0.00    +0.069 C 
ATOM     23  C   UNL     1      34.251 -15.452 -24.144  0.00  0.00    +0.051 C 
ATOM     24  C   UNL     1      34.804 -17.693 -24.045  0.00  0.00    +0.251 C 
ATOM     25  C   UNL     1      35.375 -17.728 -21.616  0.00  0.00    +0.066 C 
ATOM     26  C   UNL     1      34.569 -14.601 -21.906  0.00  0.00    +0.001 C 
ATOM     27  C   UNL     1      33.849 -14.224 -24.630  0.00  0.00    +0.015 C 
ATOM     28  C   UNL     1      34.163 -13.347 -22.376  0.00  0.00    +0.000 C 
ATOM     29  C   UNL     1      33.807 -13.161 -23.725  0.00  0.00    +0.001 C 
ATOM     30  H   UNL     1      34.167 -16.739 -25.824  0.00  0.00    +0.155 HD
ENDBRANCH  17  25
ENDBRANCH   2  17
TORSDOF 4
ENDMDL
MODEL 8
REMARK VINA RESULT:     -11.0      3.995     11.764
REMARK  Name = 5288711
REMARK  4 active torsions:
REMARK  status: ('A' for Active; 'I' for Inactive)
REMARK    1  A    between atoms: C_1  and  S_7
REMARK    2  A    between atoms: C_2  and  N_17
REMARK    3  A    between atoms: S_7  and  N_11
REMARK    4  A    between atoms: N_17  and  C_25
REMARK                            x       y       z     vdW  Elec       q    Type
REMARK                         _______ _______ _______ _____ _____    ______ ____
ROOT
ATOM      1  C   UNL     1      34.948 -16.850 -22.429  0.00  0.00    +0.125 C 
ATOM      2  C   UNL     1      33.804 -14.394 -23.118  0.00  0.00    +0.048 C 
ATOM      3  C   UNL     1      34.768 -16.516 -23.772  0.00  0.00    +0.021 C 
ATOM      4  C   UNL     1      34.558 -15.958 -21.431  0.00  0.00    +0.021 C 
ATOM      5  C   UNL     1      34.198 -15.291 -24.116  0.00  0.00    +0.016 C 
ATOM      6  C   UNL     1      33.987 -14.732 -21.774  0.00  0.00    +0.016 C 
ENDROOT
BRANCH   1   7
ATOM      7  S   UNL     1      35.662 -18.384 -21.998  0.00  0.00    +0.075 S 
ATOM      8  O   UNL     1      35.502 -19.299 -23.121  0.00  0.00    -0.150 OA
ATOM      9  O   UNL     1      36.996 -18.119 -21.473  0.00  0.00    -0.150 OA
BRANCH   7  11
ATOM     10  S   UNL     1      33.699 -21.281 -19.671  0.00  0.00    -0.050 S 
ATOM     11  N   UNL     1      34.625 -18.887 -20.723  0.00  0.00    -0.194 N 
ATOM     12  N   UNL     1      36.171 -20.561 -19.899  0.00  0.00    -0.221 NA
ATOM     13  C   UNL     1      34.938 -20.198 -20.114  0.00  0.00    +0.179 C 
ATOM     14  C   UNL     1      34.906 -22.372 -19.127  0.00  0.00    +0.059 C 
ATOM     15  C   UNL     1      36.153 -21.818 -19.327  0.00  0.00    +0.108 C 
ATOM     16  H   UNL     1      33.869 -18.335 -20.416  0.00  0.00    +0.176 HD
ENDBRANCH   7  11
ENDBRANCH   1   7
BRANCH   2  17
ATOM     17  N   UNL     1      33.230 -13.160 -23.465  0.00  0.00    -0.311 N 
ATOM     18  H   UNL     1      32.251 -13.161 -23.577  0.00  0.00    +0.152 HD
BRANCH  17  25
ATOM     19  O   UNL     1      31.539 -11.414 -21.884  0.00  0.00    -0.270 OA
ATOM     20  N   UNL     1      32.332  -9.192 -22.005  0.00  0.00    -0.280 N 
ATOM     21  C   UNL     1      34.151  -9.484 -23.382  0.00  0.00    +0.019 C 
ATOM     22  C   UNL     1      33.501 -10.774 -23.174  0.00  0.00    +0.069 C 
ATOM     23  C   UNL     1      33.401  -8.559 -22.650  0.00  0.00    +0.051 C 
ATOM     24  C   UNL     1      32.317 -10.564 -22.275  0.00  0.00    +0.251 C 
ATOM     25  C   UNL     1      33.844 -11.966 -23.666  0.00  0.00    +0.066 C 
ATOM     26  C   UNL     1      35.259  -9.082 -24.103  0.00  0.00    +0.001 C 
ATOM     27  C   UNL     1      33.720  -7.216 -22.608  0.00  0.00    +0.015 C 
ATOM     28  C   UNL     1      35.601  -7.725 -24.074  0.00  0.00    +0.000 C 
ATOM     29  C   UNL     1      34.839  -6.802 -23.334  0.00  0.00    +0.001 C 
ATOM     30  H   UNL     1      31.675  -8.731 -21.436  0.00  0.00    +0.155 HD
ENDBRANCH  17  25
ENDBRANCH   2  17
TORSDOF 4
ENDMDL
MODEL 9
REMARK VINA RESULT:     -11.0      3.838     10.053
REMARK  Name = 5288711
REMARK  4 active torsions:
REMARK  status: ('A' for Active; 'I' for Inactive)
REMARK    1  A    between atoms: C_1  and  S_7
REMARK    2  A    between atoms: C_2  and  N_17
REMARK    3  A    between atoms: S_7  and  N_11
REMARK    4  A    between atoms: N_17  and  C_25
REMARK                            x       y       z     vdW  Elec       q    Type
REMARK                         _______ _______ _______ _____ _____    ______ ____
ROOT
ATOM      1  C   UNL     1      35.264 -22.578 -17.090  0.00  0.00    +0.125 C 
ATOM      2  C   UNL     1      35.329 -21.131 -19.481  0.00  0.00    +0.048 C 
ATOM      3  C   UNL     1      36.454 -21.987 -17.517  0.00  0.00    +0.021 C 
ATOM      4  C   UNL     1      34.107 -22.446 -17.857  0.00  0.00    +0.021 C 
ATOM      5  C   UNL     1      36.486 -21.264 -18.709  0.00  0.00    +0.016 C 
ATOM      6  C   UNL     1      34.138 -21.724 -19.050  0.00  0.00    +0.016 C 
ENDROOT
BRANCH   1   7
ATOM      7  S   UNL     1      35.224 -23.483 -15.597  0.00  0.00    +0.075 S 
ATOM      8  O   UNL     1      35.379 -22.550 -14.488  0.00  0.00    -0.150 OA
ATOM      9  O   UNL     1      34.059 -24.357 -15.642  0.00  0.00    -0.150 OA
BRANCH   7  11
ATOM     10  S   UNL     1      38.832 -25.070 -14.140  0.00  0.00    -0.050 S 
ATOM     11  N   UNL     1      36.659 -24.418 -15.737  0.00  0.00    -0.194 N 
ATOM     12  N   UNL     1      36.345 -25.526 -13.604  0.00  0.00    -0.221 NA
ATOM     13  C   UNL     1      37.164 -25.019 -14.482  0.00  0.00    +0.179 C 
ATOM     14  C   UNL     1      38.461 -25.850 -12.658  0.00  0.00    +0.059 C 
ATOM     15  C   UNL     1      37.094 -26.008 -12.549  0.00  0.00    +0.108 C 
ATOM     16  H   UNL     1      37.117 -24.548 -16.599  0.00  0.00    +0.176 HD
ENDBRANCH   7  11
ENDBRANCH   1   7
BRANCH   2  17
ATOM     17  N   UNL     1      35.361 -20.403 -20.682  0.00  0.00    -0.311 N 
ATOM     18  H   UNL     1      35.542 -20.928 -21.495  0.00  0.00    +0.152 HD
BRANCH  17  25
ATOM     19  O   UNL     1      35.212 -20.288 -23.576  0.00  0.00    -0.270 OA
ATOM     20  N   UNL     1      34.884 -18.057 -24.282  0.00  0.00    -0.280 N 
ATOM     21  C   UNL     1      34.837 -16.990 -22.245  0.00  0.00    +0.019 C 
ATOM     22  C   UNL     1      35.036 -18.419 -22.027  0.00  0.00    +0.069 C 
ATOM     23  C   UNL     1      34.751 -16.825 -23.631  0.00  0.00    +0.051 C 
ATOM     24  C   UNL     1      35.064 -19.099 -23.365  0.00  0.00    +0.251 C 
ATOM     25  C   UNL     1      35.176 -19.072 -20.872  0.00  0.00    +0.066 C 
ATOM     26  C   UNL     1      34.733 -15.903 -21.398  0.00  0.00    +0.001 C 
ATOM     27  C   UNL     1      34.561 -15.591 -24.219  0.00  0.00    +0.015 C 
ATOM     28  C   UNL     1      34.540 -14.642 -21.972  0.00  0.00    +0.000 C 
ATOM     29  C   UNL     1      34.455 -14.488 -23.368  0.00  0.00    +0.001 C 
ATOM     30  H   UNL     1      34.855 -18.176 -25.258  0.00  0.00    +0.155 HD
ENDBRANCH  17  25
ENDBRANCH   2  17
TORSDOF 4
ENDMDL
