MODEL 1
REMARK VINA RESULT:     -11.5      0.000      0.000
REMARK  Name = 456199
REMARK  5 active torsions:
REMARK  status: ('A' for Active; 'I' for Inactive)
REMARK    1  A    between atoms: O_1  and  C_5
REMARK    2  A    between atoms: O_1  and  C_14
REMARK    3  A    between atoms: C_14  and  C_15
REMARK    4  A    between atoms: C_20  and  O_21
REMARK    5  A    between atoms: O_21  and  C_25
REMARK                            x       y       z     vdW  Elec       q    Type
REMARK                         _______ _______ _______ _____ _____    ______ ____
ROOT
ATOM      1  O   UNL     1      33.289 -22.729 -17.183  0.00  0.00    -0.346 OA
ENDROOT
BRANCH   1   5
ATOM      2  O   UNL     1      32.527 -24.290 -13.932  0.00  0.00    -0.438 OA
ATOM      3  N   UNL     1      34.808 -23.599 -13.974  0.00  0.00    -0.242 N 
ATOM      4  N   UNL     1      34.033 -24.619 -12.164  0.00  0.00    -0.333 NA
ATOM      5  C   UNL     1      33.543 -23.546 -16.051  0.00  0.00    +0.179 C 
ATOM      6  C   UNL     1      34.781 -23.050 -15.310  0.00  0.00    +0.130 C 
ATOM      7  C   UNL     1      32.334 -23.507 -15.116  0.00  0.00    +0.241 C 
ATOM      8  C   UNL     1      33.725 -24.168 -13.360  0.00  0.00    +0.345 C 
ATOM      9  C   UNL     1      35.866 -23.670 -13.122  0.00  0.00    +0.181 C 
ATOM     10  C   UNL     1      35.363 -24.304 -12.007  0.00  0.00    +0.274 C 
ATOM     11  O   UNL     1      37.241 -24.329 -10.676  0.00  0.00    -0.124 OA
ATOM     12  O   UNL     1      35.389 -25.217  -9.894  0.00  0.00    -0.124 OA
ATOM     13  N   UNL     1      36.023 -24.629 -10.814  0.00  0.00    +0.085 N 
ENDBRANCH   1   5
BRANCH   1  14
ATOM     14  C   UNL     1      34.102 -23.105 -18.285  0.00  0.00    +0.169 C 
BRANCH  14  15
ATOM     15  C   UNL     1      34.315 -21.910 -19.167  0.00  0.00    +0.007 C 
ATOM     16  C   UNL     1      33.218 -21.209 -19.652  0.00  0.00    +0.001 C 
ATOM     17  C   UNL     1      35.609 -21.516 -19.490  0.00  0.00    +0.001 C 
ATOM     18  C   UNL     1      33.417 -20.098 -20.472  0.00  0.00    +0.037 C 
ATOM     19  C   UNL     1      35.808 -20.405 -20.310  0.00  0.00    +0.037 C 
ATOM     20  C   UNL     1      34.712 -19.696 -20.801  0.00  0.00    +0.147 C 
BRANCH  20  21
ATOM     21  O   UNL     1      34.905 -18.612 -21.601  0.00  0.00    -0.404 OA
BRANCH  21  25
ATOM     22  F   UNL     1      36.773 -18.778 -22.909  0.00  0.00    -0.133 F 
ATOM     23  F   UNL     1      34.973 -17.843 -23.722  0.00  0.00    -0.133 F 
ATOM     24  F   UNL     1      35.007 -20.007 -23.411  0.00  0.00    -0.133 F 
ATOM     25  C   UNL     1      35.425 -18.824 -22.908  0.00  0.00    +0.575 C 
ENDBRANCH  21  25
ENDBRANCH  20  21
ENDBRANCH  14  15
ENDBRANCH   1  14
TORSDOF 5
ENDMDL
MODEL 2
REMARK VINA RESULT:     -11.0      0.753      1.474
REMARK  Name = 456199
REMARK  5 active torsions:
REMARK  status: ('A' for Active; 'I' for Inactive)
REMARK    1  A    between atoms: O_1  and  C_5
REMARK    2  A    between atoms: O_1  and  C_14
REMARK    3  A    between atoms: C_14  and  C_15
REMARK    4  A    between atoms: C_20  and  O_21
REMARK    5  A    between atoms: O_21  and  C_25
REMARK                            x       y       z     vdW  Elec       q    Type
REMARK                         _______ _______ _______ _____ _____    ______ ____
ROOT
ATOM      1  O   UNL     1      33.380 -22.706 -17.069  0.00  0.00    -0.346 OA
ENDROOT
BRANCH   1   5
ATOM      2  O   UNL     1      33.415 -24.202 -13.700  0.00  0.00    -0.438 OA
ATOM      3  N   UNL     1      35.519 -23.171 -14.141  0.00  0.00    -0.242 N 
ATOM      4  N   UNL     1      35.221 -24.207 -12.203  0.00  0.00    -0.333 NA
ATOM      5  C   UNL     1      33.942 -23.417 -15.977  0.00  0.00    +0.179 C 
ATOM      6  C   UNL     1      35.187 -22.700 -15.466  0.00  0.00    +0.130 C 
ATOM      7  C   UNL     1      32.909 -23.518 -14.853  0.00  0.00    +0.241 C 
ATOM      8  C   UNL     1      34.655 -23.868 -13.340  0.00  0.00    +0.345 C 
ATOM      9  C   UNL     1      36.698 -23.034 -13.477  0.00  0.00    +0.181 C 
ATOM     10  C   UNL     1      36.491 -23.682 -12.279  0.00  0.00    +0.274 C 
ATOM     11  O   UNL     1      38.540 -23.350 -11.282  0.00  0.00    -0.124 OA
ATOM     12  O   UNL     1      37.005 -24.473 -10.180  0.00  0.00    -0.124 OA
ATOM     13  N   UNL     1      37.379 -23.841 -11.207  0.00  0.00    +0.085 N 
ENDBRANCH   1   5
BRANCH   1  14
ATOM     14  C   UNL     1      33.933 -23.135 -18.304  0.00  0.00    +0.169 C 
BRANCH  14  15
ATOM     15  C   UNL     1      34.215 -21.934 -19.157  0.00  0.00    +0.007 C 
ATOM     16  C   UNL     1      35.530 -21.559 -19.405  0.00  0.00    +0.001 C 
ATOM     17  C   UNL     1      33.158 -21.206 -19.691  0.00  0.00    +0.001 C 
ATOM     18  C   UNL     1      35.792 -20.442 -20.199  0.00  0.00    +0.037 C 
ATOM     19  C   UNL     1      33.418 -20.089 -20.485  0.00  0.00    +0.037 C 
ATOM     20  C   UNL     1      34.736 -19.707 -20.738  0.00  0.00    +0.147 C 
BRANCH  20  21
ATOM     21  O   UNL     1      34.992 -18.617 -21.512  0.00  0.00    -0.404 OA
BRANCH  21  25
ATOM     22  F   UNL     1      35.037 -17.853 -23.667  0.00  0.00    -0.133 F 
ATOM     23  F   UNL     1      34.975 -20.005 -23.292  0.00  0.00    -0.133 F 
ATOM     24  F   UNL     1      36.812 -18.899 -22.869  0.00  0.00    -0.133 F 
ATOM     25  C   UNL     1      35.463 -18.828 -22.838  0.00  0.00    +0.575 C 
ENDBRANCH  21  25
ENDBRANCH  20  21
ENDBRANCH  14  15
ENDBRANCH   1  14
TORSDOF 5
ENDMDL
MODEL 3
REMARK VINA RESULT:     -10.7      1.472      2.232
REMARK  Name = 456199
REMARK  5 active torsions:
REMARK  status: ('A' for Active; 'I' for Inactive)
REMARK    1  A    between atoms: O_1  and  C_5
REMARK    2  A    between atoms: O_1  and  C_14
REMARK    3  A    between atoms: C_14  and  C_15
REMARK    4  A    between atoms: C_20  and  O_21
REMARK    5  A    between atoms: O_21  and  C_25
REMARK                            x       y       z     vdW  Elec       q    Type
REMARK                         _______ _______ _______ _____ _____    ______ ____
ROOT
ATOM      1  O   UNL     1      34.339 -23.426 -17.274  0.00  0.00    -0.346 OA
ENDROOT
BRANCH   1   5
ATOM      2  O   UNL     1      36.705 -22.524 -14.595  0.00  0.00    -0.438 OA
ATOM      3  N   UNL     1      35.065 -24.030 -13.742  0.00  0.00    -0.242 N 
ATOM      4  N   UNL     1      36.622 -23.255 -12.367  0.00  0.00    -0.333 NA
ATOM      5  C   UNL     1      34.723 -23.075 -15.953  0.00  0.00    +0.179 C 
ATOM      6  C   UNL     1      34.336 -24.183 -14.980  0.00  0.00    +0.130 C 
ATOM      7  C   UNL     1      36.236 -22.856 -15.907  0.00  0.00    +0.241 C 
ATOM      8  C   UNL     1      36.178 -23.245 -13.604  0.00  0.00    +0.345 C 
ATOM      9  C   UNL     1      34.789 -24.592 -12.535  0.00  0.00    +0.181 C 
ATOM     10  C   UNL     1      35.766 -24.100 -11.698  0.00  0.00    +0.274 C 
ATOM     11  O   UNL     1      35.177 -25.142  -9.732  0.00  0.00    -0.124 OA
ATOM     12  O   UNL     1      36.926 -23.810  -9.731  0.00  0.00    -0.124 OA
ATOM     13  N   UNL     1      35.963 -24.361 -10.336  0.00  0.00    +0.085 N 
ENDBRANCH   1   5
BRANCH   1  14
ATOM     14  C   UNL     1      33.296 -22.588 -17.748  0.00  0.00    +0.169 C 
BRANCH  14  15
ATOM     15  C   UNL     1      33.827 -21.724 -18.854  0.00  0.00    +0.007 C 
ATOM     16  C   UNL     1      35.188 -21.725 -19.135  0.00  0.00    +0.001 C 
ATOM     17  C   UNL     1      32.952 -20.931 -19.588  0.00  0.00    +0.001 C 
ATOM     18  C   UNL     1      35.681 -20.922 -20.164  0.00  0.00    +0.037 C 
ATOM     19  C   UNL     1      33.444 -20.128 -20.617  0.00  0.00    +0.037 C 
ATOM     20  C   UNL     1      34.809 -20.124 -20.905  0.00  0.00    +0.147 C 
BRANCH  20  21
ATOM     21  O   UNL     1      35.291 -19.341 -21.908  0.00  0.00    -0.404 OA
BRANCH  21  25
ATOM     22  F   UNL     1      35.138 -17.435 -20.654  0.00  0.00    -0.133 F 
ATOM     23  F   UNL     1      35.965 -17.327 -22.674  0.00  0.00    -0.133 F 
ATOM     24  F   UNL     1      37.138 -18.268 -21.088  0.00  0.00    -0.133 F 
ATOM     25  C   UNL     1      35.885 -18.095 -21.563  0.00  0.00    +0.575 C 
ENDBRANCH  21  25
ENDBRANCH  20  21
ENDBRANCH  14  15
ENDBRANCH   1  14
TORSDOF 5
ENDMDL
MODEL 4
REMARK VINA RESULT:     -10.5      5.584      6.944
REMARK  Name = 456199
REMARK  5 active torsions:
REMARK  status: ('A' for Active; 'I' for Inactive)
REMARK    1  A    between atoms: O_1  and  C_5
REMARK    2  A    between atoms: O_1  and  C_14
REMARK    3  A    between atoms: C_14  and  C_15
REMARK    4  A    between atoms: C_20  and  O_21
REMARK    5  A    between atoms: O_21  and  C_25
REMARK                            x       y       z     vdW  Elec       q    Type
REMARK                         _______ _______ _______ _____ _____    ______ ____
ROOT
ATOM      1  O   UNL     1      33.763 -23.934 -13.043  0.00  0.00    -0.346 OA
ENDROOT
BRANCH   1   5
ATOM      2  O   UNL     1      36.686 -25.628 -11.567  0.00  0.00    -0.438 OA
ATOM      3  N   UNL     1      37.158 -25.039 -13.828  0.00  0.00    -0.242 N 
ATOM      4  N   UNL     1      38.703 -26.117 -12.659  0.00  0.00    -0.333 NA
ATOM      5  C   UNL     1      34.872 -24.820 -13.027  0.00  0.00    +0.179 C 
ATOM      6  C   UNL     1      35.882 -24.419 -14.098  0.00  0.00    +0.130 C 
ATOM      7  C   UNL     1      35.537 -24.776 -11.651  0.00  0.00    +0.241 C 
ATOM      8  C   UNL     1      37.500 -25.590 -12.623  0.00  0.00    +0.345 C 
ATOM      9  C   UNL     1      38.205 -25.201 -14.681  0.00  0.00    +0.181 C 
ATOM     10  C   UNL     1      39.152 -25.870 -13.937  0.00  0.00    +0.274 C 
ATOM     11  O   UNL     1      40.838 -26.048 -15.493  0.00  0.00    -0.124 OA
ATOM     12  O   UNL     1      41.165 -26.892 -13.490  0.00  0.00    -0.124 OA
ATOM     13  N   UNL     1      40.432 -26.286 -14.322  0.00  0.00    +0.085 N 
ENDBRANCH   1   5
BRANCH   1  14
ATOM     14  C   UNL     1      32.534 -24.645 -13.038  0.00  0.00    +0.169 C 
BRANCH  14  15
ATOM     15  C   UNL     1      31.583 -23.983 -13.991  0.00  0.00    +0.007 C 
ATOM     16  C   UNL     1      31.981 -23.735 -15.299  0.00  0.00    +0.001 C 
ATOM     17  C   UNL     1      30.312 -23.623 -13.556  0.00  0.00    +0.001 C 
ATOM     18  C   UNL     1      31.097 -23.120 -16.186  0.00  0.00    +0.037 C 
ATOM     19  C   UNL     1      29.427 -23.008 -14.442  0.00  0.00    +0.037 C 
ATOM     20  C   UNL     1      29.820 -22.757 -15.757  0.00  0.00    +0.147 C 
BRANCH  20  21
ATOM     21  O   UNL     1      28.957 -22.156 -16.622  0.00  0.00    -0.404 OA
BRANCH  21  25
ATOM     22  F   UNL     1      26.843 -22.524 -15.832  0.00  0.00    -0.133 F 
ATOM     23  F   UNL     1      27.869 -24.110 -16.930  0.00  0.00    -0.133 F 
ATOM     24  F   UNL     1      27.152 -22.352 -18.013  0.00  0.00    -0.133 F 
ATOM     25  C   UNL     1      27.695 -22.771 -16.849  0.00  0.00    +0.575 C 
ENDBRANCH  21  25
ENDBRANCH  20  21
ENDBRANCH  14  15
ENDBRANCH   1  14
TORSDOF 5
ENDMDL
MODEL 5
REMARK VINA RESULT:     -10.4      6.222     10.938
REMARK  Name = 456199
REMARK  5 active torsions:
REMARK  status: ('A' for Active; 'I' for Inactive)
REMARK    1  A    between atoms: O_1  and  C_5
REMARK    2  A    between atoms: O_1  and  C_14
REMARK    3  A    between atoms: C_14  and  C_15
REMARK    4  A    between atoms: C_20  and  O_21
REMARK    5  A    between atoms: O_21  and  C_25
REMARK                            x       y       z     vdW  Elec       q    Type
REMARK                         _______ _______ _______ _____ _____    ______ ____
ROOT
ATOM      1  O   UNL     1      35.628 -18.410 -20.635  0.00  0.00    -0.346 OA
ENDROOT
BRANCH   1   5
ATOM      2  O   UNL     1      34.308 -15.096 -21.565  0.00  0.00    -0.438 OA
ATOM      3  N   UNL     1      34.704 -16.382 -23.533  0.00  0.00    -0.242 N 
ATOM      4  N   UNL     1      33.943 -14.311 -23.745  0.00  0.00    -0.333 NA
ATOM      5  C   UNL     1      35.542 -17.224 -21.410  0.00  0.00    +0.179 C 
ATOM      6  C   UNL     1      35.184 -17.563 -22.854  0.00  0.00    +0.130 C 
ATOM      7  C   UNL     1      34.473 -16.307 -20.817  0.00  0.00    +0.241 C 
ATOM      8  C   UNL     1      34.296 -15.245 -22.890  0.00  0.00    +0.345 C 
ATOM      9  C   UNL     1      34.589 -16.178 -24.873  0.00  0.00    +0.181 C 
ATOM     10  C   UNL     1      34.115 -14.889 -24.981  0.00  0.00    +0.274 C 
ATOM     11  O   UNL     1      33.961 -14.707 -27.271  0.00  0.00    -0.124 OA
ATOM     12  O   UNL     1      33.379 -12.982 -26.040  0.00  0.00    -0.124 OA
ATOM     13  N   UNL     1      33.807 -14.166 -26.141  0.00  0.00    +0.085 N 
ENDBRANCH   1   5
BRANCH   1  14
ATOM     14  C   UNL     1      34.982 -19.497 -21.280  0.00  0.00    +0.169 C 
BRANCH  14  15
ATOM     15  C   UNL     1      34.667 -20.553 -20.262  0.00  0.00    +0.007 C 
ATOM     16  C   UNL     1      33.353 -20.744 -19.853  0.00  0.00    +0.001 C 
ATOM     17  C   UNL     1      35.693 -21.330 -19.737  0.00  0.00    +0.001 C 
ATOM     18  C   UNL     1      33.060 -21.726 -18.906  0.00  0.00    +0.037 C 
ATOM     19  C   UNL     1      35.401 -22.313 -18.790  0.00  0.00    +0.037 C 
ATOM     20  C   UNL     1      34.084 -22.510 -18.375  0.00  0.00    +0.147 C 
BRANCH  20  21
ATOM     21  O   UNL     1      33.798 -23.468 -17.451  0.00  0.00    -0.404 OA
BRANCH  21  25
ATOM     22  F   UNL     1      34.471 -24.350 -15.451  0.00  0.00    -0.133 F 
ATOM     23  F   UNL     1      33.050 -22.690 -15.468  0.00  0.00    -0.133 F 
ATOM     24  F   UNL     1      35.138 -22.316 -15.998  0.00  0.00    -0.133 F 
ATOM     25  C   UNL     1      34.131 -23.212 -16.092  0.00  0.00    +0.575 C 
ENDBRANCH  21  25
ENDBRANCH  20  21
ENDBRANCH  14  15
ENDBRANCH   1  14
TORSDOF 5
ENDMDL
MODEL 6
REMARK VINA RESULT:     -10.2      6.072      8.712
REMARK  Name = 456199
REMARK  5 active torsions:
REMARK  status: ('A' for Active; 'I' for Inactive)
REMARK    1  A    between atoms: O_1  and  C_5
REMARK    2  A    between atoms: O_1  and  C_14
REMARK    3  A    between atoms: C_14  and  C_15
REMARK    4  A    between atoms: C_20  and  O_21
REMARK    5  A    between atoms: O_21  and  C_25
REMARK                            x       y       z     vdW  Elec       q    Type
REMARK                         _______ _______ _______ _____ _____    ______ ____
ROOT
ATOM      1  O   UNL     1      33.227 -24.819 -13.287  0.00  0.00    -0.346 OA
ENDROOT
BRANCH   1   5
ATOM      2  O   UNL     1      31.824 -22.997 -16.168  0.00  0.00    -0.438 OA
ATOM      3  N   UNL     1      30.085 -23.511 -14.621  0.00  0.00    -0.242 N 
ATOM      4  N   UNL     1      29.567 -22.447 -16.497  0.00  0.00    -0.333 NA
ATOM      5  C   UNL     1      32.267 -24.534 -14.293  0.00  0.00    +0.179 C 
ATOM      6  C   UNL     1      30.926 -24.181 -13.657  0.00  0.00    +0.130 C 
ATOM      7  C   UNL     1      32.757 -23.362 -15.144  0.00  0.00    +0.241 C 
ATOM      8  C   UNL     1      30.547 -22.962 -15.787  0.00  0.00    +0.345 C 
ATOM      9  C   UNL     1      28.738 -23.323 -14.567  0.00  0.00    +0.181 C 
ATOM     10  C   UNL     1      28.439 -22.661 -15.738  0.00  0.00    +0.274 C 
ATOM     11  O   UNL     1      26.165 -22.407 -15.488  0.00  0.00    -0.124 OA
ATOM     12  O   UNL     1      27.116 -21.619 -17.306  0.00  0.00    -0.124 OA
ATOM     13  N   UNL     1      27.193 -22.213 -16.194  0.00  0.00    +0.085 N 
ENDBRANCH   1   5
BRANCH   1  14
ATOM     14  C   UNL     1      34.320 -23.915 -13.345  0.00  0.00    +0.169 C 
BRANCH  14  15
ATOM     15  C   UNL     1      35.592 -24.694 -13.505  0.00  0.00    +0.007 C 
ATOM     16  C   UNL     1      36.284 -25.120 -12.378  0.00  0.00    +0.001 C 
ATOM     17  C   UNL     1      36.066 -24.983 -14.780  0.00  0.00    +0.001 C 
ATOM     18  C   UNL     1      37.467 -25.846 -12.527  0.00  0.00    +0.037 C 
ATOM     19  C   UNL     1      37.248 -25.708 -14.930  0.00  0.00    +0.037 C 
ATOM     20  C   UNL     1      37.948 -26.139 -13.803  0.00  0.00    +0.147 C 
BRANCH  20  21
ATOM     21  O   UNL     1      39.102 -26.846 -13.948  0.00  0.00    -0.404 OA
BRANCH  21  25
ATOM     22  F   UNL     1      40.483 -25.748 -15.402  0.00  0.00    -0.133 F 
ATOM     23  F   UNL     1      41.352 -26.928 -13.781  0.00  0.00    -0.133 F 
ATOM     24  F   UNL     1      40.355 -25.041 -13.313  0.00  0.00    -0.133 F 
ATOM     25  C   UNL     1      40.317 -26.125 -14.118  0.00  0.00    +0.575 C 
ENDBRANCH  21  25
ENDBRANCH  20  21
ENDBRANCH  14  15
ENDBRANCH   1  14
TORSDOF 5
ENDMDL
MODEL 7
REMARK VINA RESULT:      -9.9      1.245      1.496
REMARK  Name = 456199
REMARK  5 active torsions:
REMARK  status: ('A' for Active; 'I' for Inactive)
REMARK    1  A    between atoms: O_1  and  C_5
REMARK    2  A    between atoms: O_1  and  C_14
REMARK    3  A    between atoms: C_14  and  C_15
REMARK    4  A    between atoms: C_20  and  O_21
REMARK    5  A    between atoms: O_21  and  C_25
REMARK                            x       y       z     vdW  Elec       q    Type
REMARK                         _______ _______ _______ _____ _____    ______ ____
ROOT
ATOM      1  O   UNL     1      34.625 -22.256 -17.335  0.00  0.00    -0.346 OA
ENDROOT
BRANCH   1   5
ATOM      2  O   UNL     1      33.385 -24.284 -14.518  0.00  0.00    -0.438 OA
ATOM      3  N   UNL     1      35.505 -23.349 -13.959  0.00  0.00    -0.242 N 
ATOM      4  N   UNL     1      34.496 -24.666 -12.488  0.00  0.00    -0.333 NA
ATOM      5  C   UNL     1      34.732 -23.176 -16.259  0.00  0.00    +0.179 C 
ATOM      6  C   UNL     1      35.698 -22.644 -15.205  0.00  0.00    +0.130 C 
ATOM      7  C   UNL     1      33.352 -23.386 -15.633  0.00  0.00    +0.241 C 
ATOM      8  C   UNL     1      34.400 -24.105 -13.673  0.00  0.00    +0.345 C 
ATOM      9  C   UNL     1      36.349 -23.410 -12.894  0.00  0.00    +0.181 C 
ATOM     10  C   UNL     1      35.704 -24.229 -11.994  0.00  0.00    +0.274 C 
ATOM     11  O   UNL     1      37.230 -24.215 -10.271  0.00  0.00    -0.124 OA
ATOM     12  O   UNL     1      35.388 -25.390 -10.032  0.00  0.00    -0.124 OA
ATOM     13  N   UNL     1      36.124 -24.626 -10.718  0.00  0.00    +0.085 N 
ENDBRANCH   1   5
BRANCH   1  14
ATOM     14  C   UNL     1      35.863 -22.111 -18.015  0.00  0.00    +0.169 C 
BRANCH  14  15
ATOM     15  C   UNL     1      35.667 -21.212 -19.201  0.00  0.00    +0.007 C 
ATOM     16  C   UNL     1      34.399 -21.063 -19.749  0.00  0.00    +0.001 C 
ATOM     17  C   UNL     1      36.756 -20.538 -19.740  0.00  0.00    +0.001 C 
ATOM     18  C   UNL     1      34.216 -20.227 -20.851  0.00  0.00    +0.037 C 
ATOM     19  C   UNL     1      36.575 -19.702 -20.842  0.00  0.00    +0.037 C 
ATOM     20  C   UNL     1      35.305 -19.546 -21.397  0.00  0.00    +0.147 C 
BRANCH  20  21
ATOM     21  O   UNL     1      35.127 -18.731 -22.473  0.00  0.00    -0.404 OA
BRANCH  21  25
ATOM     22  F   UNL     1      34.214 -16.741 -23.134  0.00  0.00    -0.133 F 
ATOM     23  F   UNL     1      36.275 -16.789 -22.408  0.00  0.00    -0.133 F 
ATOM     24  F   UNL     1      34.636 -17.061 -20.988  0.00  0.00    -0.133 F 
ATOM     25  C   UNL     1      35.045 -17.329 -22.248  0.00  0.00    +0.575 C 
ENDBRANCH  21  25
ENDBRANCH  20  21
ENDBRANCH  14  15
ENDBRANCH   1  14
TORSDOF 5
ENDMDL
MODEL 8
REMARK VINA RESULT:      -9.7      2.687      3.942
REMARK  Name = 456199
REMARK  5 active torsions:
REMARK  status: ('A' for Active; 'I' for Inactive)
REMARK    1  A    between atoms: O_1  and  C_5
REMARK    2  A    between atoms: O_1  and  C_14
REMARK    3  A    between atoms: C_14  and  C_15
REMARK    4  A    between atoms: C_20  and  O_21
REMARK    5  A    between atoms: O_21  and  C_25
REMARK                            x       y       z     vdW  Elec       q    Type
REMARK                         _______ _______ _______ _____ _____    ______ ____
ROOT
ATOM      1  O   UNL     1      34.643 -21.101 -20.402  0.00  0.00    -0.346 OA
ENDROOT
BRANCH   1   5
ATOM      2  O   UNL     1      33.573 -22.980 -17.416  0.00  0.00    -0.438 OA
ATOM      3  N   UNL     1      35.856 -22.334 -17.181  0.00  0.00    -0.242 N 
ATOM      4  N   UNL     1      34.910 -23.523 -15.566  0.00  0.00    -0.333 NA
ATOM      5  C   UNL     1      34.785 -22.038 -19.345  0.00  0.00    +0.179 C 
ATOM      6  C   UNL     1      35.955 -21.647 -18.448  0.00  0.00    +0.130 C 
ATOM      7  C   UNL     1      33.496 -22.073 -18.523  0.00  0.00    +0.241 C 
ATOM      8  C   UNL     1      34.716 -22.943 -16.729  0.00  0.00    +0.345 C 
ATOM      9  C   UNL     1      36.831 -22.514 -16.250  0.00  0.00    +0.181 C 
ATOM     10  C   UNL     1      36.223 -23.252 -15.258  0.00  0.00    +0.274 C 
ATOM     11  O   UNL     1      37.972 -23.453 -13.775  0.00  0.00    -0.124 OA
ATOM     12  O   UNL     1      36.048 -24.382 -13.261  0.00  0.00    -0.124 OA
ATOM     13  N   UNL     1      36.769 -23.713 -14.053  0.00  0.00    +0.085 N 
ENDBRANCH   1   5
BRANCH   1  14
ATOM     14  C   UNL     1      35.757 -20.224 -20.467  0.00  0.00    +0.169 C 
BRANCH  14  15
ATOM     15  C   UNL     1      35.479 -19.155 -21.484  0.00  0.00    +0.007 C 
ATOM     16  C   UNL     1      35.685 -17.821 -21.154  0.00  0.00    +0.001 C 
ATOM     17  C   UNL     1      35.017 -19.511 -22.746  0.00  0.00    +0.001 C 
ATOM     18  C   UNL     1      35.427 -16.828 -22.100  0.00  0.00    +0.037 C 
ATOM     19  C   UNL     1      34.759 -18.519 -23.692  0.00  0.00    +0.037 C 
ATOM     20  C   UNL     1      34.964 -17.177 -23.369  0.00  0.00    +0.147 C 
BRANCH  20  21
ATOM     21  O   UNL     1      34.711 -16.208 -24.291  0.00  0.00    -0.404 OA
BRANCH  21  25
ATOM     22  F   UNL     1      33.041 -14.731 -24.798  0.00  0.00    -0.133 F 
ATOM     23  F   UNL     1      34.820 -14.020 -23.747  0.00  0.00    -0.133 F 
ATOM     24  F   UNL     1      33.380 -15.273 -22.683  0.00  0.00    -0.133 F 
ATOM     25  C   UNL     1      33.971 -15.065 -23.879  0.00  0.00    +0.575 C 
ENDBRANCH  21  25
ENDBRANCH  20  21
ENDBRANCH  14  15
ENDBRANCH   1  14
TORSDOF 5
ENDMDL
MODEL 9
REMARK VINA RESULT:      -9.7      9.144     13.331
REMARK  Name = 456199
REMARK  5 active torsions:
REMARK  status: ('A' for Active; 'I' for Inactive)
REMARK    1  A    between atoms: O_1  and  C_5
REMARK    2  A    between atoms: O_1  and  C_14
REMARK    3  A    between atoms: C_14  and  C_15
REMARK    4  A    between atoms: C_20  and  O_21
REMARK    5  A    between atoms: O_21  and  C_25
REMARK                            x       y       z     vdW  Elec       q    Type
REMARK                         _______ _______ _______ _____ _____    ______ ____
ROOT
ATOM      1  O   UNL     1      32.260 -13.346 -22.189  0.00  0.00    -0.346 OA
ENDROOT
BRANCH   1   5
ATOM      2  O   UNL     1      31.317 -10.189 -20.537  0.00  0.00    -0.438 OA
ATOM      3  N   UNL     1      32.609  -9.719 -22.484  0.00  0.00    -0.242 N 
ATOM      4  N   UNL     1      31.913  -8.029 -21.229  0.00  0.00    -0.333 NA
ATOM      5  C   UNL     1      32.465 -12.023 -21.717  0.00  0.00    +0.179 C 
ATOM      6  C   UNL     1      32.799 -11.095 -22.881  0.00  0.00    +0.130 C 
ATOM      7  C   UNL     1      31.196 -11.533 -21.018  0.00  0.00    +0.241 C 
ATOM      8  C   UNL     1      31.899  -9.335 -21.378  0.00  0.00    +0.345 C 
ATOM      9  C   UNL     1      33.088  -8.601 -23.092  0.00  0.00    +0.181 C 
ATOM     10  C   UNL     1      32.644  -7.565 -22.299  0.00  0.00    +0.274 C 
ATOM     11  O   UNL     1      33.510  -5.772 -23.454  0.00  0.00    -0.124 OA
ATOM     12  O   UNL     1      32.354  -5.384 -21.625  0.00  0.00    -0.124 OA
ATOM     13  N   UNL     1      32.844  -6.189 -22.466  0.00  0.00    +0.085 N 
ENDBRANCH   1   5
BRANCH   1  14
ATOM     14  C   UNL     1      33.295 -13.744 -23.076  0.00  0.00    +0.169 C 
BRANCH  14  15
ATOM     15  C   UNL     1      33.973 -14.963 -22.522  0.00  0.00    +0.007 C 
ATOM     16  C   UNL     1      33.993 -15.175 -21.149  0.00  0.00    +0.001 C 
ATOM     17  C   UNL     1      34.575 -15.869 -23.388  0.00  0.00    +0.001 C 
ATOM     18  C   UNL     1      34.623 -16.308 -20.633  0.00  0.00    +0.037 C 
ATOM     19  C   UNL     1      35.205 -17.002 -22.874  0.00  0.00    +0.037 C 
ATOM     20  C   UNL     1      35.229 -17.221 -21.496  0.00  0.00    +0.147 C 
BRANCH  20  21
ATOM     21  O   UNL     1      35.843 -18.327 -20.993  0.00  0.00    -0.404 OA
BRANCH  21  25
ATOM     22  F   UNL     1      33.908 -19.437 -20.491  0.00  0.00    -0.133 F 
ATOM     23  F   UNL     1      35.822 -20.474 -20.297  0.00  0.00    -0.133 F 
ATOM     24  F   UNL     1      35.043 -20.032 -22.291  0.00  0.00    -0.133 F 
ATOM     25  C   UNL     1      35.139 -19.563 -21.028  0.00  0.00    +0.575 C 
ENDBRANCH  21  25
ENDBRANCH  20  21
ENDBRANCH  14  15
ENDBRANCH   1  14
TORSDOF 5
ENDMDL
