MODEL 1
REMARK VINA RESULT:     -11.2      0.000      0.000
REMARK  Name = 445579
REMARK  10 active torsions:
REMARK  status: ('A' for Active; 'I' for Inactive)
REMARK    1  A    between atoms: C_1  and  O_18
REMARK    2  A    between atoms: C_4  and  C_9
REMARK    3  A    between atoms: N_8  and  C_11
REMARK    4  A    between atoms: C_11  and  C_12
REMARK    5  A    between atoms: O_18  and  C_24
REMARK    6  A    between atoms: C_20  and  O_27
REMARK    7  A    between atoms: C_21  and  O_25
REMARK    8  A    between atoms: C_22  and  C_31
REMARK    9  A    between atoms: C_23  and  O_29
REMARK   10  A    between atoms: C_31  and  O_32
REMARK                            x       y       z     vdW  Elec       q    Type
REMARK                         _______ _______ _______ _____ _____    ______ ____
ROOT
ATOM      1  C   UNL     1      34.165 -23.349 -14.940  0.00  0.00    +0.142 C 
ATOM      2  C   UNL     1      34.350 -23.065 -16.290  0.00  0.00    +0.042 C 
ATOM      3  C   UNL     1      32.884 -23.429 -14.404  0.00  0.00    +0.037 C 
ATOM      4  C   UNL     1      33.241 -22.860 -17.112  0.00  0.00    +0.056 C 
ATOM      5  C   UNL     1      31.776 -23.224 -15.226  0.00  0.00    +0.003 C 
ATOM      6  C   UNL     1      31.954 -22.940 -16.580  0.00  0.00    +0.005 C 
ENDROOT
BRANCH   4   9
ATOM      7  O   UNL     1      33.770 -23.434 -19.335  0.00  0.00    -0.270 OA
ATOM      8  N   UNL     1      33.168 -21.250 -18.915  0.00  0.00    -0.297 N 
ATOM      9  C   UNL     1      33.428 -22.564 -18.524  0.00  0.00    +0.246 C 
ATOM     10  H   UNL     1      32.898 -20.596 -18.229  0.00  0.00    +0.150 HD
BRANCH   8  11
ATOM     11  C   UNL     1      33.277 -20.807 -20.287  0.00  0.00    +0.117 C 
BRANCH  11  12
ATOM     12  C   UNL     1      34.593 -20.138 -20.559  0.00  0.00    -0.003 C 
ATOM     13  C   UNL     1      34.636 -19.006 -21.365  0.00  0.00    -0.003 C 
ATOM     14  C   UNL     1      35.757 -20.657 -20.003  0.00  0.00    -0.003 C 
ATOM     15  C   UNL     1      35.859 -18.385 -21.618  0.00  0.00    -0.000 C 
ATOM     16  C   UNL     1      36.979 -20.035 -20.256  0.00  0.00    -0.000 C 
ATOM     17  C   UNL     1      37.030 -18.899 -21.063  0.00  0.00    -0.000 C 
ENDBRANCH  11  12
ENDBRANCH   8  11
ENDBRANCH   4   9
BRANCH   1  18
ATOM     18  O   UNL     1      35.253 -23.550 -14.134  0.00  0.00    -0.451 OA
BRANCH  18  24
ATOM     19  O   UNL     1      36.370 -25.625 -13.919  0.00  0.00    -0.316 OA
ATOM     20  C   UNL     1      37.939 -24.833 -12.220  0.00  0.00    +0.169 C 
ATOM     21  C   UNL     1      36.835 -23.958 -11.620  0.00  0.00    +0.173 C 
ATOM     22  C   UNL     1      37.678 -25.068 -13.714  0.00  0.00    +0.177 C 
ATOM     23  C   UNL     1      35.462 -24.550 -11.935  0.00  0.00    +0.210 C 
ATOM     24  C   UNL     1      35.310 -24.794 -13.438  0.00  0.00    +0.318 C 
BRANCH  21  25
ATOM     25  O   UNL     1      36.997 -23.870 -10.207  0.00  0.00    -0.379 OA
ATOM     26  H   UNL     1      37.927 -24.024  -9.977  0.00  0.00    +0.211 HD
ENDBRANCH  21  25
BRANCH  20  27
ATOM     27  O   UNL     1      37.964 -26.096 -11.551  0.00  0.00    -0.379 OA
ATOM     28  H   UNL     1      38.079 -25.955 -10.599  0.00  0.00    +0.211 HD
ENDBRANCH  20  27
BRANCH  23  29
ATOM     29  O   UNL     1      34.431 -23.672 -11.494  0.00  0.00    -0.377 OA
ATOM     30  H   UNL     1      33.567 -24.040 -11.737  0.00  0.00    +0.211 HD
ENDBRANCH  23  29
BRANCH  22  31
ATOM     31  C   UNL     1      38.681 -26.032 -14.335  0.00  0.00    +0.169 C 
BRANCH  31  32
ATOM     32  O   UNL     1      38.143 -27.341 -14.282  0.00  0.00    -0.379 OA
ATOM     33  H   UNL     1      37.949 -27.648 -15.180  0.00  0.00    +0.211 HD
ENDBRANCH  31  32
ENDBRANCH  22  31
ENDBRANCH  18  24
ENDBRANCH   1  18
TORSDOF 10
ENDMDL
MODEL 2
REMARK VINA RESULT:     -11.1      1.178      2.512
REMARK  Name = 445579
REMARK  10 active torsions:
REMARK  status: ('A' for Active; 'I' for Inactive)
REMARK    1  A    between atoms: C_1  and  O_18
REMARK    2  A    between atoms: C_4  and  C_9
REMARK    3  A    between atoms: N_8  and  C_11
REMARK    4  A    between atoms: C_11  and  C_12
REMARK    5  A    between atoms: O_18  and  C_24
REMARK    6  A    between atoms: C_20  and  O_27
REMARK    7  A    between atoms: C_21  and  O_25
REMARK    8  A    between atoms: C_22  and  C_31
REMARK    9  A    between atoms: C_23  and  O_29
REMARK   10  A    between atoms: C_31  and  O_32
REMARK                            x       y       z     vdW  Elec       q    Type
REMARK                         _______ _______ _______ _____ _____    ______ ____
ROOT
ATOM      1  C   UNL     1      34.285 -23.860 -14.958  0.00  0.00    +0.142 C 
ATOM      2  C   UNL     1      34.414 -23.530 -16.304  0.00  0.00    +0.042 C 
ATOM      3  C   UNL     1      33.051 -23.763 -14.323  0.00  0.00    +0.037 C 
ATOM      4  C   UNL     1      33.298 -23.097 -17.021  0.00  0.00    +0.056 C 
ATOM      5  C   UNL     1      31.935 -23.332 -15.041  0.00  0.00    +0.003 C 
ATOM      6  C   UNL     1      32.059 -22.999 -16.389  0.00  0.00    +0.005 C 
ENDROOT
BRANCH   4   9
ATOM      7  O   UNL     1      33.712 -23.597 -19.287  0.00  0.00    -0.270 OA
ATOM      8  N   UNL     1      33.181 -21.417 -18.757  0.00  0.00    -0.297 N 
ATOM      9  C   UNL     1      33.428 -22.751 -18.428  0.00  0.00    +0.246 C 
ATOM     10  H   UNL     1      32.958 -20.785 -18.035  0.00  0.00    +0.150 HD
BRANCH   8  11
ATOM     11  C   UNL     1      33.239 -20.925 -20.115  0.00  0.00    +0.117 C 
BRANCH  11  12
ATOM     12  C   UNL     1      34.550 -20.260 -20.417  0.00  0.00    -0.003 C 
ATOM     13  C   UNL     1      35.727 -20.796 -19.905  0.00  0.00    -0.003 C 
ATOM     14  C   UNL     1      34.576 -19.115 -21.206  0.00  0.00    -0.003 C 
ATOM     15  C   UNL     1      36.946 -20.178 -20.185  0.00  0.00    -0.000 C 
ATOM     16  C   UNL     1      35.795 -18.499 -21.486  0.00  0.00    -0.000 C 
ATOM     17  C   UNL     1      36.980 -19.030 -20.976  0.00  0.00    -0.000 C 
ENDBRANCH  11  12
ENDBRANCH   8  11
ENDBRANCH   4   9
BRANCH   1  18
ATOM     18  O   UNL     1      35.379 -24.284 -14.255  0.00  0.00    -0.451 OA
BRANCH  18  24
ATOM     19  O   UNL     1      36.043 -23.121 -12.304  0.00  0.00    -0.316 OA
ATOM     20  C   UNL     1      37.879 -24.646 -11.776  0.00  0.00    +0.169 C 
ATOM     21  C   UNL     1      38.164 -24.809 -13.273  0.00  0.00    +0.173 C 
ATOM     22  C   UNL     1      36.404 -24.291 -11.551  0.00  0.00    +0.177 C 
ATOM     23  C   UNL     1      37.688 -23.574 -14.037  0.00  0.00    +0.210 C 
ATOM     24  C   UNL     1      36.224 -23.269 -13.715  0.00  0.00    +0.318 C 
BRANCH  21  25
ATOM     25  O   UNL     1      39.561 -24.986 -13.486  0.00  0.00    -0.379 OA
ATOM     26  H   UNL     1      39.811 -25.895 -13.256  0.00  0.00    +0.211 HD
ENDBRANCH  21  25
BRANCH  20  27
ATOM     27  O   UNL     1      38.694 -23.597 -11.246  0.00  0.00    -0.379 OA
ATOM     28  H   UNL     1      39.280 -23.261 -11.942  0.00  0.00    +0.211 HD
ENDBRANCH  20  27
BRANCH  23  29
ATOM     29  O   UNL     1      37.829 -23.776 -15.440  0.00  0.00    -0.377 OA
ATOM     30  H   UNL     1      37.818 -22.918 -15.893  0.00  0.00    +0.211 HD
ENDBRANCH  23  29
BRANCH  22  31
ATOM     31  C   UNL     1      36.093 -23.999 -10.088  0.00  0.00    +0.169 C 
BRANCH  31  32
ATOM     32  O   UNL     1      35.347 -25.081  -9.559  0.00  0.00    -0.379 OA
ATOM     33  H   UNL     1      34.423 -24.811  -9.446  0.00  0.00    +0.211 HD
ENDBRANCH  31  32
ENDBRANCH  22  31
ENDBRANCH  18  24
ENDBRANCH   1  18
TORSDOF 10
ENDMDL
MODEL 3
REMARK VINA RESULT:     -11.0      1.683      3.002
REMARK  Name = 445579
REMARK  10 active torsions:
REMARK  status: ('A' for Active; 'I' for Inactive)
REMARK    1  A    between atoms: C_1  and  O_18
REMARK    2  A    between atoms: C_4  and  C_9
REMARK    3  A    between atoms: N_8  and  C_11
REMARK    4  A    between atoms: C_11  and  C_12
REMARK    5  A    between atoms: O_18  and  C_24
REMARK    6  A    between atoms: C_20  and  O_27
REMARK    7  A    between atoms: C_21  and  O_25
REMARK    8  A    between atoms: C_22  and  C_31
REMARK    9  A    between atoms: C_23  and  O_29
REMARK   10  A    between atoms: C_31  and  O_32
REMARK                            x       y       z     vdW  Elec       q    Type
REMARK                         _______ _______ _______ _____ _____    ______ ____
ROOT
ATOM      1  C   UNL     1      33.318 -24.625 -13.872  0.00  0.00    +0.142 C 
ATOM      2  C   UNL     1      33.098 -23.896 -15.037  0.00  0.00    +0.042 C 
ATOM      3  C   UNL     1      32.255 -24.972 -13.044  0.00  0.00    +0.037 C 
ATOM      4  C   UNL     1      31.801 -23.509 -15.375  0.00  0.00    +0.056 C 
ATOM      5  C   UNL     1      30.959 -24.586 -13.384  0.00  0.00    +0.003 C 
ATOM      6  C   UNL     1      30.731 -23.855 -14.549  0.00  0.00    +0.005 C 
ENDROOT
BRANCH   4   9
ATOM      7  O   UNL     1      30.463 -22.237 -16.841  0.00  0.00    -0.270 OA
ATOM      8  N   UNL     1      32.658 -22.599 -17.446  0.00  0.00    -0.297 N 
ATOM      9  C   UNL     1      31.564 -22.748 -16.592  0.00  0.00    +0.246 C 
ATOM     10  H   UNL     1      33.512 -23.025 -17.199  0.00  0.00    +0.150 HD
BRANCH   8  11
ATOM     11  C   UNL     1      32.591 -21.844 -18.676  0.00  0.00    +0.117 C 
BRANCH  11  12
ATOM     12  C   UNL     1      33.953 -21.444 -19.166  0.00  0.00    -0.003 C 
ATOM     13  C   UNL     1      35.084 -22.019 -18.597  0.00  0.00    -0.003 C 
ATOM     14  C   UNL     1      34.070 -20.503 -20.182  0.00  0.00    -0.003 C 
ATOM     15  C   UNL     1      36.350 -21.647 -19.051  0.00  0.00    -0.000 C 
ATOM     16  C   UNL     1      35.336 -20.132 -20.636  0.00  0.00    -0.000 C 
ATOM     17  C   UNL     1      36.475 -20.704 -20.071  0.00  0.00    -0.000 C 
ENDBRANCH  11  12
ENDBRANCH   8  11
ENDBRANCH   4   9
BRANCH   1  18
ATOM     18  O   UNL     1      34.590 -25.004 -13.539  0.00  0.00    -0.451 OA
BRANCH  18  24
ATOM     19  O   UNL     1      36.363 -23.437 -13.516  0.00  0.00    -0.316 OA
ATOM     20  C   UNL     1      38.049 -25.051 -12.793  0.00  0.00    +0.169 C 
ATOM     21  C   UNL     1      37.368 -26.130 -13.640  0.00  0.00    +0.173 C 
ATOM     22  C   UNL     1      37.030 -23.985 -12.369  0.00  0.00    +0.177 C 
ATOM     23  C   UNL     1      36.605 -25.489 -14.799  0.00  0.00    +0.210 C 
ATOM     24  C   UNL     1      35.650 -24.409 -14.285  0.00  0.00    +0.318 C 
BRANCH  21  25
ATOM     25  O   UNL     1      38.342 -27.031 -14.158  0.00  0.00    -0.379 OA
ATOM     26  H   UNL     1      38.665 -26.702 -15.012  0.00  0.00    +0.211 HD
ENDBRANCH  21  25
BRANCH  20  27
ATOM     27  O   UNL     1      39.081 -24.424 -13.559  0.00  0.00    -0.379 OA
ATOM     28  H   UNL     1      39.156 -24.863 -14.421  0.00  0.00    +0.211 HD
ENDBRANCH  20  27
BRANCH  23  29
ATOM     29  O   UNL     1      35.863 -26.475 -15.508  0.00  0.00    -0.377 OA
ATOM     30  H   UNL     1      36.276 -26.631 -16.372  0.00  0.00    +0.211 HD
ENDBRANCH  23  29
BRANCH  22  31
ATOM     31  C   UNL     1      37.679 -22.824 -11.626  0.00  0.00    +0.169 C 
BRANCH  31  32
ATOM     32  O   UNL     1      38.935 -23.250 -11.129  0.00  0.00    -0.379 OA
ATOM     33  H   UNL     1      39.597 -22.560 -11.289  0.00  0.00    +0.211 HD
ENDBRANCH  31  32
ENDBRANCH  22  31
ENDBRANCH  18  24
ENDBRANCH   1  18
TORSDOF 10
ENDMDL
MODEL 4
REMARK VINA RESULT:     -10.8     10.190     14.532
REMARK  Name = 445579
REMARK  10 active torsions:
REMARK  status: ('A' for Active; 'I' for Inactive)
REMARK    1  A    between atoms: C_1  and  O_18
REMARK    2  A    between atoms: C_4  and  C_9
REMARK    3  A    between atoms: N_8  and  C_11
REMARK    4  A    between atoms: C_11  and  C_12
REMARK    5  A    between atoms: O_18  and  C_24
REMARK    6  A    between atoms: C_20  and  O_27
REMARK    7  A    between atoms: C_21  and  O_25
REMARK    8  A    between atoms: C_22  and  C_31
REMARK    9  A    between atoms: C_23  and  O_29
REMARK   10  A    between atoms: C_31  and  O_32
REMARK                            x       y       z     vdW  Elec       q    Type
REMARK                         _______ _______ _______ _____ _____    ______ ____
ROOT
ATOM      1  C   UNL     1      32.220 -11.975 -21.664  0.00  0.00    +0.142 C 
ATOM      2  C   UNL     1      32.216 -10.609 -21.929  0.00  0.00    +0.042 C 
ATOM      3  C   UNL     1      31.846 -12.453 -20.412  0.00  0.00    +0.037 C 
ATOM      4  C   UNL     1      31.835  -9.712 -20.931  0.00  0.00    +0.056 C 
ATOM      5  C   UNL     1      31.465 -11.555 -19.415  0.00  0.00    +0.003 C 
ATOM      6  C   UNL     1      31.459 -10.185 -19.674  0.00  0.00    +0.005 C 
ENDROOT
BRANCH   4   9
ATOM      7  O   UNL     1      31.924  -7.443 -20.297  0.00  0.00    -0.270 OA
ATOM      8  N   UNL     1      31.740  -7.913 -22.546  0.00  0.00    -0.297 N 
ATOM      9  C   UNL     1      31.828  -8.283 -21.203  0.00  0.00    +0.246 C 
ATOM     10  H   UNL     1      31.666  -8.622 -23.228  0.00  0.00    +0.150 HD
BRANCH   8  11
ATOM     11  C   UNL     1      31.753  -6.535 -22.980  0.00  0.00    +0.117 C 
BRANCH  11  12
ATOM     12  C   UNL     1      32.953  -6.223 -23.826  0.00  0.00    -0.003 C 
ATOM     13  C   UNL     1      32.810  -5.425 -24.956  0.00  0.00    -0.003 C 
ATOM     14  C   UNL     1      34.197  -6.734 -23.472  0.00  0.00    -0.003 C 
ATOM     15  C   UNL     1      33.925  -5.136 -25.742  0.00  0.00    -0.000 C 
ATOM     16  C   UNL     1      35.311  -6.444 -24.258  0.00  0.00    -0.000 C 
ATOM     17  C   UNL     1      35.176  -5.645 -25.393  0.00  0.00    -0.000 C 
ENDBRANCH  11  12
ENDBRANCH   8  11
ENDBRANCH   4   9
BRANCH   1  18
ATOM     18  O   UNL     1      32.594 -12.855 -22.643  0.00  0.00    -0.451 OA
BRANCH  18  24
ATOM     19  O   UNL     1      34.593 -13.915 -21.948  0.00  0.00    -0.316 OA
ATOM     20  C   UNL     1      34.354 -15.812 -23.470  0.00  0.00    +0.169 C 
ATOM     21  C   UNL     1      33.755 -14.879 -24.527  0.00  0.00    +0.173 C 
ATOM     22  C   UNL     1      34.095 -15.258 -22.063  0.00  0.00    +0.177 C 
ATOM     23  C   UNL     1      34.252 -13.450 -24.311  0.00  0.00    +0.210 C 
ATOM     24  C   UNL     1      33.995 -13.001 -22.871  0.00  0.00    +0.318 C 
BRANCH  21  25
ATOM     25  O   UNL     1      34.129 -15.315 -25.830  0.00  0.00    -0.379 OA
ATOM     26  H   UNL     1      34.471 -16.222 -25.783  0.00  0.00    +0.211 HD
ENDBRANCH  21  25
BRANCH  20  27
ATOM     27  O   UNL     1      35.765 -15.920 -23.673  0.00  0.00    -0.379 OA
ATOM     28  H   UNL     1      36.217 -15.910 -22.814  0.00  0.00    +0.211 HD
ENDBRANCH  20  27
BRANCH  23  29
ATOM     29  O   UNL     1      33.595 -12.558 -25.206  0.00  0.00    -0.377 OA
ATOM     30  H   UNL     1      32.655 -12.498 -24.972  0.00  0.00    +0.211 HD
ENDBRANCH  23  29
BRANCH  22  31
ATOM     31  C   UNL     1      34.775 -16.085 -20.979  0.00  0.00    +0.169 C 
BRANCH  31  32
ATOM     32  O   UNL     1      34.987 -17.395 -21.475  0.00  0.00    -0.379 OA
ATOM     33  H   UNL     1      35.929 -17.521 -21.665  0.00  0.00    +0.211 HD
ENDBRANCH  31  32
ENDBRANCH  22  31
ENDBRANCH  18  24
ENDBRANCH   1  18
TORSDOF 10
ENDMDL
MODEL 5
REMARK VINA RESULT:     -10.7      1.865      2.414
REMARK  Name = 445579
REMARK  10 active torsions:
REMARK  status: ('A' for Active; 'I' for Inactive)
REMARK    1  A    between atoms: C_1  and  O_18
REMARK    2  A    between atoms: C_4  and  C_9
REMARK    3  A    between atoms: N_8  and  C_11
REMARK    4  A    between atoms: C_11  and  C_12
REMARK    5  A    between atoms: O_18  and  C_24
REMARK    6  A    between atoms: C_20  and  O_27
REMARK    7  A    between atoms: C_21  and  O_25
REMARK    8  A    between atoms: C_22  and  C_31
REMARK    9  A    between atoms: C_23  and  O_29
REMARK   10  A    between atoms: C_31  and  O_32
REMARK                            x       y       z     vdW  Elec       q    Type
REMARK                         _______ _______ _______ _____ _____    ______ ____
ROOT
ATOM      1  C   UNL     1      32.801 -24.104 -13.339  0.00  0.00    +0.142 C 
ATOM      2  C   UNL     1      32.650 -23.342 -14.493  0.00  0.00    +0.042 C 
ATOM      3  C   UNL     1      31.889 -25.108 -13.030  0.00  0.00    +0.037 C 
ATOM      4  C   UNL     1      31.573 -23.586 -15.347  0.00  0.00    +0.056 C 
ATOM      5  C   UNL     1      30.813 -25.351 -13.884  0.00  0.00    +0.003 C 
ATOM      6  C   UNL     1      30.656 -24.591 -15.042  0.00  0.00    +0.005 C 
ENDROOT
BRANCH   4   9
ATOM      7  O   UNL     1      30.353 -22.200 -16.812  0.00  0.00    -0.270 OA
ATOM      8  N   UNL     1      32.524 -22.713 -17.392  0.00  0.00    -0.297 N 
ATOM      9  C   UNL     1      31.410 -22.793 -16.555  0.00  0.00    +0.246 C 
ATOM     10  H   UNL     1      33.341 -23.203 -17.141  0.00  0.00    +0.150 HD
BRANCH   8  11
ATOM     11  C   UNL     1      32.530 -21.938 -18.613  0.00  0.00    +0.117 C 
BRANCH  11  12
ATOM     12  C   UNL     1      33.920 -21.558 -19.031  0.00  0.00    -0.003 C 
ATOM     13  C   UNL     1      34.102 -20.662 -20.079  0.00  0.00    -0.003 C 
ATOM     14  C   UNL     1      35.013 -22.105 -18.367  0.00  0.00    -0.003 C 
ATOM     15  C   UNL     1      35.395 -20.309 -20.468  0.00  0.00    -0.000 C 
ATOM     16  C   UNL     1      36.304 -21.750 -18.756  0.00  0.00    -0.000 C 
ATOM     17  C   UNL     1      36.495 -20.853 -19.806  0.00  0.00    -0.000 C 
ENDBRANCH  11  12
ENDBRANCH   8  11
ENDBRANCH   4   9
BRANCH   1  18
ATOM     18  O   UNL     1      33.857 -23.864 -12.501  0.00  0.00    -0.451 OA
BRANCH  18  24
ATOM     19  O   UNL     1      35.641 -24.754 -13.776  0.00  0.00    -0.316 OA
ATOM     20  C   UNL     1      37.309 -23.197 -12.902  0.00  0.00    +0.169 C 
ATOM     21  C   UNL     1      36.626 -23.246 -11.532  0.00  0.00    +0.173 C 
ATOM     22  C   UNL     1      36.294 -23.498 -14.013  0.00  0.00    +0.177 C 
ATOM     23  C   UNL     1      35.879 -24.569 -11.362  0.00  0.00    +0.210 C 
ATOM     24  C   UNL     1      34.928 -24.806 -12.537  0.00  0.00    +0.318 C 
BRANCH  21  25
ATOM     25  O   UNL     1      37.599 -23.119 -10.498  0.00  0.00    -0.379 OA
ATOM     26  H   UNL     1      38.397 -23.614 -10.741  0.00  0.00    +0.211 HD
ENDBRANCH  21  25
BRANCH  20  27
ATOM     27  O   UNL     1      38.352 -24.173 -12.952  0.00  0.00    -0.379 OA
ATOM     28  H   UNL     1      38.886 -24.036 -13.750  0.00  0.00    +0.211 HD
ENDBRANCH  20  27
BRANCH  23  29
ATOM     29  O   UNL     1      35.135 -24.564 -10.148  0.00  0.00    -0.377 OA
ATOM     30  H   UNL     1      35.498 -23.893  -9.549  0.00  0.00    +0.211 HD
ENDBRANCH  23  29
BRANCH  22  31
ATOM     31  C   UNL     1      36.946 -23.580 -15.388  0.00  0.00    +0.169 C 
BRANCH  31  32
ATOM     32  O   UNL     1      38.169 -22.866 -15.353  0.00  0.00    -0.379 OA
ATOM     33  H   UNL     1      38.026 -21.999 -14.946  0.00  0.00    +0.211 HD
ENDBRANCH  31  32
ENDBRANCH  22  31
ENDBRANCH  18  24
ENDBRANCH   1  18
TORSDOF 10
ENDMDL
MODEL 6
REMARK VINA RESULT:     -10.7      2.346      3.900
REMARK  Name = 445579
REMARK  10 active torsions:
REMARK  status: ('A' for Active; 'I' for Inactive)
REMARK    1  A    between atoms: C_1  and  O_18
REMARK    2  A    between atoms: C_4  and  C_9
REMARK    3  A    between atoms: N_8  and  C_11
REMARK    4  A    between atoms: C_11  and  C_12
REMARK    5  A    between atoms: O_18  and  C_24
REMARK    6  A    between atoms: C_20  and  O_27
REMARK    7  A    between atoms: C_21  and  O_25
REMARK    8  A    between atoms: C_22  and  C_31
REMARK    9  A    between atoms: C_23  and  O_29
REMARK   10  A    between atoms: C_31  and  O_32
REMARK                            x       y       z     vdW  Elec       q    Type
REMARK                         _______ _______ _______ _____ _____    ______ ____
ROOT
ATOM      1  C   UNL     1      34.967 -22.555 -17.621  0.00  0.00    +0.142 C 
ATOM      2  C   UNL     1      35.703 -21.745 -18.481  0.00  0.00    +0.042 C 
ATOM      3  C   UNL     1      33.586 -22.658 -17.757  0.00  0.00    +0.037 C 
ATOM      4  C   UNL     1      35.051 -21.031 -19.487  0.00  0.00    +0.056 C 
ATOM      5  C   UNL     1      32.935 -21.945 -18.763  0.00  0.00    +0.003 C 
ATOM      6  C   UNL     1      33.667 -21.131 -19.628  0.00  0.00    +0.005 C 
ENDROOT
BRANCH   4   9
ATOM      7  O   UNL     1      37.008 -19.919 -20.186  0.00  0.00    -0.270 OA
ATOM      8  N   UNL     1      35.134 -19.712 -21.512  0.00  0.00    -0.297 N 
ATOM      9  C   UNL     1      35.815 -20.183 -20.389  0.00  0.00    +0.246 C 
ATOM     10  H   UNL     1      34.185 -19.953 -21.626  0.00  0.00    +0.150 HD
BRANCH   8  11
ATOM     11  C   UNL     1      35.764 -18.886 -22.517  0.00  0.00    +0.117 C 
BRANCH  11  12
ATOM     12  C   UNL     1      35.205 -17.493 -22.532  0.00  0.00    -0.003 C 
ATOM     13  C   UNL     1      34.920 -16.879 -23.746  0.00  0.00    -0.003 C 
ATOM     14  C   UNL     1      34.978 -16.830 -21.331  0.00  0.00    -0.003 C 
ATOM     15  C   UNL     1      34.401 -15.584 -23.760  0.00  0.00    -0.000 C 
ATOM     16  C   UNL     1      34.458 -15.536 -21.345  0.00  0.00    -0.000 C 
ATOM     17  C   UNL     1      34.170 -14.913 -22.559  0.00  0.00    -0.000 C 
ENDBRANCH  11  12
ENDBRANCH   8  11
ENDBRANCH   4   9
BRANCH   1  18
ATOM     18  O   UNL     1      35.607 -23.255 -16.635  0.00  0.00    -0.451 OA
BRANCH  18  24
ATOM     19  O   UNL     1      35.225 -22.730 -14.359  0.00  0.00    -0.316 OA
ATOM     20  C   UNL     1      36.670 -24.503 -13.499  0.00  0.00    +0.169 C 
ATOM     21  C   UNL     1      37.629 -24.280 -14.672  0.00  0.00    +0.173 C 
ATOM     22  C   UNL     1      35.246 -24.087 -13.889  0.00  0.00    +0.177 C 
ATOM     23  C   UNL     1      37.509 -22.846 -15.187  0.00  0.00    +0.210 C 
ATOM     24  C   UNL     1      36.051 -22.507 -15.505  0.00  0.00    +0.318 C 
BRANCH  21  25
ATOM     25  O   UNL     1      38.971 -24.521 -14.258  0.00  0.00    -0.379 OA
ATOM     26  H   UNL     1      39.219 -23.878 -13.575  0.00  0.00    +0.211 HD
ENDBRANCH  21  25
BRANCH  20  27
ATOM     27  O   UNL     1      37.092 -23.716 -12.382  0.00  0.00    -0.379 OA
ATOM     28  H   UNL     1      37.946 -24.044 -12.059  0.00  0.00    +0.211 HD
ENDBRANCH  20  27
BRANCH  23  29
ATOM     29  O   UNL     1      38.299 -22.674 -16.359  0.00  0.00    -0.377 OA
ATOM     30  H   UNL     1      39.209 -22.452 -16.106  0.00  0.00    +0.211 HD
ENDBRANCH  23  29
BRANCH  22  31
ATOM     31  C   UNL     1      34.274 -24.175 -12.719  0.00  0.00    +0.169 C 
BRANCH  31  32
ATOM     32  O   UNL     1      34.793 -25.085 -11.766  0.00  0.00    -0.379 OA
ATOM     33  H   UNL     1      34.077 -25.397 -11.192  0.00  0.00    +0.211 HD
ENDBRANCH  31  32
ENDBRANCH  22  31
ENDBRANCH  18  24
ENDBRANCH   1  18
TORSDOF 10
ENDMDL
MODEL 7
REMARK VINA RESULT:     -10.5      1.673      2.407
REMARK  Name = 445579
REMARK  10 active torsions:
REMARK  status: ('A' for Active; 'I' for Inactive)
REMARK    1  A    between atoms: C_1  and  O_18
REMARK    2  A    between atoms: C_4  and  C_9
REMARK    3  A    between atoms: N_8  and  C_11
REMARK    4  A    between atoms: C_11  and  C_12
REMARK    5  A    between atoms: O_18  and  C_24
REMARK    6  A    between atoms: C_20  and  O_27
REMARK    7  A    between atoms: C_21  and  O_25
REMARK    8  A    between atoms: C_22  and  C_31
REMARK    9  A    between atoms: C_23  and  O_29
REMARK   10  A    between atoms: C_31  and  O_32
REMARK                            x       y       z     vdW  Elec       q    Type
REMARK                         _______ _______ _______ _____ _____    ______ ____
ROOT
ATOM      1  C   UNL     1      36.153 -22.635 -15.288  0.00  0.00    +0.142 C 
ATOM      2  C   UNL     1      35.243 -22.546 -16.338  0.00  0.00    +0.042 C 
ATOM      3  C   UNL     1      37.483 -22.271 -15.474  0.00  0.00    +0.037 C 
ATOM      4  C   UNL     1      35.669 -22.091 -17.586  0.00  0.00    +0.056 C 
ATOM      5  C   UNL     1      37.908 -21.815 -16.721  0.00  0.00    +0.003 C 
ATOM      6  C   UNL     1      37.001 -21.725 -17.777  0.00  0.00    +0.005 C 
ENDROOT
BRANCH   4   9
ATOM      7  O   UNL     1      33.811 -22.820 -18.838  0.00  0.00    -0.270 OA
ATOM      8  N   UNL     1      34.883 -20.904 -19.541  0.00  0.00    -0.297 N 
ATOM      9  C   UNL     1      34.723 -21.996 -18.686  0.00  0.00    +0.246 C 
ATOM     10  H   UNL     1      35.625 -20.278 -19.374  0.00  0.00    +0.150 HD
BRANCH   8  11
ATOM     11  C   UNL     1      34.004 -20.654 -20.661  0.00  0.00    +0.117 C 
BRANCH  11  12
ATOM     12  C   UNL     1      34.496 -19.527 -21.521  0.00  0.00    -0.003 C 
ATOM     13  C   UNL     1      34.504 -19.671 -22.904  0.00  0.00    -0.003 C 
ATOM     14  C   UNL     1      34.940 -18.351 -20.928  0.00  0.00    -0.003 C 
ATOM     15  C   UNL     1      34.963 -18.623 -23.704  0.00  0.00    -0.000 C 
ATOM     16  C   UNL     1      35.397 -17.304 -21.728  0.00  0.00    -0.000 C 
ATOM     17  C   UNL     1      35.409 -17.440 -23.116  0.00  0.00    -0.000 C 
ENDBRANCH  11  12
ENDBRANCH   8  11
ENDBRANCH   4   9
BRANCH   1  18
ATOM     18  O   UNL     1      35.736 -23.081 -14.064  0.00  0.00    -0.451 OA
BRANCH  18  24
ATOM     19  O   UNL     1      36.604 -25.278 -14.204  0.00  0.00    -0.316 OA
ATOM     20  C   UNL     1      37.177 -25.420 -11.833  0.00  0.00    +0.169 C 
ATOM     21  C   UNL     1      35.924 -24.608 -11.489  0.00  0.00    +0.173 C 
ATOM     22  C   UNL     1      37.659 -25.081 -13.249  0.00  0.00    +0.177 C 
ATOM     23  C   UNL     1      34.865 -24.788 -12.576  0.00  0.00    +0.210 C 
ATOM     24  C   UNL     1      35.448 -24.474 -13.956  0.00  0.00    +0.318 C 
BRANCH  21  25
ATOM     25  O   UNL     1      35.393 -25.036 -10.239  0.00  0.00    -0.379 OA
ATOM     26  H   UNL     1      35.551 -25.987 -10.128  0.00  0.00    +0.211 HD
ENDBRANCH  21  25
BRANCH  20  27
ATOM     27  O   UNL     1      36.874 -26.815 -11.768  0.00  0.00    -0.379 OA
ATOM     28  H   UNL     1      37.533 -27.313 -12.278  0.00  0.00    +0.211 HD
ENDBRANCH  20  27
BRANCH  23  29
ATOM     29  O   UNL     1      33.753 -23.933 -12.330  0.00  0.00    -0.377 OA
ATOM     30  H   UNL     1      33.492 -23.495 -13.156  0.00  0.00    +0.211 HD
ENDBRANCH  23  29
BRANCH  22  31
ATOM     31  C   UNL     1      38.833 -25.949 -13.687  0.00  0.00    +0.169 C 
BRANCH  31  32
ATOM     32  O   UNL     1      38.326 -27.159 -14.221  0.00  0.00    -0.379 OA
ATOM     33  H   UNL     1      38.987 -27.860 -14.117  0.00  0.00    +0.211 HD
ENDBRANCH  31  32
ENDBRANCH  22  31
ENDBRANCH  18  24
ENDBRANCH   1  18
TORSDOF 10
ENDMDL
MODEL 8
REMARK VINA RESULT:     -10.3      1.757      2.632
REMARK  Name = 445579
REMARK  10 active torsions:
REMARK  status: ('A' for Active; 'I' for Inactive)
REMARK    1  A    between atoms: C_1  and  O_18
REMARK    2  A    between atoms: C_4  and  C_9
REMARK    3  A    between atoms: N_8  and  C_11
REMARK    4  A    between atoms: C_11  and  C_12
REMARK    5  A    between atoms: O_18  and  C_24
REMARK    6  A    between atoms: C_20  and  O_27
REMARK    7  A    between atoms: C_21  and  O_25
REMARK    8  A    between atoms: C_22  and  C_31
REMARK    9  A    between atoms: C_23  and  O_29
REMARK   10  A    between atoms: C_31  and  O_32
REMARK                            x       y       z     vdW  Elec       q    Type
REMARK                         _______ _______ _______ _____ _____    ______ ____
ROOT
ATOM      1  C   UNL     1      35.019 -22.731 -16.678  0.00  0.00    +0.142 C 
ATOM      2  C   UNL     1      35.774 -22.073 -17.644  0.00  0.00    +0.042 C 
ATOM      3  C   UNL     1      33.663 -22.970 -16.883  0.00  0.00    +0.037 C 
ATOM      4  C   UNL     1      35.168 -21.649 -18.827  0.00  0.00    +0.056 C 
ATOM      5  C   UNL     1      33.058 -22.547 -18.066  0.00  0.00    +0.003 C 
ATOM      6  C   UNL     1      33.810 -21.887 -19.038  0.00  0.00    +0.005 C 
ENDROOT
BRANCH   4   9
ATOM      7  O   UNL     1      37.190 -21.022 -19.862  0.00  0.00    -0.270 OA
ATOM      8  N   UNL     1      35.230 -20.257 -20.804  0.00  0.00    -0.297 N 
ATOM      9  C   UNL     1      35.953 -20.962 -19.840  0.00  0.00    +0.246 C 
ATOM     10  H   UNL     1      34.246 -20.242 -20.740  0.00  0.00    +0.150 HD
BRANCH   8  11
ATOM     11  C   UNL     1      35.863 -19.550 -21.893  0.00  0.00    +0.117 C 
BRANCH  11  12
ATOM     12  C   UNL     1      35.362 -18.140 -22.015  0.00  0.00    -0.003 C 
ATOM     13  C   UNL     1      35.197 -17.576 -23.275  0.00  0.00    -0.003 C 
ATOM     14  C   UNL     1      35.067 -17.412 -20.868  0.00  0.00    -0.003 C 
ATOM     15  C   UNL     1      34.731 -16.266 -23.389  0.00  0.00    -0.000 C 
ATOM     16  C   UNL     1      34.601 -16.103 -20.982  0.00  0.00    -0.000 C 
ATOM     17  C   UNL     1      34.433 -15.530 -22.243  0.00  0.00    -0.000 C 
ENDBRANCH  11  12
ENDBRANCH   8  11
ENDBRANCH   4   9
BRANCH   1  18
ATOM     18  O   UNL     1      35.613 -23.146 -15.518  0.00  0.00    -0.451 OA
BRANCH  18  24
ATOM     19  O   UNL     1      36.363 -25.338 -15.035  0.00  0.00    -0.316 OA
ATOM     20  C   UNL     1      36.909 -24.856 -12.702  0.00  0.00    +0.169 C 
ATOM     21  C   UNL     1      35.699 -23.920 -12.621  0.00  0.00    +0.173 C 
ATOM     22  C   UNL     1      37.419 -24.940 -14.147  0.00  0.00    +0.177 C 
ATOM     23  C   UNL     1      34.640 -24.337 -13.642  0.00  0.00    +0.210 C 
ATOM     24  C   UNL     1      35.250 -24.441 -15.041  0.00  0.00    +0.318 C 
BRANCH  21  25
ATOM     25  O   UNL     1      35.135 -23.963 -11.314  0.00  0.00    -0.379 OA
ATOM     26  H   UNL     1      35.790 -23.653 -10.668  0.00  0.00    +0.211 HD
ENDBRANCH  21  25
BRANCH  20  27
ATOM     27  O   UNL     1      36.530 -26.164 -12.268  0.00  0.00    -0.379 OA
ATOM     28  H   UNL     1      37.033 -26.827 -12.765  0.00  0.00    +0.211 HD
ENDBRANCH  20  27
BRANCH  23  29
ATOM     29  O   UNL     1      33.574 -23.392 -13.662  0.00  0.00    -0.377 OA
ATOM     30  H   UNL     1      32.767 -23.809 -13.321  0.00  0.00    +0.211 HD
ENDBRANCH  23  29
BRANCH  22  31
ATOM     31  C   UNL     1      38.548 -25.952 -14.305  0.00  0.00    +0.169 C 
BRANCH  31  32
ATOM     32  O   UNL     1      37.984 -27.249 -14.390  0.00  0.00    -0.379 OA
ATOM     33  H   UNL     1      38.659 -27.910 -14.171  0.00  0.00    +0.211 HD
ENDBRANCH  31  32
ENDBRANCH  22  31
ENDBRANCH  18  24
ENDBRANCH   1  18
TORSDOF 10
ENDMDL
MODEL 9
REMARK VINA RESULT:      -9.8      2.862      5.604
REMARK  Name = 445579
REMARK  10 active torsions:
REMARK  status: ('A' for Active; 'I' for Inactive)
REMARK    1  A    between atoms: C_1  and  O_18
REMARK    2  A    between atoms: C_4  and  C_9
REMARK    3  A    between atoms: N_8  and  C_11
REMARK    4  A    between atoms: C_11  and  C_12
REMARK    5  A    between atoms: O_18  and  C_24
REMARK    6  A    between atoms: C_20  and  O_27
REMARK    7  A    between atoms: C_21  and  O_25
REMARK    8  A    between atoms: C_22  and  C_31
REMARK    9  A    between atoms: C_23  and  O_29
REMARK   10  A    between atoms: C_31  and  O_32
REMARK                            x       y       z     vdW  Elec       q    Type
REMARK                         _______ _______ _______ _____ _____    ______ ____
ROOT
ATOM      1  C   UNL     1      34.138 -24.234 -13.703  0.00  0.00    +0.142 C 
ATOM      2  C   UNL     1      34.779 -23.719 -14.826  0.00  0.00    +0.042 C 
ATOM      3  C   UNL     1      34.788 -24.270 -12.473  0.00  0.00    +0.037 C 
ATOM      4  C   UNL     1      36.084 -23.237 -14.717  0.00  0.00    +0.056 C 
ATOM      5  C   UNL     1      36.092 -23.787 -12.365  0.00  0.00    +0.003 C 
ATOM      6  C   UNL     1      36.740 -23.271 -13.487  0.00  0.00    +0.005 C 
ENDROOT
BRANCH   4   9
ATOM      7  O   UNL     1      37.972 -22.449 -15.888  0.00  0.00    -0.270 OA
ATOM      8  N   UNL     1      35.965 -22.507 -17.020  0.00  0.00    -0.297 N 
ATOM      9  C   UNL     1      36.758 -22.697 -15.888  0.00  0.00    +0.246 C 
ATOM     10  H   UNL     1      35.005 -22.721 -16.967  0.00  0.00    +0.150 HD
BRANCH   8  11
ATOM     11  C   UNL     1      36.494 -22.008 -18.269  0.00  0.00    +0.117 C 
BRANCH  11  12
ATOM     12  C   UNL     1      35.428 -21.387 -19.124  0.00  0.00    -0.003 C 
ATOM     13  C   UNL     1      34.093 -21.704 -18.897  0.00  0.00    -0.003 C 
ATOM     14  C   UNL     1      35.785 -20.501 -20.134  0.00  0.00    -0.003 C 
ATOM     15  C   UNL     1      33.102 -21.127 -19.692  0.00  0.00    -0.000 C 
ATOM     16  C   UNL     1      34.793 -19.924 -20.927  0.00  0.00    -0.000 C 
ATOM     17  C   UNL     1      33.452 -20.237 -20.706  0.00  0.00    -0.000 C 
ENDBRANCH  11  12
ENDBRANCH   8  11
ENDBRANCH   4   9
BRANCH   1  18
ATOM     18  O   UNL     1      32.859 -24.707 -13.808  0.00  0.00    -0.451 OA
BRANCH  18  24
ATOM     19  O   UNL     1      31.534 -22.894 -14.557  0.00  0.00    -0.316 OA
ATOM     20  C   UNL     1      29.752 -24.305 -15.455  0.00  0.00    +0.169 C 
ATOM     21  C   UNL     1      29.958 -25.288 -14.299  0.00  0.00    +0.173 C 
ATOM     22  C   UNL     1      31.053 -23.544 -15.744  0.00  0.00    +0.177 C 
ATOM     23  C   UNL     1      30.547 -24.563 -13.089  0.00  0.00    +0.210 C 
ATOM     24  C   UNL     1      31.811 -23.796 -13.482  0.00  0.00    +0.318 C 
BRANCH  21  25
ATOM     25  O   UNL     1      28.714 -25.879 -13.934  0.00  0.00    -0.379 OA
ATOM     26  H   UNL     1      28.253 -25.301 -13.305  0.00  0.00    +0.211 HD
ENDBRANCH  21  25
BRANCH  20  27
ATOM     27  O   UNL     1      28.733 -23.364 -15.107  0.00  0.00    -0.379 OA
ATOM     28  H   UNL     1      28.104 -23.284 -15.840  0.00  0.00    +0.211 HD
ENDBRANCH  20  27
BRANCH  23  29
ATOM     29  O   UNL     1      30.863 -25.496 -12.060  0.00  0.00    -0.377 OA
ATOM     30  H   UNL     1      31.793 -25.763 -12.141  0.00  0.00    +0.211 HD
ENDBRANCH  23  29
BRANCH  22  31
ATOM     31  C   UNL     1      30.871 -22.466 -16.806  0.00  0.00    +0.169 C 
BRANCH  31  32
ATOM     32  O   UNL     1      29.518 -22.049 -16.802  0.00  0.00    -0.379 OA
ATOM     33  H   UNL     1      29.262 -21.769 -17.694  0.00  0.00    +0.211 HD
ENDBRANCH  31  32
ENDBRANCH  22  31
ENDBRANCH  18  24
ENDBRANCH   1  18
TORSDOF 10
ENDMDL
