MODEL 1
REMARK VINA RESULT:     -11.7      0.000      0.000
REMARK  Name = 42642648
REMARK  5 active torsions:
REMARK  status: ('A' for Active; 'I' for Inactive)
REMARK    1  A    between atoms: N_1  and  C_22
REMARK    2  A    between atoms: C_4  and  N_15
REMARK    3  A    between atoms: C_25  and  O_28
REMARK    4  A    between atoms: O_28  and  C_29
REMARK    5  A    between atoms: C_29  and  C_32
REMARK                            x       y       z     vdW  Elec       q    Type
REMARK                         _______ _______ _______ _____ _____    ______ ____
ROOT
ATOM      1  N   UNL     1      33.506 -22.832 -17.787  0.00  0.00    -0.301 N 
ATOM      2  N   UNL     1      30.375 -22.987 -15.084  0.00  0.00    -0.248 NA
ATOM      3  N   UNL     1      31.287 -22.304 -17.207  0.00  0.00    -0.233 NA
ATOM      4  C   UNL     1      33.989 -24.792 -14.056  0.00  0.00    +0.048 C 
ATOM      5  C   UNL     1      32.640 -23.546 -15.636  0.00  0.00    +0.117 C 
ATOM      6  C   UNL     1      33.858 -24.157 -15.286  0.00  0.00    +0.001 C 
ATOM      7  C   UNL     1      31.544 -23.567 -14.759  0.00  0.00    +0.067 C 
ATOM      8  C   UNL     1      32.444 -22.894 -16.850  0.00  0.00    +0.115 C 
ATOM      9  C   UNL     1      32.910 -24.819 -13.179  0.00  0.00    +0.016 C 
ATOM     10  C   UNL     1      31.704 -24.210 -13.534  0.00  0.00    +0.016 C 
ATOM     11  C   UNL     1      30.310 -22.387 -16.289  0.00  0.00    +0.251 C 
ATOM     12  H   UNL     1      34.118 -23.602 -17.743  0.00  0.00    +0.153 HD
ENDROOT
BRANCH   4  15
ATOM     13  O   UNL     1      37.239 -25.758 -12.720  0.00  0.00    -0.448 OA
ATOM     14  N   UNL     1      36.157 -23.820 -12.181  0.00  0.00    -0.222 NA
ATOM     15  N   UNL     1      35.206 -25.406 -13.700  0.00  0.00    -0.269 N 
ATOM     16  C   UNL     1      37.385 -23.890 -11.374  0.00  0.00    +0.151 C 
ATOM     17  C   UNL     1      38.206 -24.983 -12.025  0.00  0.00    +0.233 C 
ATOM     18  C   UNL     1      36.159 -24.934 -12.848  0.00  0.00    +0.284 C 
ATOM     19  C   UNL     1      38.085 -22.544 -11.360  0.00  0.00    +0.030 C 
ATOM     20  H   UNL     1      35.391 -26.279 -14.116  0.00  0.00    +0.157 HD
ENDBRANCH   4  15
BRANCH   1  22
ATOM     21 CL   UNL     1      37.206 -20.329 -20.278  0.00  0.00    -0.079 Cl
ATOM     22  C   UNL     1      33.852 -21.886 -18.764  0.00  0.00    +0.050 C 
ATOM     23  C   UNL     1      35.194 -21.602 -19.015  0.00  0.00    +0.029 C 
ATOM     24  C   UNL     1      32.854 -21.230 -19.483  0.00  0.00    +0.018 C 
ATOM     25  C   UNL     1      34.538 -20.005 -20.707  0.00  0.00    +0.150 C 
ATOM     26  C   UNL     1      35.538 -20.662 -19.987  0.00  0.00    +0.093 C 
ATOM     27  C   UNL     1      33.197 -20.290 -20.455  0.00  0.00    +0.039 C 
BRANCH  25  28
ATOM     28  O   UNL     1      34.845 -19.082 -21.662  0.00  0.00    -0.468 OA
BRANCH  28  29
ATOM     29  C   UNL     1      35.134 -17.759 -21.212  0.00  0.00    +0.257 C 
BRANCH  29  32
ATOM     30  S   UNL     1      34.436 -15.184 -21.976  0.00  0.00    -0.067 S 
ATOM     31  N   UNL     1      35.019 -17.098 -23.613  0.00  0.00    -0.237 NA
ATOM     32  C   UNL     1      34.898 -16.797 -22.339  0.00  0.00    +0.132 C 
ATOM     33  C   UNL     1      34.390 -14.845 -23.656  0.00  0.00    +0.057 C 
ATOM     34  C   UNL     1      34.727 -15.978 -24.367  0.00  0.00    +0.106 C 
ENDBRANCH  29  32
ENDBRANCH  28  29
ENDBRANCH  25  28
ENDBRANCH   1  22
TORSDOF 5
ENDMDL
MODEL 2
REMARK VINA RESULT:     -10.9      1.752      2.300
REMARK  Name = 42642648
REMARK  5 active torsions:
REMARK  status: ('A' for Active; 'I' for Inactive)
REMARK    1  A    between atoms: N_1  and  C_22
REMARK    2  A    between atoms: C_4  and  N_15
REMARK    3  A    between atoms: C_25  and  O_28
REMARK    4  A    between atoms: O_28  and  C_29
REMARK    5  A    between atoms: C_29  and  C_32
REMARK                            x       y       z     vdW  Elec       q    Type
REMARK                         _______ _______ _______ _____ _____    ______ ____
ROOT
ATOM      1  N   UNL     1      34.970 -22.947 -17.205  0.00  0.00    -0.301 N 
ATOM      2  N   UNL     1      31.770 -23.942 -14.775  0.00  0.00    -0.248 NA
ATOM      3  N   UNL     1      32.656 -23.255 -16.908  0.00  0.00    -0.233 NA
ATOM      4  C   UNL     1      35.610 -24.031 -13.154  0.00  0.00    +0.048 C 
ATOM      5  C   UNL     1      34.135 -23.641 -15.036  0.00  0.00    +0.117 C 
ATOM      6  C   UNL     1      35.429 -23.672 -14.486  0.00  0.00    +0.001 C 
ATOM      7  C   UNL     1      33.012 -23.968 -14.259  0.00  0.00    +0.067 C 
ATOM      8  C   UNL     1      33.885 -23.291 -16.359  0.00  0.00    +0.115 C 
ATOM      9  C   UNL     1      34.505 -24.356 -12.375  0.00  0.00    +0.016 C 
ATOM     10  C   UNL     1      33.222 -24.322 -12.928  0.00  0.00    +0.016 C 
ATOM     11  C   UNL     1      31.660 -23.586 -16.070  0.00  0.00    +0.251 C 
ATOM     12  H   UNL     1      35.812 -23.402 -16.974  0.00  0.00    +0.153 HD
ENDROOT
BRANCH   4  15
ATOM     13  O   UNL     1      39.158 -24.365 -12.394  0.00  0.00    -0.448 OA
ATOM     14  N   UNL     1      38.238 -24.816 -14.435  0.00  0.00    -0.222 NA
ATOM     15  N   UNL     1      36.904 -24.064 -12.597  0.00  0.00    -0.269 N 
ATOM     16  C   UNL     1      39.695 -24.980 -14.552  0.00  0.00    +0.151 C 
ATOM     17  C   UNL     1      40.189 -25.019 -13.122  0.00  0.00    +0.233 C 
ATOM     18  C   UNL     1      38.066 -24.425 -13.209  0.00  0.00    +0.284 C 
ATOM     19  C   UNL     1      40.024 -26.238 -15.333  0.00  0.00    +0.030 C 
ATOM     20  H   UNL     1      36.976 -23.795 -11.652  0.00  0.00    +0.157 HD
ENDBRANCH   4  15
BRANCH   1  22
ATOM     21 CL   UNL     1      32.587 -20.219 -20.815  0.00  0.00    -0.079 Cl
ATOM     22  C   UNL     1      35.075 -22.085 -18.308  0.00  0.00    +0.050 C 
ATOM     23  C   UNL     1      33.923 -21.627 -18.947  0.00  0.00    +0.029 C 
ATOM     24  C   UNL     1      36.331 -21.686 -18.763  0.00  0.00    +0.018 C 
ATOM     25  C   UNL     1      35.285 -20.370 -20.498  0.00  0.00    +0.150 C 
ATOM     26  C   UNL     1      34.027 -20.769 -20.042  0.00  0.00    +0.093 C 
ATOM     27  C   UNL     1      36.436 -20.828 -19.858  0.00  0.00    +0.039 C 
BRANCH  25  28
ATOM     28  O   UNL     1      35.417 -19.533 -21.566  0.00  0.00    -0.468 OA
BRANCH  28  29
ATOM     29  C   UNL     1      36.006 -18.257 -21.318  0.00  0.00    +0.257 C 
BRANCH  29  32
ATOM     30  S   UNL     1      34.697 -15.816 -21.485  0.00  0.00    -0.067 S 
ATOM     31  N   UNL     1      35.225 -17.343 -23.502  0.00  0.00    -0.237 NA
ATOM     32  C   UNL     1      35.347 -17.235 -22.198  0.00  0.00    +0.132 C 
ATOM     33  C   UNL     1      34.207 -15.289 -23.041  0.00  0.00    +0.057 C 
ATOM     34  C   UNL     1      34.571 -16.227 -23.984  0.00  0.00    +0.106 C 
ENDBRANCH  29  32
ENDBRANCH  28  29
ENDBRANCH  25  28
ENDBRANCH   1  22
TORSDOF 5
ENDMDL
MODEL 3
REMARK VINA RESULT:     -10.4      5.246      9.679
REMARK  Name = 42642648
REMARK  5 active torsions:
REMARK  status: ('A' for Active; 'I' for Inactive)
REMARK    1  A    between atoms: N_1  and  C_22
REMARK    2  A    between atoms: C_4  and  N_15
REMARK    3  A    between atoms: C_25  and  O_28
REMARK    4  A    between atoms: O_28  and  C_29
REMARK    5  A    between atoms: C_29  and  C_32
REMARK                            x       y       z     vdW  Elec       q    Type
REMARK                         _______ _______ _______ _____ _____    ______ ____
ROOT
ATOM      1  N   UNL     1      34.540 -14.797 -22.139  0.00  0.00    -0.301 N 
ATOM      2  N   UNL     1      34.448 -17.356 -25.391  0.00  0.00    -0.248 NA
ATOM      3  N   UNL     1      34.041 -15.196 -24.404  0.00  0.00    -0.233 NA
ATOM      4  C   UNL     1      35.901 -18.796 -21.759  0.00  0.00    +0.048 C 
ATOM      5  C   UNL     1      34.970 -16.991 -23.079  0.00  0.00    +0.117 C 
ATOM      6  C   UNL     1      35.462 -17.480 -21.856  0.00  0.00    +0.001 C 
ATOM      7  C   UNL     1      34.915 -17.814 -24.216  0.00  0.00    +0.067 C 
ATOM      8  C   UNL     1      34.515 -15.686 -23.242  0.00  0.00    +0.115 C 
ATOM      9  C   UNL     1      35.851 -19.620 -22.878  0.00  0.00    +0.016 C 
ATOM     10  C   UNL     1      35.361 -19.127 -24.090  0.00  0.00    +0.016 C 
ATOM     11  C   UNL     1      34.036 -16.073 -25.421  0.00  0.00    +0.251 C 
ATOM     12  H   UNL     1      35.263 -14.981 -21.497  0.00  0.00    +0.153 HD
ENDROOT
BRANCH   4  15
ATOM     13  O   UNL     1      36.677 -20.631 -18.707  0.00  0.00    -0.448 OA
ATOM     14  N   UNL     1      35.132 -21.304 -20.249  0.00  0.00    -0.222 NA
ATOM     15  N   UNL     1      36.394 -19.292 -20.536  0.00  0.00    -0.269 N 
ATOM     16  C   UNL     1      35.222 -22.348 -19.216  0.00  0.00    +0.151 C 
ATOM     17  C   UNL     1      35.971 -21.691 -18.076  0.00  0.00    +0.233 C 
ATOM     18  C   UNL     1      36.020 -20.430 -19.887  0.00  0.00    +0.284 C 
ATOM     19  C   UNL     1      33.836 -22.824 -18.824  0.00  0.00    +0.030 C 
ATOM     20  H   UNL     1      37.092 -18.752 -20.098  0.00  0.00    +0.157 HD
ENDBRANCH   4  15
BRANCH   1  22
ATOM     21 CL   UNL     1      32.946 -10.057 -23.213  0.00  0.00    -0.079 Cl
ATOM     22  C   UNL     1      33.732 -13.704 -21.785  0.00  0.00    +0.050 C 
ATOM     23  C   UNL     1      33.731 -12.554 -22.572  0.00  0.00    +0.029 C 
ATOM     24  C   UNL     1      32.932 -13.771 -20.645  0.00  0.00    +0.018 C 
ATOM     25  C   UNL     1      32.126 -11.535 -21.080  0.00  0.00    +0.150 C 
ATOM     26  C   UNL     1      32.928 -11.469 -22.221  0.00  0.00    +0.093 C 
ATOM     27  C   UNL     1      32.129 -12.686 -20.293  0.00  0.00    +0.039 C 
BRANCH  25  28
ATOM     28  O   UNL     1      31.332 -10.490 -20.713  0.00  0.00    -0.468 OA
BRANCH  28  29
ATOM     29  C   UNL     1      31.762  -9.713 -19.596  0.00  0.00    +0.257 C 
BRANCH  29  32
ATOM     30  S   UNL     1      31.518  -7.798 -21.589  0.00  0.00    -0.067 S 
ATOM     31  N   UNL     1      32.821  -7.467 -19.382  0.00  0.00    -0.237 NA
ATOM     32  C   UNL     1      32.099  -8.327 -20.064  0.00  0.00    +0.132 C 
ATOM     33  C   UNL     1      32.289  -6.288 -21.331  0.00  0.00    +0.057 C 
ATOM     34  C   UNL     1      32.929  -6.298 -20.110  0.00  0.00    +0.106 C 
ENDBRANCH  29  32
ENDBRANCH  28  29
ENDBRANCH  25  28
ENDBRANCH   1  22
TORSDOF 5
ENDMDL
MODEL 4
REMARK VINA RESULT:     -10.3      8.415     16.787
REMARK  Name = 42642648
REMARK  5 active torsions:
REMARK  status: ('A' for Active; 'I' for Inactive)
REMARK    1  A    between atoms: N_1  and  C_22
REMARK    2  A    between atoms: C_4  and  N_15
REMARK    3  A    between atoms: C_25  and  O_28
REMARK    4  A    between atoms: O_28  and  C_29
REMARK    5  A    between atoms: C_29  and  C_32
REMARK                            x       y       z     vdW  Elec       q    Type
REMARK                         _______ _______ _______ _____ _____    ______ ____
ROOT
ATOM      1  N   UNL     1      33.638  -8.953 -23.245  0.00  0.00    -0.301 N 
ATOM      2  N   UNL     1      31.872  -6.048 -20.885  0.00  0.00    -0.248 NA
ATOM      3  N   UNL     1      32.758  -8.270 -21.173  0.00  0.00    -0.233 NA
ATOM      4  C   UNL     1      32.759  -5.128 -24.853  0.00  0.00    +0.048 C 
ATOM      5  C   UNL     1      32.760  -6.704 -23.013  0.00  0.00    +0.117 C 
ATOM      6  C   UNL     1      33.058  -6.390 -24.351  0.00  0.00    +0.001 C 
ATOM      7  C   UNL     1      32.161  -5.759 -22.166  0.00  0.00    +0.067 C 
ATOM      8  C   UNL     1      33.034  -7.947 -22.451  0.00  0.00    +0.115 C 
ATOM      9  C   UNL     1      32.164  -4.183 -24.023  0.00  0.00    +0.016 C 
ATOM     10  C   UNL     1      31.870  -4.503 -22.695  0.00  0.00    +0.016 C 
ATOM     11  C   UNL     1      32.186  -7.288 -20.458  0.00  0.00    +0.251 C 
ATOM     12  H   UNL     1      34.227  -8.601 -23.951  0.00  0.00    +0.153 HD
ENDROOT
BRANCH   4  15
ATOM     13  O   UNL     1      34.237  -4.400 -28.103  0.00  0.00    -0.448 OA
ATOM     14  N   UNL     1      35.439  -4.993 -26.253  0.00  0.00    -0.222 NA
ATOM     15  N   UNL     1      33.054  -4.807 -26.193  0.00  0.00    -0.269 N 
ATOM     16  C   UNL     1      36.377  -4.875 -27.381  0.00  0.00    +0.151 C 
ATOM     17  C   UNL     1      35.592  -4.149 -28.453  0.00  0.00    +0.233 C 
ATOM     18  C   UNL     1      34.279  -4.758 -26.787  0.00  0.00    +0.284 C 
ATOM     19  C   UNL     1      37.628  -4.133 -26.951  0.00  0.00    +0.030 C 
ATOM     20  H   UNL     1      32.284  -4.593 -26.768  0.00  0.00    +0.157 HD
ENDBRANCH   4  15
BRANCH   1  22
ATOM     21 CL   UNL     1      31.910 -13.155 -20.897  0.00  0.00    -0.079 Cl
ATOM     22  C   UNL     1      33.560 -10.355 -23.220  0.00  0.00    +0.050 C 
ATOM     23  C   UNL     1      32.860 -10.995 -22.198  0.00  0.00    +0.029 C 
ATOM     24  C   UNL     1      34.183 -11.106 -24.216  0.00  0.00    +0.018 C 
ATOM     25  C   UNL     1      33.405 -13.140 -23.170  0.00  0.00    +0.150 C 
ATOM     26  C   UNL     1      32.782 -12.388 -22.173  0.00  0.00    +0.093 C 
ATOM     27  C   UNL     1      34.105 -12.498 -24.191  0.00  0.00    +0.039 C 
BRANCH  25  28
ATOM     28  O   UNL     1      33.346 -14.502 -23.170  0.00  0.00    -0.468 OA
BRANCH  28  29
ATOM     29  C   UNL     1      34.380 -15.194 -23.868  0.00  0.00    +0.257 C 
BRANCH  29  32
ATOM     30  S   UNL     1      34.823 -16.336 -21.378  0.00  0.00    -0.067 S 
ATOM     31  N   UNL     1      35.054 -17.582 -23.631  0.00  0.00    -0.237 NA
ATOM     32  C   UNL     1      34.759 -16.420 -23.091  0.00  0.00    +0.132 C 
ATOM     33  C   UNL     1      35.282 -17.987 -21.339  0.00  0.00    +0.057 C 
ATOM     34  C   UNL     1      35.354 -18.479 -22.625  0.00  0.00    +0.106 C 
ENDBRANCH  29  32
ENDBRANCH  28  29
ENDBRANCH  25  28
ENDBRANCH   1  22
TORSDOF 5
ENDMDL
MODEL 5
REMARK VINA RESULT:     -10.3      2.258      3.154
REMARK  Name = 42642648
REMARK  5 active torsions:
REMARK  status: ('A' for Active; 'I' for Inactive)
REMARK    1  A    between atoms: N_1  and  C_22
REMARK    2  A    between atoms: C_4  and  N_15
REMARK    3  A    between atoms: C_25  and  O_28
REMARK    4  A    between atoms: O_28  and  C_29
REMARK    5  A    between atoms: C_29  and  C_32
REMARK                            x       y       z     vdW  Elec       q    Type
REMARK                         _______ _______ _______ _____ _____    ______ ____
ROOT
ATOM      1  N   UNL     1      35.510 -21.262 -19.730  0.00  0.00    -0.301 N 
ATOM      2  N   UNL     1      32.356 -22.552 -17.381  0.00  0.00    -0.248 NA
ATOM      3  N   UNL     1      33.195 -21.499 -19.379  0.00  0.00    -0.233 NA
ATOM      4  C   UNL     1      36.245 -23.168 -16.014  0.00  0.00    +0.048 C 
ATOM      5  C   UNL     1      34.722 -22.331 -17.701  0.00  0.00    +0.117 C 
ATOM      6  C   UNL     1      36.033 -22.541 -17.237  0.00  0.00    +0.001 C 
ATOM      7  C   UNL     1      33.613 -22.747 -16.946  0.00  0.00    +0.067 C 
ATOM      8  C   UNL     1      34.441 -21.709 -18.914  0.00  0.00    +0.115 C 
ATOM      9  C   UNL     1      35.155 -23.584 -15.257  0.00  0.00    +0.016 C 
ATOM     10  C   UNL     1      33.855 -23.372 -15.725  0.00  0.00    +0.016 C 
ATOM     11  C   UNL     1      32.215 -21.938 -18.573  0.00  0.00    +0.251 C 
ATOM     12  H   UNL     1      36.330 -21.797 -19.639  0.00  0.00    +0.153 HD
ENDROOT
BRANCH   4  15
ATOM     13  O   UNL     1      39.321 -24.279 -14.405  0.00  0.00    -0.448 OA
ATOM     14  N   UNL     1      37.286 -25.272 -14.102  0.00  0.00    -0.222 NA
ATOM     15  N   UNL     1      37.556 -23.381 -15.543  0.00  0.00    -0.269 N 
ATOM     16  C   UNL     1      38.286 -26.059 -13.363  0.00  0.00    +0.151 C 
ATOM     17  C   UNL     1      39.508 -25.167 -13.312  0.00  0.00    +0.233 C 
ATOM     18  C   UNL     1      37.985 -24.343 -14.680  0.00  0.00    +0.284 C 
ATOM     19  C   UNL     1      37.757 -26.429 -11.991  0.00  0.00    +0.030 C 
ATOM     20  H   UNL     1      38.243 -22.760 -15.877  0.00  0.00    +0.157 HD
ENDBRANCH   4  15
BRANCH   1  22
ATOM     21 CL   UNL     1      34.117 -19.240 -24.218  0.00  0.00    -0.079 Cl
ATOM     22  C   UNL     1      35.623 -20.202 -20.645  0.00  0.00    +0.050 C 
ATOM     23  C   UNL     1      34.905 -20.231 -21.839  0.00  0.00    +0.029 C 
ATOM     24  C   UNL     1      36.455 -19.120 -20.357  0.00  0.00    +0.018 C 
ATOM     25  C   UNL     1      35.849 -18.095 -22.459  0.00  0.00    +0.150 C 
ATOM     26  C   UNL     1      35.017 -19.178 -22.747  0.00  0.00    +0.093 C 
ATOM     27  C   UNL     1      36.568 -18.067 -21.264  0.00  0.00    +0.039 C 
BRANCH  25  28
ATOM     28  O   UNL     1      35.979 -17.052 -23.328  0.00  0.00    -0.468 OA
BRANCH  28  29
ATOM     29  C   UNL     1      35.288 -15.848 -22.999  0.00  0.00    +0.257 C 
BRANCH  29  32
ATOM     30  S   UNL     1      33.468 -14.031 -24.043  0.00  0.00    -0.067 S 
ATOM     31  N   UNL     1      34.526 -15.981 -25.369  0.00  0.00    -0.237 NA
ATOM     32  C   UNL     1      34.495 -15.398 -24.192  0.00  0.00    +0.132 C 
ATOM     33  C   UNL     1      33.018 -14.221 -25.686  0.00  0.00    +0.057 C 
ATOM     34  C   UNL     1      33.678 -15.306 -26.225  0.00  0.00    +0.106 C 
ENDBRANCH  29  32
ENDBRANCH  28  29
ENDBRANCH  25  28
ENDBRANCH   1  22
TORSDOF 5
ENDMDL
MODEL 6
REMARK VINA RESULT:     -10.1      9.772     14.324
REMARK  Name = 42642648
REMARK  5 active torsions:
REMARK  status: ('A' for Active; 'I' for Inactive)
REMARK    1  A    between atoms: N_1  and  C_22
REMARK    2  A    between atoms: C_4  and  N_15
REMARK    3  A    between atoms: C_25  and  O_28
REMARK    4  A    between atoms: O_28  and  C_29
REMARK    5  A    between atoms: C_29  and  C_32
REMARK                            x       y       z     vdW  Elec       q    Type
REMARK                         _______ _______ _______ _____ _____    ______ ____
ROOT
ATOM      1  N   UNL     1      31.625  -9.314 -22.492  0.00  0.00    -0.301 N 
ATOM      2  N   UNL     1      31.627 -11.453 -18.949  0.00  0.00    -0.248 NA
ATOM      3  N   UNL     1      31.229  -9.417 -20.175  0.00  0.00    -0.233 NA
ATOM      4  C   UNL     1      32.858 -13.372 -22.438  0.00  0.00    +0.048 C 
ATOM      5  C   UNL     1      32.043 -11.390 -21.309  0.00  0.00    +0.117 C 
ATOM      6  C   UNL     1      32.458 -12.041 -22.485  0.00  0.00    +0.001 C 
ATOM      7  C   UNL     1      32.023 -12.065 -20.078  0.00  0.00    +0.067 C 
ATOM      8  C   UNL     1      31.632 -10.061 -21.287  0.00  0.00    +0.115 C 
ATOM      9  C   UNL     1      32.843 -14.051 -21.225  0.00  0.00    +0.016 C 
ATOM     10  C   UNL     1      32.429 -13.398 -20.061  0.00  0.00    +0.016 C 
ATOM     11  C   UNL     1      31.252 -10.163 -19.058  0.00  0.00    +0.251 C 
ATOM     12  H   UNL     1      31.461  -9.859 -23.295  0.00  0.00    +0.153 HD
ENDROOT
BRANCH   4  15
ATOM     13  O   UNL     1      34.189 -15.598 -24.998  0.00  0.00    -0.448 OA
ATOM     14  N   UNL     1      34.244 -16.044 -22.759  0.00  0.00    -0.222 NA
ATOM     15  N   UNL     1      33.275 -14.030 -23.612  0.00  0.00    -0.269 N 
ATOM     16  C   UNL     1      34.790 -17.214 -23.464  0.00  0.00    +0.151 C 
ATOM     17  C   UNL     1      35.051 -16.720 -24.872  0.00  0.00    +0.233 C 
ATOM     18  C   UNL     1      33.899 -15.237 -23.715  0.00  0.00    +0.284 C 
ATOM     19  C   UNL     1      36.039 -17.717 -22.766  0.00  0.00    +0.030 C 
ATOM     20  H   UNL     1      33.096 -13.561 -24.460  0.00  0.00    +0.157 HD
ENDBRANCH   4  15
BRANCH   1  22
ATOM     21 CL   UNL     1      34.484  -5.664 -24.652  0.00  0.00    -0.079 Cl
ATOM     22  C   UNL     1      31.807  -7.948 -22.761  0.00  0.00    +0.050 C 
ATOM     23  C   UNL     1      32.919  -7.522 -23.486  0.00  0.00    +0.029 C 
ATOM     24  C   UNL     1      30.875  -7.018 -22.301  0.00  0.00    +0.018 C 
ATOM     25  C   UNL     1      32.166  -5.233 -23.293  0.00  0.00    +0.150 C 
ATOM     26  C   UNL     1      33.099  -6.165 -23.753  0.00  0.00    +0.093 C 
ATOM     27  C   UNL     1      31.055  -5.661 -22.568  0.00  0.00    +0.039 C 
BRANCH  25  28
ATOM     28  O   UNL     1      32.317  -3.901 -23.539  0.00  0.00    -0.468 OA
BRANCH  28  29
ATOM     29  C   UNL     1      31.149  -3.088 -23.434  0.00  0.00    +0.257 C 
BRANCH  29  32
ATOM     30  S   UNL     1      31.860  -2.552 -26.062  0.00  0.00    -0.067 S 
ATOM     31  N   UNL     1      29.445  -2.466 -25.143  0.00  0.00    -0.237 NA
ATOM     32  C   UNL     1      30.695  -2.703 -24.811  0.00  0.00    +0.132 C 
ATOM     33  C   UNL     1      30.601  -2.135 -27.149  0.00  0.00    +0.057 C 
ATOM     34  C   UNL     1      29.393  -2.140 -26.484  0.00  0.00    +0.106 C 
ENDBRANCH  29  32
ENDBRANCH  28  29
ENDBRANCH  25  28
ENDBRANCH   1  22
TORSDOF 5
ENDMDL
MODEL 7
REMARK VINA RESULT:     -10.1      8.302     16.402
REMARK  Name = 42642648
REMARK  5 active torsions:
REMARK  status: ('A' for Active; 'I' for Inactive)
REMARK    1  A    between atoms: N_1  and  C_22
REMARK    2  A    between atoms: C_4  and  N_15
REMARK    3  A    between atoms: C_25  and  O_28
REMARK    4  A    between atoms: O_28  and  C_29
REMARK    5  A    between atoms: C_29  and  C_32
REMARK                            x       y       z     vdW  Elec       q    Type
REMARK                         _______ _______ _______ _____ _____    ______ ____
ROOT
ATOM      1  N   UNL     1      34.075 -10.226 -23.449  0.00  0.00    -0.301 N 
ATOM      2  N   UNL     1      31.263  -7.514 -22.084  0.00  0.00    -0.248 NA
ATOM      3  N   UNL     1      32.122  -9.761 -22.223  0.00  0.00    -0.233 NA
ATOM      4  C   UNL     1      34.389  -6.120 -24.463  0.00  0.00    +0.048 C 
ATOM      5  C   UNL     1      33.257  -7.945 -23.344  0.00  0.00    +0.117 C 
ATOM      6  C   UNL     1      34.311  -7.472 -24.146  0.00  0.00    +0.001 C 
ATOM      7  C   UNL     1      32.274  -7.071 -22.853  0.00  0.00    +0.067 C 
ATOM      8  C   UNL     1      33.121  -9.284 -22.990  0.00  0.00    +0.115 C 
ATOM      9  C   UNL     1      33.421  -5.245 -23.983  0.00  0.00    +0.016 C 
ATOM     10  C   UNL     1      32.377  -5.723 -23.188  0.00  0.00    +0.016 C 
ATOM     11  C   UNL     1      31.241  -8.834 -21.812  0.00  0.00    +0.251 C 
ATOM     12  H   UNL     1      34.975  -9.849 -23.578  0.00  0.00    +0.153 HD
ENDROOT
BRANCH   4  15
ATOM     13  O   UNL     1      36.561  -4.692 -27.019  0.00  0.00    -0.448 OA
ATOM     14  N   UNL     1      34.282  -4.764 -27.168  0.00  0.00    -0.222 NA
ATOM     15  N   UNL     1      35.442  -5.639 -25.267  0.00  0.00    -0.269 N 
ATOM     16  C   UNL     1      34.788  -4.035 -28.342  0.00  0.00    +0.151 C 
ATOM     17  C   UNL     1      36.273  -4.332 -28.363  0.00  0.00    +0.233 C 
ATOM     18  C   UNL     1      35.352  -5.032 -26.483  0.00  0.00    +0.284 C 
ATOM     19  C   UNL     1      34.069  -4.492 -29.597  0.00  0.00    +0.030 C 
ATOM     20  H   UNL     1      36.352  -5.756 -24.907  0.00  0.00    +0.157 HD
ENDBRANCH   4  15
BRANCH   1  22
ATOM     21 CL   UNL     1      33.714 -13.852 -27.039  0.00  0.00    -0.079 Cl
ATOM     22  C   UNL     1      33.985 -11.594 -23.754  0.00  0.00    +0.050 C 
ATOM     23  C   UNL     1      33.903 -12.008 -25.083  0.00  0.00    +0.029 C 
ATOM     24  C   UNL     1      33.977 -12.538 -22.728  0.00  0.00    +0.018 C 
ATOM     25  C   UNL     1      33.807 -14.312 -24.359  0.00  0.00    +0.150 C 
ATOM     26  C   UNL     1      33.815 -13.367 -25.386  0.00  0.00    +0.093 C 
ATOM     27  C   UNL     1      33.888 -13.896 -23.030  0.00  0.00    +0.039 C 
BRANCH  25  28
ATOM     28  O   UNL     1      33.720 -15.645 -24.626  0.00  0.00    -0.468 OA
BRANCH  28  29
ATOM     29  C   UNL     1      34.948 -16.362 -24.746  0.00  0.00    +0.257 C 
BRANCH  29  32
ATOM     30  S   UNL     1      35.390 -17.074 -22.100  0.00  0.00    -0.067 S 
ATOM     31  N   UNL     1      34.707 -18.719 -23.973  0.00  0.00    -0.237 NA
ATOM     32  C   UNL     1      34.978 -17.458 -23.721  0.00  0.00    +0.132 C 
ATOM     33  C   UNL     1      35.193 -18.726 -21.686  0.00  0.00    +0.057 C 
ATOM     34  C   UNL     1      34.832 -19.445 -22.805  0.00  0.00    +0.106 C 
ENDBRANCH  29  32
ENDBRANCH  28  29
ENDBRANCH  25  28
ENDBRANCH   1  22
TORSDOF 5
ENDMDL
MODEL 8
REMARK VINA RESULT:     -10.1      6.226     11.136
REMARK  Name = 42642648
REMARK  5 active torsions:
REMARK  status: ('A' for Active; 'I' for Inactive)
REMARK    1  A    between atoms: N_1  and  C_22
REMARK    2  A    between atoms: C_4  and  N_15
REMARK    3  A    between atoms: C_25  and  O_28
REMARK    4  A    between atoms: O_28  and  C_29
REMARK    5  A    between atoms: C_29  and  C_32
REMARK                            x       y       z     vdW  Elec       q    Type
REMARK                         _______ _______ _______ _____ _____    ______ ____
ROOT
ATOM      1  N   UNL     1      34.231 -13.268 -23.165  0.00  0.00    -0.301 N 
ATOM      2  N   UNL     1      33.441 -15.989 -26.182  0.00  0.00    -0.248 NA
ATOM      3  N   UNL     1      33.252 -13.778 -25.244  0.00  0.00    -0.233 NA
ATOM      4  C   UNL     1      35.656 -17.253 -22.885  0.00  0.00    +0.048 C 
ATOM      5  C   UNL     1      34.453 -15.511 -24.062  0.00  0.00    +0.117 C 
ATOM      6  C   UNL     1      35.201 -15.941 -22.951  0.00  0.00    +0.001 C 
ATOM      7  C   UNL     1      34.155 -16.390 -25.116  0.00  0.00    +0.067 C 
ATOM      8  C   UNL     1      33.969 -14.212 -24.190  0.00  0.00    +0.115 C 
ATOM      9  C   UNL     1      35.366 -18.133 -23.922  0.00  0.00    +0.016 C 
ATOM     10  C   UNL     1      34.622 -17.699 -25.022  0.00  0.00    +0.016 C 
ATOM     11  C   UNL     1      33.028 -14.706 -26.189  0.00  0.00    +0.251 C 
ATOM     12  H   UNL     1      35.077 -13.425 -22.688  0.00  0.00    +0.153 HD
ENDROOT
BRANCH   4  15
ATOM     13  O   UNL     1      37.135 -18.979 -20.036  0.00  0.00    -0.448 OA
ATOM     14  N   UNL     1      35.404 -19.805 -21.276  0.00  0.00    -0.222 NA
ATOM     15  N   UNL     1      36.405 -17.690 -21.775  0.00  0.00    -0.269 N 
ATOM     16  C   UNL     1      35.773 -20.825 -20.282  0.00  0.00    +0.151 C 
ATOM     17  C   UNL     1      36.654 -20.091 -19.294  0.00  0.00    +0.233 C 
ATOM     18  C   UNL     1      36.260 -18.850 -21.075  0.00  0.00    +0.284 C 
ATOM     19  C   UNL     1      34.530 -21.420 -19.649  0.00  0.00    +0.030 C 
ATOM     20  H   UNL     1      37.119 -17.085 -21.467  0.00  0.00    +0.157 HD
ENDBRANCH   4  15
BRANCH   1  22
ATOM     21 CL   UNL     1      30.775 -11.388 -19.897  0.00  0.00    -0.079 Cl
ATOM     22  C   UNL     1      33.516 -12.152 -22.701  0.00  0.00    +0.050 C 
ATOM     23  C   UNL     1      32.606 -12.294 -21.655  0.00  0.00    +0.029 C 
ATOM     24  C   UNL     1      33.718 -10.903 -23.286  0.00  0.00    +0.018 C 
ATOM     25  C   UNL     1      32.098  -9.935 -21.779  0.00  0.00    +0.150 C 
ATOM     26  C   UNL     1      31.896 -11.185 -21.193  0.00  0.00    +0.093 C 
ATOM     27  C   UNL     1      33.008  -9.794 -22.825  0.00  0.00    +0.039 C 
BRANCH  25  28
ATOM     28  O   UNL     1      31.418  -8.834 -21.348  0.00  0.00    -0.468 OA
BRANCH  28  29
ATOM     29  C   UNL     1      32.198  -7.733 -20.885  0.00  0.00    +0.257 C 
BRANCH  29  32
ATOM     30  S   UNL     1      32.708  -5.975 -22.971  0.00  0.00    -0.067 S 
ATOM     31  N   UNL     1      30.740  -5.756 -21.310  0.00  0.00    -0.237 NA
ATOM     32  C   UNL     1      31.782  -6.494 -21.623  0.00  0.00    +0.132 C 
ATOM     33  C   UNL     1      31.637  -4.652 -23.167  0.00  0.00    +0.057 C 
ATOM     34  C   UNL     1      30.658  -4.700 -22.196  0.00  0.00    +0.106 C 
ENDBRANCH  29  32
ENDBRANCH  28  29
ENDBRANCH  25  28
ENDBRANCH   1  22
TORSDOF 5
ENDMDL
MODEL 9
REMARK VINA RESULT:      -9.5      9.193     13.609
REMARK  Name = 42642648
REMARK  5 active torsions:
REMARK  status: ('A' for Active; 'I' for Inactive)
REMARK    1  A    between atoms: N_1  and  C_22
REMARK    2  A    between atoms: C_4  and  N_15
REMARK    3  A    between atoms: C_25  and  O_28
REMARK    4  A    between atoms: O_28  and  C_29
REMARK    5  A    between atoms: C_29  and  C_32
REMARK                            x       y       z     vdW  Elec       q    Type
REMARK                         _______ _______ _______ _____ _____    ______ ____
ROOT
ATOM      1  N   UNL     1      31.943  -9.797 -22.596  0.00  0.00    -0.301 N 
ATOM      2  N   UNL     1      31.587 -11.676 -18.926  0.00  0.00    -0.248 NA
ATOM      3  N   UNL     1      31.370  -9.720 -20.315  0.00  0.00    -0.233 NA
ATOM      4  C   UNL     1      32.992 -13.884 -22.170  0.00  0.00    +0.048 C 
ATOM      5  C   UNL     1      32.181 -11.797 -21.246  0.00  0.00    +0.117 C 
ATOM      6  C   UNL     1      32.655 -12.545 -22.338  0.00  0.00    +0.001 C 
ATOM      7  C   UNL     1      32.040 -12.382 -19.977  0.00  0.00    +0.067 C 
ATOM      8  C   UNL     1      31.827 -10.455 -21.347  0.00  0.00    +0.115 C 
ATOM      9  C   UNL     1      32.857 -14.474 -20.918  0.00  0.00    +0.016 C 
ATOM     10  C   UNL     1      32.386 -13.724 -19.838  0.00  0.00    +0.016 C 
ATOM     11  C   UNL     1      31.277 -10.384 -19.152  0.00  0.00    +0.251 C 
ATOM     12  H   UNL     1      31.816 -10.391 -23.371  0.00  0.00    +0.153 HD
ENDROOT
BRANCH   4  15
ATOM     13  O   UNL     1      34.486 -16.297 -24.457  0.00  0.00    -0.448 OA
ATOM     14  N   UNL     1      34.505 -16.506 -22.183  0.00  0.00    -0.222 NA
ATOM     15  N   UNL     1      33.468 -14.639 -23.261  0.00  0.00    -0.269 N 
ATOM     16  C   UNL     1      35.120 -17.716 -22.752  0.00  0.00    +0.151 C 
ATOM     17  C   UNL     1      35.394 -17.358 -24.197  0.00  0.00    +0.233 C 
ATOM     18  C   UNL     1      34.147 -15.819 -23.225  0.00  0.00    +0.284 C 
ATOM     19  C   UNL     1      36.372 -18.085 -21.979  0.00  0.00    +0.030 C 
ATOM     20  H   UNL     1      33.289 -14.269 -24.156  0.00  0.00    +0.157 HD
ENDBRANCH   4  15
BRANCH   1  22
ATOM     21 CL   UNL     1      35.356  -6.289 -24.081  0.00  0.00    -0.079 Cl
ATOM     22  C   UNL     1      32.202  -8.461 -22.942  0.00  0.00    +0.050 C 
ATOM     23  C   UNL     1      33.493  -8.071 -23.299  0.00  0.00    +0.029 C 
ATOM     24  C   UNL     1      31.170  -7.524 -22.928  0.00  0.00    +0.018 C 
ATOM     25  C   UNL     1      32.717  -5.807 -23.630  0.00  0.00    +0.150 C 
ATOM     26  C   UNL     1      33.751  -6.745 -23.644  0.00  0.00    +0.093 C 
ATOM     27  C   UNL     1      31.427  -6.197 -23.272  0.00  0.00    +0.039 C 
BRANCH  25  28
ATOM     28  O   UNL     1      32.940  -4.503 -23.961  0.00  0.00    -0.468 OA
BRANCH  28  29
ATOM     29  C   UNL     1      32.184  -3.975 -25.050  0.00  0.00    +0.257 C 
BRANCH  29  32
ATOM     30  S   UNL     1      33.241  -2.143 -26.847  0.00  0.00    -0.067 S 
ATOM     31  N   UNL     1      33.829  -4.659 -26.793  0.00  0.00    -0.237 NA
ATOM     32  C   UNL     1      33.104  -3.731 -26.211  0.00  0.00    +0.132 C 
ATOM     33  C   UNL     1      34.364  -2.729 -28.001  0.00  0.00    +0.057 C 
ATOM     34  C   UNL     1      34.551  -4.084 -27.820  0.00  0.00    +0.106 C 
ENDBRANCH  29  32
ENDBRANCH  28  29
ENDBRANCH  25  28
ENDBRANCH   1  22
TORSDOF 5
ENDMDL
