MODEL 1
REMARK VINA RESULT:     -12.1      0.000      0.000
REMARK  Name = 25023705
REMARK  6 active torsions:
REMARK  status: ('A' for Active; 'I' for Inactive)
REMARK    1  A    between atoms: C_1  and  C_8
REMARK    2  A    between atoms: C_1  and  C_20
REMARK    3  A    between atoms: C_20  and  N_22
REMARK    4  A    between atoms: C_23  and  C_25
REMARK    5  A    between atoms: C_30  and  O_31
REMARK    6  A    between atoms: O_31  and  C_32
REMARK                            x       y       z     vdW  Elec       q    Type
REMARK                         _______ _______ _______ _____ _____    ______ ____
ROOT
ATOM      1  C   UNL     1      35.714 -19.020 -21.876  0.00  0.00    +0.066 C 
ATOM      2  C   UNL     1      37.085 -18.922 -21.164  0.00  0.00    +0.009 C 
ATOM      3  C   UNL     1      35.980 -19.686 -23.249  0.00  0.00    +0.009 C 
ENDROOT
BRANCH   1   8
ATOM      4  N   UNL     1      34.891 -17.130 -23.225  0.00  0.00    -0.347 NA
ATOM      5  N   UNL     1      34.146 -15.424 -24.601  0.00  0.00    -0.266 NA
ATOM      6  N   UNL     1      33.274 -13.369 -23.698  0.00  0.00    -0.316 NA
ATOM      7  N   UNL     1      33.395 -13.705 -26.012  0.00  0.00    -0.283 N 
ATOM      8  C   UNL     1      35.107 -17.608 -21.975  0.00  0.00    +0.122 C 
ATOM      9  C   UNL     1      34.820 -16.913 -20.820  0.00  0.00    +0.026 C 
ATOM     10  C   UNL     1      34.276 -15.648 -20.963  0.00  0.00    +0.001 C 
ATOM     11  C   UNL     1      34.364 -15.907 -23.372  0.00  0.00    +0.137 C 
ATOM     12  C   UNL     1      34.045 -15.137 -22.248  0.00  0.00    +0.199 C 
ATOM     13  C   UNL     1      33.502 -13.874 -22.474  0.00  0.00    +0.187 C 
ATOM     14  C   UNL     1      33.615 -14.187 -24.704  0.00  0.00    +0.207 C 
ATOM     15  H   UNL     1      33.628 -14.264 -26.788  0.00  0.00    +0.156 HD
ATOM     16  H   UNL     1      33.010 -12.809 -26.148  0.00  0.00    +0.156 HD
ATOM     17  N   UNL     1      33.161 -13.055 -21.369  0.00  0.00    -0.334 N 
ATOM     18  H   UNL     1      32.776 -12.161 -21.519  0.00  0.00    +0.144 HD
ATOM     19  H   UNL     1      33.309 -13.379 -20.451  0.00  0.00    +0.144 HD
ENDBRANCH   1   8
BRANCH   1  20
ATOM     20  C   UNL     1      34.800 -19.960 -21.041  0.00  0.00    +0.096 C 
BRANCH  20  22
ATOM     21  O   UNL     1      34.034 -22.280 -19.534  0.00  0.00    -0.270 OA
ATOM     22  N   UNL     1      35.408 -20.434 -19.825  0.00  0.00    -0.300 N 
ATOM     23  C   UNL     1      34.967 -21.573 -19.163  0.00  0.00    +0.246 C 
ATOM     24  H   UNL     1      36.166 -19.931 -19.447  0.00  0.00    +0.150 HD
BRANCH  23  25
ATOM     25  C   UNL     1      35.682 -21.914 -17.906  0.00  0.00    +0.054 C 
ATOM     26  C   UNL     1      35.030 -22.633 -16.905  0.00  0.00    +0.008 C 
ATOM     27  C   UNL     1      37.007 -21.512 -17.727  0.00  0.00    +0.008 C 
ATOM     28  C   UNL     1      35.702 -22.951 -15.725  0.00  0.00    +0.038 C 
ATOM     29  C   UNL     1      37.678 -21.831 -16.547  0.00  0.00    +0.038 C 
ATOM     30  C   UNL     1      37.026 -22.550 -15.546  0.00  0.00    +0.145 C 
BRANCH  30  31
ATOM     31  O   UNL     1      37.680 -22.859 -14.394  0.00  0.00    -0.453 OA
BRANCH  31  32
ATOM     32  C   UNL     1      37.553 -24.149 -13.906  0.00  0.00    +0.145 C 
ATOM     33  C   UNL     1      37.029 -24.363 -12.632  0.00  0.00    +0.037 C 
ATOM     34  C   UNL     1      37.950 -25.233 -14.689  0.00  0.00    +0.037 C 
ATOM     35  C   UNL     1      36.901 -25.663 -12.140  0.00  0.00    +0.003 C 
ATOM     36  C   UNL     1      37.823 -26.532 -14.197  0.00  0.00    +0.003 C 
ATOM     37  C   UNL     1      37.299 -26.747 -12.923  0.00  0.00    +0.000 C 
ENDBRANCH  31  32
ENDBRANCH  30  31
ENDBRANCH  23  25
ENDBRANCH  20  22
ENDBRANCH   1  20
TORSDOF 6
ENDMDL
MODEL 2
REMARK VINA RESULT:     -11.9      5.095     10.907
REMARK  Name = 25023705
REMARK  6 active torsions:
REMARK  status: ('A' for Active; 'I' for Inactive)
REMARK    1  A    between atoms: C_1  and  C_8
REMARK    2  A    between atoms: C_1  and  C_20
REMARK    3  A    between atoms: C_20  and  N_22
REMARK    4  A    between atoms: C_23  and  C_25
REMARK    5  A    between atoms: C_30  and  O_31
REMARK    6  A    between atoms: O_31  and  C_32
REMARK                            x       y       z     vdW  Elec       q    Type
REMARK                         _______ _______ _______ _____ _____    ______ ____
ROOT
ATOM      1  C   UNL     1      32.944 -24.044 -14.496  0.00  0.00    +0.066 C 
ATOM      2  C   UNL     1      32.477 -22.568 -14.518  0.00  0.00    +0.009 C 
ATOM      3  C   UNL     1      31.856 -24.837 -13.731  0.00  0.00    +0.009 C 
ENDROOT
BRANCH   1   8
ATOM      4  N   UNL     1      35.357 -24.519 -14.643  0.00  0.00    -0.347 NA
ATOM      5  N   UNL     1      37.607 -24.998 -14.908  0.00  0.00    -0.266 NA
ATOM      6  N   UNL     1      39.165 -24.766 -13.087  0.00  0.00    -0.316 NA
ATOM      7  N   UNL     1      39.884 -25.488 -15.196  0.00  0.00    -0.283 N 
ATOM      8  C   UNL     1      34.339 -24.111 -13.846  0.00  0.00    +0.122 C 
ATOM      9  C   UNL     1      34.485 -23.764 -12.520  0.00  0.00    +0.026 C 
ATOM     10  C   UNL     1      35.759 -23.842 -11.984  0.00  0.00    +0.001 C 
ATOM     11  C   UNL     1      36.593 -24.597 -14.131  0.00  0.00    +0.137 C 
ATOM     12  C   UNL     1      36.825 -24.262 -12.793  0.00  0.00    +0.199 C 
ATOM     13  C   UNL     1      38.133 -24.366 -12.326  0.00  0.00    +0.187 C 
ATOM     14  C   UNL     1      38.835 -25.062 -14.352  0.00  0.00    +0.207 C 
ATOM     15  H   UNL     1      39.698 -25.719 -16.134  0.00  0.00    +0.156 HD
ATOM     16  H   UNL     1      40.802 -25.554 -14.844  0.00  0.00    +0.156 HD
ATOM     17  N   UNL     1      38.420 -24.037 -10.978  0.00  0.00    -0.334 N 
ATOM     18  H   UNL     1      39.342 -24.108 -10.640  0.00  0.00    +0.144 HD
ATOM     19  H   UNL     1      37.697 -23.739 -10.379  0.00  0.00    +0.144 HD
ENDBRANCH   1   8
BRANCH   1  20
ATOM     20  C   UNL     1      32.990 -24.560 -15.963  0.00  0.00    +0.096 C 
BRANCH  20  22
ATOM     21  O   UNL     1      31.833 -22.593 -17.704  0.00  0.00    -0.270 OA
ATOM     22  N   UNL     1      33.697 -23.688 -16.865  0.00  0.00    -0.300 N 
ATOM     23  C   UNL     1      33.048 -22.763 -17.672  0.00  0.00    +0.246 C 
ATOM     24  H   UNL     1      34.679 -23.750 -16.911  0.00  0.00    +0.150 HD
BRANCH  23  25
ATOM     25  C   UNL     1      33.918 -21.956 -18.568  0.00  0.00    +0.054 C 
ATOM     26  C   UNL     1      33.348 -21.107 -19.514  0.00  0.00    +0.008 C 
ATOM     27  C   UNL     1      35.307 -22.052 -18.460  0.00  0.00    +0.008 C 
ATOM     28  C   UNL     1      34.165 -20.351 -20.355  0.00  0.00    +0.038 C 
ATOM     29  C   UNL     1      36.124 -21.296 -19.301  0.00  0.00    +0.038 C 
ATOM     30  C   UNL     1      35.553 -20.446 -20.249  0.00  0.00    +0.145 C 
BRANCH  30  31
ATOM     31  O   UNL     1      36.350 -19.711 -21.070  0.00  0.00    -0.453 OA
BRANCH  31  32
ATOM     32  C   UNL     1      35.786 -18.617 -21.705  0.00  0.00    +0.145 C 
ATOM     33  C   UNL     1      35.470 -17.473 -20.973  0.00  0.00    +0.037 C 
ATOM     34  C   UNL     1      35.532 -18.660 -23.076  0.00  0.00    +0.037 C 
ATOM     35  C   UNL     1      34.901 -16.371 -21.612  0.00  0.00    +0.003 C 
ATOM     36  C   UNL     1      34.963 -17.559 -23.715  0.00  0.00    +0.003 C 
ATOM     37  C   UNL     1      34.647 -16.414 -22.983  0.00  0.00    +0.000 C 
ENDBRANCH  31  32
ENDBRANCH  30  31
ENDBRANCH  23  25
ENDBRANCH  20  22
ENDBRANCH   1  20
TORSDOF 6
ENDMDL
MODEL 3
REMARK VINA RESULT:     -11.7      4.603      8.420
REMARK  Name = 25023705
REMARK  6 active torsions:
REMARK  status: ('A' for Active; 'I' for Inactive)
REMARK    1  A    between atoms: C_1  and  C_8
REMARK    2  A    between atoms: C_1  and  C_20
REMARK    3  A    between atoms: C_20  and  N_22
REMARK    4  A    between atoms: C_23  and  C_25
REMARK    5  A    between atoms: C_30  and  O_31
REMARK    6  A    between atoms: O_31  and  C_32
REMARK                            x       y       z     vdW  Elec       q    Type
REMARK                         _______ _______ _______ _____ _____    ______ ____
ROOT
ATOM      1  C   UNL     1      31.921 -11.592 -21.464  0.00  0.00    +0.066 C 
ATOM      2  C   UNL     1      30.486 -11.502 -20.890  0.00  0.00    +0.009 C 
ATOM      3  C   UNL     1      32.817 -12.130 -20.322  0.00  0.00    +0.009 C 
ENDROOT
BRANCH   1   8
ATOM      4  N   UNL     1      31.614  -9.149 -21.522  0.00  0.00    -0.347 NA
ATOM      5  N   UNL     1      31.226  -6.866 -21.490  0.00  0.00    -0.266 NA
ATOM      6  N   UNL     1      32.567  -5.344 -22.786  0.00  0.00    -0.316 NA
ATOM      7  N   UNL     1      30.817  -4.556 -21.446  0.00  0.00    -0.283 N 
ATOM      8  C   UNL     1      32.335 -10.201 -21.980  0.00  0.00    +0.122 C 
ATOM      9  C   UNL     1      33.390 -10.092 -22.860  0.00  0.00    +0.026 C 
ATOM     10  C   UNL     1      33.722  -8.820 -23.294  0.00  0.00    +0.001 C 
ATOM     11  C   UNL     1      31.930  -7.914 -21.936  0.00  0.00    +0.137 C 
ATOM     12  C   UNL     1      32.988  -7.719 -22.830  0.00  0.00    +0.199 C 
ATOM     13  C   UNL     1      33.261  -6.410 -23.220  0.00  0.00    +0.187 C 
ATOM     14  C   UNL     1      31.577  -5.641 -21.933  0.00  0.00    +0.207 C 
ATOM     15  H   UNL     1      30.076  -4.717 -20.817  0.00  0.00    +0.156 HD
ATOM     16  H   UNL     1      31.027  -3.638 -21.735  0.00  0.00    +0.156 HD
ATOM     17  N   UNL     1      34.322  -6.159 -24.124  0.00  0.00    -0.334 N 
ATOM     18  H   UNL     1      34.522  -5.237 -24.405  0.00  0.00    +0.144 HD
ATOM     19  H   UNL     1      34.860  -6.907 -24.472  0.00  0.00    +0.144 HD
ENDBRANCH   1   8
BRANCH   1  20
ATOM     20  C   UNL     1      31.916 -12.633 -22.619  0.00  0.00    +0.096 C 
BRANCH  20  22
ATOM     21  O   UNL     1      34.163 -13.686 -24.063  0.00  0.00    -0.270 OA
ATOM     22  N   UNL     1      32.642 -13.840 -22.319  0.00  0.00    -0.300 N 
ATOM     23  C   UNL     1      33.722 -14.272 -23.078  0.00  0.00    +0.246 C 
ATOM     24  H   UNL     1      32.362 -14.381 -21.545  0.00  0.00    +0.150 HD
BRANCH  23  25
ATOM     25  C   UNL     1      34.347 -15.551 -22.654  0.00  0.00    +0.054 C 
ATOM     26  C   UNL     1      34.557 -15.809 -21.300  0.00  0.00    +0.008 C 
ATOM     27  C   UNL     1      34.724 -16.494 -23.612  0.00  0.00    +0.008 C 
ATOM     28  C   UNL     1      35.145 -17.010 -20.902  0.00  0.00    +0.038 C 
ATOM     29  C   UNL     1      35.311 -17.695 -23.213  0.00  0.00    +0.038 C 
ATOM     30  C   UNL     1      35.522 -17.953 -21.859  0.00  0.00    +0.145 C 
BRANCH  30  31
ATOM     31  O   UNL     1      36.097 -19.123 -21.471  0.00  0.00    -0.453 OA
BRANCH  31  32
ATOM     32  C   UNL     1      35.344 -19.983 -20.690  0.00  0.00    +0.145 C 
ATOM     33  C   UNL     1      35.978 -20.903 -19.855  0.00  0.00    +0.037 C 
ATOM     34  C   UNL     1      33.950 -19.931 -20.740  0.00  0.00    +0.037 C 
ATOM     35  C   UNL     1      35.220 -21.770 -19.069  0.00  0.00    +0.003 C 
ATOM     36  C   UNL     1      33.192 -20.799 -19.953  0.00  0.00    +0.003 C 
ATOM     37  C   UNL     1      33.827 -21.718 -19.118  0.00  0.00    +0.000 C 
ENDBRANCH  31  32
ENDBRANCH  30  31
ENDBRANCH  23  25
ENDBRANCH  20  22
ENDBRANCH   1  20
TORSDOF 6
ENDMDL
MODEL 4
REMARK VINA RESULT:     -11.6      4.678      8.424
REMARK  Name = 25023705
REMARK  6 active torsions:
REMARK  status: ('A' for Active; 'I' for Inactive)
REMARK    1  A    between atoms: C_1  and  C_8
REMARK    2  A    between atoms: C_1  and  C_20
REMARK    3  A    between atoms: C_20  and  N_22
REMARK    4  A    between atoms: C_23  and  C_25
REMARK    5  A    between atoms: C_30  and  O_31
REMARK    6  A    between atoms: O_31  and  C_32
REMARK                            x       y       z     vdW  Elec       q    Type
REMARK                         _______ _______ _______ _____ _____    ______ ____
ROOT
ATOM      1  C   UNL     1      31.600 -11.568 -20.828  0.00  0.00    +0.066 C 
ATOM      2  C   UNL     1      30.098 -11.800 -20.536  0.00  0.00    +0.009 C 
ATOM      3  C   UNL     1      32.381 -12.261 -19.684  0.00  0.00    +0.009 C 
ENDROOT
BRANCH   1   8
ATOM      4  N   UNL     1      31.990  -9.545 -22.179  0.00  0.00    -0.347 NA
ATOM      5  N   UNL     1      32.346  -7.719 -23.557  0.00  0.00    -0.266 NA
ATOM      6  N   UNL     1      32.678  -5.510 -22.658  0.00  0.00    -0.316 NA
ATOM      7  N   UNL     1      32.707  -5.880 -24.970  0.00  0.00    -0.283 N 
ATOM      8  C   UNL     1      31.855 -10.052 -20.929  0.00  0.00    +0.122 C 
ATOM      9  C   UNL     1      31.935  -9.301 -19.776  0.00  0.00    +0.026 C 
ATOM     10  C   UNL     1      32.166  -7.944 -19.922  0.00  0.00    +0.001 C 
ATOM     11  C   UNL     1      32.212  -8.232 -22.328  0.00  0.00    +0.137 C 
ATOM     12  C   UNL     1      32.307  -7.401 -21.207  0.00  0.00    +0.199 C 
ATOM     13  C   UNL     1      32.541  -6.046 -21.434  0.00  0.00    +0.187 C 
ATOM     14  C   UNL     1      32.571  -6.392 -23.662  0.00  0.00    +0.207 C 
ATOM     15  H   UNL     1      32.637  -6.484 -25.745  0.00  0.00    +0.156 HD
ATOM     16  H   UNL     1      32.872  -4.919 -25.107  0.00  0.00    +0.156 HD
ATOM     17  N   UNL     1      32.644  -5.163 -20.331  0.00  0.00    -0.334 N 
ATOM     18  H   UNL     1      32.809  -4.204 -20.483  0.00  0.00    +0.144 HD
ATOM     19  H   UNL     1      32.551  -5.507 -19.414  0.00  0.00    +0.144 HD
ENDBRANCH   1   8
BRANCH   1  20
ATOM     20  C   UNL     1      31.949 -12.280 -22.166  0.00  0.00    +0.096 C 
BRANCH  20  22
ATOM     21  O   UNL     1      34.259 -13.197 -23.603  0.00  0.00    -0.270 OA
ATOM     22  N   UNL     1      32.623 -13.541 -21.996  0.00  0.00    -0.300 N 
ATOM     23  C   UNL     1      33.739 -13.899 -22.741  0.00  0.00    +0.246 C 
ATOM     24  H   UNL     1      32.278 -14.175 -21.325  0.00  0.00    +0.150 HD
BRANCH  23  25
ATOM     25  C   UNL     1      34.301 -15.247 -22.465  0.00  0.00    +0.054 C 
ATOM     26  C   UNL     1      34.512 -15.658 -21.150  0.00  0.00    +0.008 C 
ATOM     27  C   UNL     1      34.619 -16.099 -23.523  0.00  0.00    +0.008 C 
ATOM     28  C   UNL     1      35.042 -16.923 -20.891  0.00  0.00    +0.038 C 
ATOM     29  C   UNL     1      35.147 -17.364 -23.264  0.00  0.00    +0.038 C 
ATOM     30  C   UNL     1      35.359 -17.775 -21.949  0.00  0.00    +0.145 C 
BRANCH  30  31
ATOM     31  O   UNL     1      35.878 -19.008 -21.697  0.00  0.00    -0.453 OA
BRANCH  31  32
ATOM     32  C   UNL     1      35.157 -19.853 -20.869  0.00  0.00    +0.145 C 
ATOM     33  C   UNL     1      33.762 -19.827 -20.891  0.00  0.00    +0.037 C 
ATOM     34  C   UNL     1      35.825 -20.728 -20.013  0.00  0.00    +0.037 C 
ATOM     35  C   UNL     1      33.035 -20.677 -20.057  0.00  0.00    +0.003 C 
ATOM     36  C   UNL     1      35.098 -21.578 -19.178  0.00  0.00    +0.003 C 
ATOM     37  C   UNL     1      33.704 -21.552 -19.201  0.00  0.00    +0.000 C 
ENDBRANCH  31  32
ENDBRANCH  30  31
ENDBRANCH  23  25
ENDBRANCH  20  22
ENDBRANCH   1  20
TORSDOF 6
ENDMDL
MODEL 5
REMARK VINA RESULT:     -11.4      1.276      1.939
REMARK  Name = 25023705
REMARK  6 active torsions:
REMARK  status: ('A' for Active; 'I' for Inactive)
REMARK    1  A    between atoms: C_1  and  C_8
REMARK    2  A    between atoms: C_1  and  C_20
REMARK    3  A    between atoms: C_20  and  N_22
REMARK    4  A    between atoms: C_23  and  C_25
REMARK    5  A    between atoms: C_30  and  O_31
REMARK    6  A    between atoms: O_31  and  C_32
REMARK                            x       y       z     vdW  Elec       q    Type
REMARK                         _______ _______ _______ _____ _____    ______ ____
ROOT
ATOM      1  C   UNL     1      35.916 -18.669 -21.645  0.00  0.00    +0.066 C 
ATOM      2  C   UNL     1      36.616 -18.656 -20.265  0.00  0.00    +0.009 C 
ATOM      3  C   UNL     1      37.020 -18.949 -22.694  0.00  0.00    +0.009 C 
ENDROOT
BRANCH   1   8
ATOM      4  N   UNL     1      34.973 -16.940 -23.126  0.00  0.00    -0.347 NA
ATOM      5  N   UNL     1      34.123 -15.390 -24.621  0.00  0.00    -0.266 NA
ATOM      6  N   UNL     1      33.053 -13.369 -23.866  0.00  0.00    -0.316 NA
ATOM      7  N   UNL     1      33.268 -13.830 -26.152  0.00  0.00    -0.283 N 
ATOM      8  C   UNL     1      35.193 -17.323 -21.844  0.00  0.00    +0.122 C 
ATOM      9  C   UNL     1      34.814 -16.588 -20.741  0.00  0.00    +0.026 C 
ATOM     10  C   UNL     1      34.169 -15.387 -20.974  0.00  0.00    +0.001 C 
ATOM     11  C   UNL     1      34.347 -15.779 -23.360  0.00  0.00    +0.137 C 
ATOM     12  C   UNL     1      33.931 -14.974 -22.293  0.00  0.00    +0.199 C 
ATOM     13  C   UNL     1      33.288 -13.779 -22.608  0.00  0.00    +0.187 C 
ATOM     14  C   UNL     1      33.491 -14.213 -24.811  0.00  0.00    +0.207 C 
ATOM     15  H   UNL     1      33.570 -14.411 -26.886  0.00  0.00    +0.156 HD
ATOM     16  H   UNL     1      32.811 -12.980 -26.351  0.00  0.00    +0.156 HD
ATOM     17  N   UNL     1      32.847 -12.930 -21.564  0.00  0.00    -0.334 N 
ATOM     18  H   UNL     1      32.391 -12.083 -21.778  0.00  0.00    +0.144 HD
ATOM     19  H   UNL     1      32.996 -13.185 -20.625  0.00  0.00    +0.144 HD
ENDBRANCH   1   8
BRANCH   1  20
ATOM     20  C   UNL     1      34.905 -19.850 -21.666  0.00  0.00    +0.096 C 
BRANCH  20  22
ATOM     21  O   UNL     1      32.596 -20.846 -20.281  0.00  0.00    -0.270 OA
ATOM     22  N   UNL     1      34.899 -20.632 -20.456  0.00  0.00    -0.300 N 
ATOM     23  C   UNL     1      33.725 -21.071 -19.856  0.00  0.00    +0.246 C 
ATOM     24  H   UNL     1      35.760 -20.863 -20.038  0.00  0.00    +0.150 HD
BRANCH  23  25
ATOM     25  C   UNL     1      33.888 -21.844 -18.597  0.00  0.00    +0.054 C 
ATOM     26  C   UNL     1      35.160 -22.062 -18.072  0.00  0.00    +0.008 C 
ATOM     27  C   UNL     1      32.764 -22.352 -17.942  0.00  0.00    +0.008 C 
ATOM     28  C   UNL     1      35.312 -22.789 -16.891  0.00  0.00    +0.038 C 
ATOM     29  C   UNL     1      32.916 -23.078 -16.761  0.00  0.00    +0.038 C 
ATOM     30  C   UNL     1      34.190 -23.297 -16.236  0.00  0.00    +0.145 C 
BRANCH  30  31
ATOM     31  O   UNL     1      34.338 -24.008 -15.085  0.00  0.00    -0.453 OA
BRANCH  31  32
ATOM     32  C   UNL     1      35.613 -24.431 -14.749  0.00  0.00    +0.145 C 
ATOM     33  C   UNL     1      36.004 -25.743 -15.013  0.00  0.00    +0.037 C 
ATOM     34  C   UNL     1      36.505 -23.545 -14.144  0.00  0.00    +0.037 C 
ATOM     35  C   UNL     1      37.288 -26.170 -14.673  0.00  0.00    +0.003 C 
ATOM     36  C   UNL     1      37.789 -23.972 -13.804  0.00  0.00    +0.003 C 
ATOM     37  C   UNL     1      38.180 -25.284 -14.068  0.00  0.00    +0.000 C 
ENDBRANCH  31  32
ENDBRANCH  30  31
ENDBRANCH  23  25
ENDBRANCH  20  22
ENDBRANCH   1  20
TORSDOF 6
ENDMDL
MODEL 6
REMARK VINA RESULT:     -11.4      1.271      2.176
REMARK  Name = 25023705
REMARK  6 active torsions:
REMARK  status: ('A' for Active; 'I' for Inactive)
REMARK    1  A    between atoms: C_1  and  C_8
REMARK    2  A    between atoms: C_1  and  C_20
REMARK    3  A    between atoms: C_20  and  N_22
REMARK    4  A    between atoms: C_23  and  C_25
REMARK    5  A    between atoms: C_30  and  O_31
REMARK    6  A    between atoms: O_31  and  C_32
REMARK                            x       y       z     vdW  Elec       q    Type
REMARK                         _______ _______ _______ _____ _____    ______ ____
ROOT
ATOM      1  C   UNL     1      35.557 -18.936 -21.780  0.00  0.00    +0.066 C 
ATOM      2  C   UNL     1      36.631 -18.753 -20.680  0.00  0.00    +0.009 C 
ATOM      3  C   UNL     1      36.232 -19.734 -22.923  0.00  0.00    +0.009 C 
ENDROOT
BRANCH   1   8
ATOM      4  N   UNL     1      34.433 -16.810 -21.248  0.00  0.00    -0.347 NA
ATOM      5  N   UNL     1      33.362 -14.855 -20.622  0.00  0.00    -0.266 NA
ATOM      6  N   UNL     1      32.991 -13.066 -22.191  0.00  0.00    -0.316 NA
ATOM      7  N   UNL     1      32.274 -12.880 -19.970  0.00  0.00    -0.283 N 
ATOM      8  C   UNL     1      35.044 -17.547 -22.206  0.00  0.00    +0.122 C 
ATOM      9  C   UNL     1      35.225 -17.130 -23.507  0.00  0.00    +0.026 C 
ATOM     10  C   UNL     1      34.746 -15.874 -23.839  0.00  0.00    +0.001 C 
ATOM     11  C   UNL     1      33.967 -15.593 -21.560  0.00  0.00    +0.137 C 
ATOM     12  C   UNL     1      34.110 -15.096 -22.860  0.00  0.00    +0.199 C 
ATOM     13  C   UNL     1      33.602 -13.825 -23.117  0.00  0.00    +0.187 C 
ATOM     14  C   UNL     1      32.907 -13.636 -20.980  0.00  0.00    +0.207 C 
ATOM     15  H   UNL     1      32.183 -13.250 -19.062  0.00  0.00    +0.156 HD
ATOM     16  H   UNL     1      31.922 -11.983 -20.174  0.00  0.00    +0.156 HD
ATOM     17  N   UNL     1      33.723 -13.276 -24.417  0.00  0.00    -0.334 N 
ATOM     18  H   UNL     1      33.366 -12.378 -24.607  0.00  0.00    +0.144 HD
ATOM     19  H   UNL     1      34.162 -13.792 -25.131  0.00  0.00    +0.144 HD
ENDBRANCH   1   8
BRANCH   1  20
ATOM     20  C   UNL     1      34.403 -19.797 -21.192  0.00  0.00    +0.096 C 
BRANCH  20  22
ATOM     21  O   UNL     1      32.956 -21.936 -19.939  0.00  0.00    -0.270 OA
ATOM     22  N   UNL     1      34.738 -20.451 -19.953  0.00  0.00    -0.300 N 
ATOM     23  C   UNL     1      33.973 -21.482 -19.422  0.00  0.00    +0.246 C 
ATOM     24  H   UNL     1      35.539 -20.155 -19.463  0.00  0.00    +0.150 HD
BRANCH  23  25
ATOM     25  C   UNL     1      34.437 -22.033 -18.122  0.00  0.00    +0.054 C 
ATOM     26  C   UNL     1      33.534 -22.677 -17.276  0.00  0.00    +0.008 C 
ATOM     27  C   UNL     1      35.775 -21.905 -17.749  0.00  0.00    +0.008 C 
ATOM     28  C   UNL     1      33.970 -23.193 -16.056  0.00  0.00    +0.038 C 
ATOM     29  C   UNL     1      36.210 -22.422 -16.528  0.00  0.00    +0.038 C 
ATOM     30  C   UNL     1      35.307 -23.065 -15.682  0.00  0.00    +0.145 C 
BRANCH  30  31
ATOM     31  O   UNL     1      35.732 -23.566 -14.490  0.00  0.00    -0.453 OA
BRANCH  31  32
ATOM     32  C   UNL     1      36.614 -24.633 -14.518  0.00  0.00    +0.145 C 
ATOM     33  C   UNL     1      37.965 -24.427 -14.238  0.00  0.00    +0.037 C 
ATOM     34  C   UNL     1      36.153 -25.913 -14.828  0.00  0.00    +0.037 C 
ATOM     35  C   UNL     1      38.855 -25.501 -14.267  0.00  0.00    +0.003 C 
ATOM     36  C   UNL     1      37.043 -26.986 -14.857  0.00  0.00    +0.003 C 
ATOM     37  C   UNL     1      38.394 -26.781 -14.577  0.00  0.00    +0.000 C 
ENDBRANCH  31  32
ENDBRANCH  30  31
ENDBRANCH  23  25
ENDBRANCH  20  22
ENDBRANCH   1  20
TORSDOF 6
ENDMDL
MODEL 7
REMARK VINA RESULT:     -11.3      4.690     10.347
REMARK  Name = 25023705
REMARK  6 active torsions:
REMARK  status: ('A' for Active; 'I' for Inactive)
REMARK    1  A    between atoms: C_1  and  C_8
REMARK    2  A    between atoms: C_1  and  C_20
REMARK    3  A    between atoms: C_20  and  N_22
REMARK    4  A    between atoms: C_23  and  C_25
REMARK    5  A    between atoms: C_30  and  O_31
REMARK    6  A    between atoms: O_31  and  C_32
REMARK                            x       y       z     vdW  Elec       q    Type
REMARK                         _______ _______ _______ _____ _____    ______ ____
ROOT
ATOM      1  C   UNL     1      34.654 -23.491 -15.325  0.00  0.00    +0.066 C 
ATOM      2  C   UNL     1      35.519 -24.281 -14.314  0.00  0.00    +0.009 C 
ATOM      3  C   UNL     1      35.010 -21.996 -15.135  0.00  0.00    +0.009 C 
ENDROOT
BRANCH   1   8
ATOM      4  N   UNL     1      32.271 -23.235 -15.897  0.00  0.00    -0.347 NA
ATOM      5  N   UNL     1      30.068 -22.915 -16.534  0.00  0.00    -0.266 NA
ATOM      6  N   UNL     1      28.253 -23.982 -15.365  0.00  0.00    -0.316 NA
ATOM      7  N   UNL     1      27.841 -22.578 -17.194  0.00  0.00    -0.283 N 
ATOM      8  C   UNL     1      33.170 -23.817 -15.066  0.00  0.00    +0.122 C 
ATOM      9  C   UNL     1      32.834 -24.660 -14.029  0.00  0.00    +0.026 C 
ATOM     10  C   UNL     1      31.488 -24.920 -13.839  0.00  0.00    +0.001 C 
ATOM     11  C   UNL     1      30.966 -23.483 -15.720  0.00  0.00    +0.137 C 
ATOM     12  C   UNL     1      30.543 -24.328 -14.688  0.00  0.00    +0.199 C 
ATOM     13  C   UNL     1      29.172 -24.541 -14.560  0.00  0.00    +0.187 C 
ATOM     14  C   UNL     1      28.765 -23.191 -16.319  0.00  0.00    +0.207 C 
ATOM     15  H   UNL     1      28.162 -21.986 -17.912  0.00  0.00    +0.156 HD
ATOM     16  H   UNL     1      26.876 -22.743 -17.084  0.00  0.00    +0.156 HD
ATOM     17  N   UNL     1      28.692 -25.390 -13.532  0.00  0.00    -0.334 N 
ATOM     18  H   UNL     1      27.725 -25.545 -13.434  0.00  0.00    +0.144 HD
ATOM     19  H   UNL     1      29.325 -25.823 -12.915  0.00  0.00    +0.144 HD
ENDBRANCH   1   8
BRANCH   1  20
ATOM     20  C   UNL     1      35.073 -23.919 -16.760  0.00  0.00    +0.096 C 
BRANCH  20  22
ATOM     21  O   UNL     1      33.486 -23.090 -19.004  0.00  0.00    -0.270 OA
ATOM     22  N   UNL     1      35.344 -22.813 -17.642  0.00  0.00    -0.300 N 
ATOM     23  C   UNL     1      34.514 -22.487 -18.707  0.00  0.00    +0.246 C 
ATOM     24  H   UNL     1      36.148 -22.268 -17.485  0.00  0.00    +0.150 HD
BRANCH  23  25
ATOM     25  C   UNL     1      34.946 -21.334 -19.540  0.00  0.00    +0.054 C 
ATOM     26  C   UNL     1      36.291 -20.968 -19.579  0.00  0.00    +0.008 C 
ATOM     27  C   UNL     1      34.005 -20.619 -20.281  0.00  0.00    +0.008 C 
ATOM     28  C   UNL     1      36.695 -19.885 -20.360  0.00  0.00    +0.038 C 
ATOM     29  C   UNL     1      34.410 -19.536 -21.062  0.00  0.00    +0.038 C 
ATOM     30  C   UNL     1      35.755 -19.170 -21.101  0.00  0.00    +0.145 C 
BRANCH  30  31
ATOM     31  O   UNL     1      36.150 -18.112 -21.861  0.00  0.00    -0.453 OA
BRANCH  31  32
ATOM     32  C   UNL     1      35.312 -17.010 -21.916  0.00  0.00    +0.145 C 
ATOM     33  C   UNL     1      34.955 -16.468 -23.150  0.00  0.00    +0.037 C 
ATOM     34  C   UNL     1      34.828 -16.443 -20.737  0.00  0.00    +0.037 C 
ATOM     35  C   UNL     1      34.112 -15.357 -23.206  0.00  0.00    +0.003 C 
ATOM     36  C   UNL     1      33.985 -15.332 -20.793  0.00  0.00    +0.003 C 
ATOM     37  C   UNL     1      33.628 -14.790 -22.027  0.00  0.00    +0.000 C 
ENDBRANCH  31  32
ENDBRANCH  30  31
ENDBRANCH  23  25
ENDBRANCH  20  22
ENDBRANCH   1  20
TORSDOF 6
ENDMDL
MODEL 8
REMARK VINA RESULT:     -10.8      3.705     11.340
REMARK  Name = 25023705
REMARK  6 active torsions:
REMARK  status: ('A' for Active; 'I' for Inactive)
REMARK    1  A    between atoms: C_1  and  C_8
REMARK    2  A    between atoms: C_1  and  C_20
REMARK    3  A    between atoms: C_20  and  N_22
REMARK    4  A    between atoms: C_23  and  C_25
REMARK    5  A    between atoms: C_30  and  O_31
REMARK    6  A    between atoms: O_31  and  C_32
REMARK                            x       y       z     vdW  Elec       q    Type
REMARK                         _______ _______ _______ _____ _____    ______ ____
ROOT
ATOM      1  C   UNL     1      35.581 -18.836 -22.275  0.00  0.00    +0.066 C 
ATOM      2  C   UNL     1      34.400 -18.444 -23.195  0.00  0.00    +0.009 C 
ATOM      3  C   UNL     1      36.637 -19.514 -23.182  0.00  0.00    +0.009 C 
ENDROOT
BRANCH   1   8
ATOM      4  N   UNL     1      35.971 -20.239 -20.288  0.00  0.00    -0.347 NA
ATOM      5  N   UNL     1      36.467 -21.529 -18.430  0.00  0.00    -0.266 NA
ATOM      6  N   UNL     1      34.747 -22.690 -17.208  0.00  0.00    -0.316 NA
ATOM      7  N   UNL     1      36.990 -22.832 -16.549  0.00  0.00    -0.283 N 
ATOM      8  C   UNL     1      35.049 -19.744 -21.149  0.00  0.00    +0.122 C 
ATOM      9  C   UNL     1      33.698 -20.006 -21.072  0.00  0.00    +0.026 C 
ATOM     10  C   UNL     1      33.273 -20.827 -20.043  0.00  0.00    +0.001 C 
ATOM     11  C   UNL     1      35.567 -21.034 -19.288  0.00  0.00    +0.137 C 
ATOM     12  C   UNL     1      34.211 -21.349 -19.141  0.00  0.00    +0.199 C 
ATOM     13  C   UNL     1      33.861 -22.182 -18.081  0.00  0.00    +0.187 C 
ATOM     14  C   UNL     1      36.017 -22.326 -17.439  0.00  0.00    +0.207 C 
ATOM     15  H   UNL     1      37.938 -22.599 -16.672  0.00  0.00    +0.156 HD
ATOM     16  H   UNL     1      36.719 -23.420 -15.806  0.00  0.00    +0.156 HD
ATOM     17  N   UNL     1      32.501 -22.529 -17.889  0.00  0.00    -0.334 N 
ATOM     18  H   UNL     1      32.244 -23.118 -17.142  0.00  0.00    +0.144 HD
ATOM     19  H   UNL     1      31.813 -22.183 -18.502  0.00  0.00    +0.144 HD
ENDBRANCH   1   8
BRANCH   1  20
ATOM     20  C   UNL     1      36.195 -17.532 -21.692  0.00  0.00    +0.096 C 
BRANCH  20  22
ATOM     21  O   UNL     1      34.608 -16.244 -19.676  0.00  0.00    -0.270 OA
ATOM     22  N   UNL     1      35.364 -16.369 -21.865  0.00  0.00    -0.300 N 
ATOM     23  C   UNL     1      34.628 -15.814 -20.826  0.00  0.00    +0.246 C 
ATOM     24  H   UNL     1      35.314 -15.951 -22.755  0.00  0.00    +0.150 HD
BRANCH  23  25
ATOM     25  C   UNL     1      33.799 -14.631 -21.173  0.00  0.00    +0.054 C 
ATOM     26  C   UNL     1      32.746 -14.249 -20.343  0.00  0.00    +0.008 C 
ATOM     27  C   UNL     1      34.075 -13.904 -22.332  0.00  0.00    +0.008 C 
ATOM     28  C   UNL     1      31.967 -13.140 -20.672  0.00  0.00    +0.038 C 
ATOM     29  C   UNL     1      33.296 -12.793 -22.659  0.00  0.00    +0.038 C 
ATOM     30  C   UNL     1      32.242 -12.412 -21.829  0.00  0.00    +0.145 C 
BRANCH  30  31
ATOM     31  O   UNL     1      31.481 -11.331 -22.151  0.00  0.00    -0.453 OA
BRANCH  31  32
ATOM     32  C   UNL     1      31.898 -10.091 -21.695  0.00  0.00    +0.145 C 
ATOM     33  C   UNL     1      32.471  -9.180 -22.582  0.00  0.00    +0.037 C 
ATOM     34  C   UNL     1      31.748  -9.755 -20.349  0.00  0.00    +0.037 C 
ATOM     35  C   UNL     1      32.894  -7.932 -22.124  0.00  0.00    +0.003 C 
ATOM     36  C   UNL     1      32.170  -8.507 -19.891  0.00  0.00    +0.003 C 
ATOM     37  C   UNL     1      32.743  -7.596 -20.778  0.00  0.00    +0.000 C 
ENDBRANCH  31  32
ENDBRANCH  30  31
ENDBRANCH  23  25
ENDBRANCH  20  22
ENDBRANCH   1  20
TORSDOF 6
ENDMDL
MODEL 9
REMARK VINA RESULT:     -10.6      7.041     11.415
REMARK  Name = 25023705
REMARK  6 active torsions:
REMARK  status: ('A' for Active; 'I' for Inactive)
REMARK    1  A    between atoms: C_1  and  C_8
REMARK    2  A    between atoms: C_1  and  C_20
REMARK    3  A    between atoms: C_20  and  N_22
REMARK    4  A    between atoms: C_23  and  C_25
REMARK    5  A    between atoms: C_30  and  O_31
REMARK    6  A    between atoms: O_31  and  C_32
REMARK                            x       y       z     vdW  Elec       q    Type
REMARK                         _______ _______ _______ _____ _____    ______ ____
ROOT
ATOM      1  C   UNL     1      32.280  -7.462 -21.932  0.00  0.00    +0.066 C 
ATOM      2  C   UNL     1      31.242  -6.487 -21.324  0.00  0.00    +0.009 C 
ATOM      3  C   UNL     1      33.204  -7.900 -20.769  0.00  0.00    +0.009 C 
ENDROOT
BRANCH   1   8
ATOM      4  N   UNL     1      32.355  -5.726 -23.678  0.00  0.00    -0.347 NA
ATOM      5  N   UNL     1      32.304  -4.056 -25.281  0.00  0.00    -0.266 NA
ATOM      6  N   UNL     1      34.160  -3.684 -26.770  0.00  0.00    -0.316 NA
ATOM      7  N   UNL     1      32.234  -2.358 -26.900  0.00  0.00    -0.283 N 
ATOM      8  C   UNL     1      33.017  -6.745 -23.080  0.00  0.00    +0.122 C 
ATOM      9  C   UNL     1      34.281  -7.164 -23.437  0.00  0.00    +0.026 C 
ATOM     10  C   UNL     1      34.900  -6.487 -24.474  0.00  0.00    +0.001 C 
ATOM     11  C   UNL     1      32.947  -5.065 -24.682  0.00  0.00    +0.137 C 
ATOM     12  C   UNL     1      34.231  -5.429 -25.105  0.00  0.00    +0.199 C 
ATOM     13  C   UNL     1      34.787  -4.701 -26.155  0.00  0.00    +0.187 C 
ATOM     14  C   UNL     1      32.937  -3.419 -26.288  0.00  0.00    +0.207 C 
ATOM     15  H   UNL     1      31.332  -2.120 -26.587  0.00  0.00    +0.156 HD
ATOM     16  H   UNL     1      32.647  -1.857 -27.641  0.00  0.00    +0.156 HD
ATOM     17  N   UNL     1      36.084  -5.029 -26.619  0.00  0.00    -0.334 N 
ATOM     18  H   UNL     1      36.485  -4.520 -27.361  0.00  0.00    +0.144 HD
ATOM     19  H   UNL     1      36.585  -5.767 -26.201  0.00  0.00    +0.144 HD
ENDBRANCH   1   8
BRANCH   1  20
ATOM     20  C   UNL     1      31.520  -8.713 -22.457  0.00  0.00    +0.096 C 
BRANCH  20  22
ATOM     21  O   UNL     1      30.463 -11.177 -21.430  0.00  0.00    -0.270 OA
ATOM     22  N   UNL     1      32.239  -9.948 -22.278  0.00  0.00    -0.300 N 
ATOM     23  C   UNL     1      31.640 -11.095 -21.771  0.00  0.00    +0.246 C 
ATOM     24  H   UNL     1      33.191  -9.981 -22.523  0.00  0.00    +0.150 HD
BRANCH  23  25
ATOM     25  C   UNL     1      32.524 -12.280 -21.622  0.00  0.00    +0.054 C 
ATOM     26  C   UNL     1      32.370 -13.132 -20.529  0.00  0.00    +0.008 C 
ATOM     27  C   UNL     1      33.510 -12.537 -22.576  0.00  0.00    +0.008 C 
ATOM     28  C   UNL     1      33.201 -14.243 -20.390  0.00  0.00    +0.038 C 
ATOM     29  C   UNL     1      34.341 -13.649 -22.435  0.00  0.00    +0.038 C 
ATOM     30  C   UNL     1      34.187 -14.501 -21.342  0.00  0.00    +0.145 C 
BRANCH  30  31
ATOM     31  O   UNL     1      34.999 -15.584 -21.205  0.00  0.00    -0.453 OA
BRANCH  31  32
ATOM     32  C   UNL     1      34.944 -16.559 -22.187  0.00  0.00    +0.145 C 
ATOM     33  C   UNL     1      34.846 -16.192 -23.529  0.00  0.00    +0.037 C 
ATOM     34  C   UNL     1      34.986 -17.908 -21.834  0.00  0.00    +0.037 C 
ATOM     35  C   UNL     1      34.789 -17.173 -24.519  0.00  0.00    +0.003 C 
ATOM     36  C   UNL     1      34.930 -18.890 -22.824  0.00  0.00    +0.003 C 
ATOM     37  C   UNL     1      34.831 -18.522 -24.166  0.00  0.00    +0.000 C 
ENDBRANCH  31  32
ENDBRANCH  30  31
ENDBRANCH  23  25
ENDBRANCH  20  22
ENDBRANCH   1  20
TORSDOF 6
ENDMDL
