MODEL 1
REMARK VINA RESULT:     -12.7      0.000      0.000
REMARK  Name = 4369496
REMARK  6 active torsions:
REMARK  status: ('A' for Active; 'I' for Inactive)
REMARK    1  A    between atoms: N_2  and  C_21
REMARK    2  A    between atoms: C_3  and  C_10
REMARK    3  A    between atoms: C_5  and  C_11
REMARK    4  A    between atoms: C_11  and  N_12
REMARK    5  A    between atoms: C_23  and  N_27
REMARK    6  A    between atoms: C_31  and  C_36
REMARK                            x       y       z     vdW  Elec       q    Type
REMARK                         _______ _______ _______ _____ _____    ______ ____
ROOT
ATOM      1  O   UNL     1      34.187 -23.550 -17.800  0.00  0.00    -0.270 OA
ATOM      2  N   UNL     1      32.343 -22.148 -17.432  0.00  0.00    -0.280 N 
ATOM      3  C   UNL     1      33.523 -22.539 -18.079  0.00  0.00    +0.249 C 
ATOM      4  H   UNL     1      31.927 -21.321 -17.765  0.00  0.00    +0.155 HD
ENDROOT
BRANCH   3  10
ATOM      5  C   UNL     1      34.882 -19.970 -21.153  0.00  0.00    -0.043 C 
ATOM      6  C   UNL     1      35.802 -20.707 -20.422  0.00  0.00    -0.006 C 
ATOM      7  C   UNL     1      33.522 -20.063 -20.892  0.00  0.00    -0.006 C 
ATOM      8  C   UNL     1      35.354 -21.555 -19.409  0.00  0.00    +0.004 C 
ATOM      9  C   UNL     1      33.074 -20.911 -19.879  0.00  0.00    +0.004 C 
ATOM     10  C   UNL     1      33.990 -21.657 -19.137  0.00  0.00    +0.054 C 
BRANCH   5  11
ATOM     11  C   UNL     1      35.365 -19.056 -22.247  0.00  0.00    -0.050 C 
BRANCH  11  12
ATOM     12  N   UNL     1      34.690 -17.760 -22.211  0.00  0.00    +0.387 N 
ATOM     13  N   UNL     1      34.661 -14.869 -22.227  0.00  0.00    +0.383 N 
ATOM     14  C   UNL     1      34.948 -17.003 -23.441  0.00  0.00    -0.100 C 
ATOM     15  C   UNL     1      35.109 -16.987 -21.036  0.00  0.00    -0.100 C 
ATOM     16  C   UNL     1      34.243 -15.643 -23.403  0.00  0.00    -0.101 C 
ATOM     17  C   UNL     1      34.404 -15.627 -20.996  0.00  0.00    -0.101 C 
ATOM     18  C   UNL     1      33.985 -13.574 -22.191  0.00  0.00    -0.101 C 
ATOM     19  H   UNL     1      33.687 -17.929 -22.143  0.00  0.00    -0.079 HD
ATOM     20  H   UNL     1      35.665 -14.698 -22.296  0.00  0.00    -0.080 HD
ENDBRANCH  11  12
ENDBRANCH   5  11
ENDBRANCH   3  10
BRANCH   2  21
ATOM     21  C   UNL     1      31.670 -22.788 -16.362  0.00  0.00    +0.052 C 
ATOM     22  C   UNL     1      32.401 -23.231 -15.273  0.00  0.00    +0.030 C 
ATOM     23  C   UNL     1      31.738 -23.863 -14.220  0.00  0.00    +0.059 C 
ATOM     24  C   UNL     1      30.298 -22.954 -16.430  0.00  0.00    +0.015 C 
ATOM     25  C   UNL     1      30.355 -24.039 -14.272  0.00  0.00    +0.015 C 
ATOM     26  C   UNL     1      29.635 -23.584 -15.376  0.00  0.00    +0.003 C 
BRANCH  23  27
ATOM     27  N   UNL     1      32.466 -24.320 -13.101  0.00  0.00    -0.247 N 
ATOM     28  N   UNL     1      34.676 -23.888 -13.762  0.00  0.00    -0.337 NA
ATOM     29  N   UNL     1      34.196 -24.883 -11.620  0.00  0.00    -0.170 NA
ATOM     30  C   UNL     1      33.844 -24.366 -12.815  0.00  0.00    +0.149 C 
ATOM     31  C   UNL     1      35.989 -23.948 -13.454  0.00  0.00    +0.147 C 
ATOM     32  C   UNL     1      36.474 -24.453 -12.266  0.00  0.00    +0.055 C 
ATOM     33  C   UNL     1      35.524 -24.911 -11.378  0.00  0.00    +0.114 C 
ATOM     34  H   UNL     1      31.900 -24.679 -12.381  0.00  0.00    +0.165 HD
BRANCH  31  36
ATOM     35  N   UNL     1      39.041 -23.513 -15.548  0.00  0.00    -0.242 NA
ATOM     36  C   UNL     1      36.879 -23.436 -14.467  0.00  0.00    +0.050 C 
ATOM     37  C   UNL     1      36.482 -22.413 -15.322  0.00  0.00    +0.006 C 
ATOM     38  C   UNL     1      38.158 -23.947 -14.620  0.00  0.00    +0.101 C 
ATOM     39  C   UNL     1      37.363 -21.940 -16.289  0.00  0.00    +0.021 C 
ATOM     40  C   UNL     1      38.619 -22.519 -16.359  0.00  0.00    +0.099 C 
ENDBRANCH  31  36
ENDBRANCH  23  27
ENDBRANCH   2  21
TORSDOF 6
ENDMDL
MODEL 2
REMARK VINA RESULT:     -12.5      2.246      5.328
REMARK  Name = 4369496
REMARK  6 active torsions:
REMARK  status: ('A' for Active; 'I' for Inactive)
REMARK    1  A    between atoms: N_2  and  C_21
REMARK    2  A    between atoms: C_3  and  C_10
REMARK    3  A    between atoms: C_5  and  C_11
REMARK    4  A    between atoms: C_11  and  N_12
REMARK    5  A    between atoms: C_23  and  N_27
REMARK    6  A    between atoms: C_31  and  C_36
REMARK                            x       y       z     vdW  Elec       q    Type
REMARK                         _______ _______ _______ _____ _____    ______ ____
ROOT
ATOM      1  O   UNL     1      36.610 -18.212 -20.632  0.00  0.00    -0.270 OA
ATOM      2  N   UNL     1      34.455 -19.111 -20.853  0.00  0.00    -0.280 N 
ATOM      3  C   UNL     1      35.447 -18.142 -21.060  0.00  0.00    +0.249 C 
ATOM      4  H   UNL     1      33.578 -18.916 -21.254  0.00  0.00    +0.155 HD
ENDROOT
BRANCH   3  10
ATOM      5  C   UNL     1      34.268 -14.726 -23.257  0.00  0.00    -0.043 C 
ATOM      6  C   UNL     1      34.665 -15.871 -23.934  0.00  0.00    -0.006 C 
ATOM      7  C   UNL     1      34.252 -14.685 -21.870  0.00  0.00    -0.006 C 
ATOM      8  C   UNL     1      35.052 -16.998 -23.209  0.00  0.00    +0.004 C 
ATOM      9  C   UNL     1      34.640 -15.812 -21.146  0.00  0.00    +0.004 C 
ATOM     10  C   UNL     1      35.040 -16.968 -21.815  0.00  0.00    +0.054 C 
BRANCH   5  11
ATOM     11  C   UNL     1      33.848 -13.510 -24.039  0.00  0.00    -0.050 C 
BRANCH  11  12
ATOM     12  N   UNL     1      33.640 -12.351 -23.172  0.00  0.00    +0.387 N 
ATOM     13  N   UNL     1      32.259  -9.935 -22.389  0.00  0.00    +0.383 N 
ATOM     14  C   UNL     1      32.314 -12.401 -22.546  0.00  0.00    -0.100 C 
ATOM     15  C   UNL     1      33.804 -11.101 -23.925  0.00  0.00    -0.100 C 
ATOM     16  C   UNL     1      32.094 -11.186 -21.638  0.00  0.00    -0.101 C 
ATOM     17  C   UNL     1      33.585  -9.885 -23.018  0.00  0.00    -0.101 C 
ATOM     18  C   UNL     1      32.052  -8.778 -21.522  0.00  0.00    -0.101 C 
ATOM     19  H   UNL     1      34.344 -12.378 -22.436  0.00  0.00    -0.079 HD
ATOM     20  H   UNL     1      31.552  -9.907 -23.126  0.00  0.00    -0.080 HD
ENDBRANCH  11  12
ENDBRANCH   5  11
ENDBRANCH   3  10
BRANCH   2  21
ATOM     21  C   UNL     1      34.549 -20.333 -20.143  0.00  0.00    +0.052 C 
ATOM     22  C   UNL     1      33.453 -20.787 -19.430  0.00  0.00    +0.030 C 
ATOM     23  C   UNL     1      33.547 -21.990 -18.729  0.00  0.00    +0.059 C 
ATOM     24  C   UNL     1      35.736 -21.044 -20.177  0.00  0.00    +0.015 C 
ATOM     25  C   UNL     1      34.735 -22.720 -18.753  0.00  0.00    +0.015 C 
ATOM     26  C   UNL     1      35.829 -22.248 -19.477  0.00  0.00    +0.003 C 
BRANCH  23  27
ATOM     27  N   UNL     1      32.439 -22.468 -17.998  0.00  0.00    -0.247 N 
ATOM     28  N   UNL     1      33.440 -23.096 -15.970  0.00  0.00    -0.337 NA
ATOM     29  N   UNL     1      31.071 -23.369 -16.318  0.00  0.00    -0.170 NA
ATOM     30  C   UNL     1      32.311 -23.003 -16.701  0.00  0.00    +0.149 C 
ATOM     31  C   UNL     1      33.280 -23.612 -14.734  0.00  0.00    +0.147 C 
ATOM     32  C   UNL     1      32.065 -24.022 -14.226  0.00  0.00    +0.055 C 
ATOM     33  C   UNL     1      30.984 -23.877 -15.071  0.00  0.00    +0.114 C 
ATOM     34  H   UNL     1      31.589 -22.420 -18.492  0.00  0.00    +0.165 HD
BRANCH  31  36
ATOM     35  N   UNL     1      35.567 -24.383 -11.894  0.00  0.00    -0.242 NA
ATOM     36  C   UNL     1      34.488 -23.711 -13.951  0.00  0.00    +0.050 C 
ATOM     37  C   UNL     1      35.705 -23.257 -14.448  0.00  0.00    +0.006 C 
ATOM     38  C   UNL     1      34.473 -24.260 -12.679  0.00  0.00    +0.101 C 
ATOM     39  C   UNL     1      36.852 -23.365 -13.669  0.00  0.00    +0.021 C 
ATOM     40  C   UNL     1      36.731 -23.931 -12.411  0.00  0.00    +0.099 C 
ENDBRANCH  31  36
ENDBRANCH  23  27
ENDBRANCH   2  21
TORSDOF 6
ENDMDL
MODEL 3
REMARK VINA RESULT:     -11.2      4.319     13.257
REMARK  Name = 4369496
REMARK  6 active torsions:
REMARK  status: ('A' for Active; 'I' for Inactive)
REMARK    1  A    between atoms: N_2  and  C_21
REMARK    2  A    between atoms: C_3  and  C_10
REMARK    3  A    between atoms: C_5  and  C_11
REMARK    4  A    between atoms: C_11  and  N_12
REMARK    5  A    between atoms: C_23  and  N_27
REMARK    6  A    between atoms: C_31  and  C_36
REMARK                            x       y       z     vdW  Elec       q    Type
REMARK                         _______ _______ _______ _____ _____    ______ ____
ROOT
ATOM      1  O   UNL     1      35.230 -16.594 -23.391  0.00  0.00    -0.270 OA
ATOM      2  N   UNL     1      34.284 -15.814 -21.392  0.00  0.00    -0.280 N 
ATOM      3  C   UNL     1      34.967 -16.744 -22.188  0.00  0.00    +0.249 C 
ATOM      4  H   UNL     1      34.149 -16.074 -20.452  0.00  0.00    +0.155 HD
ENDROOT
BRANCH   3  10
ATOM      5  C   UNL     1      36.112 -20.336 -20.269  0.00  0.00    -0.043 C 
ATOM      6  C   UNL     1      37.084 -19.415 -20.633  0.00  0.00    -0.006 C 
ATOM      7  C   UNL     1      34.769 -20.096 -20.525  0.00  0.00    -0.006 C 
ATOM      8  C   UNL     1      36.707 -18.231 -21.265  0.00  0.00    +0.004 C 
ATOM      9  C   UNL     1      34.392 -18.911 -21.156  0.00  0.00    +0.004 C 
ATOM     10  C   UNL     1      35.360 -17.978 -21.527  0.00  0.00    +0.054 C 
BRANCH   5  11
ATOM     11  C   UNL     1      36.519 -21.614 -19.586  0.00  0.00    -0.050 C 
BRANCH  11  12
ATOM     12  N   UNL     1      35.809 -21.805 -18.322  0.00  0.00    +0.387 N 
ATOM     13  N   UNL     1      34.915 -23.405 -16.086  0.00  0.00    +0.383 N 
ATOM     14  C   UNL     1      36.736 -22.217 -17.262  0.00  0.00    -0.100 C 
ATOM     15  C   UNL     1      34.733 -22.791 -18.473  0.00  0.00    -0.100 C 
ATOM     16  C   UNL     1      35.994 -22.420 -15.936  0.00  0.00    -0.101 C 
ATOM     17  C   UNL     1      33.989 -22.994 -17.148  0.00  0.00    -0.101 C 
ATOM     18  C   UNL     1      34.206 -23.594 -14.823  0.00  0.00    -0.101 C 
ATOM     19  H   UNL     1      35.394 -20.913 -18.056  0.00  0.00    -0.079 HD
ATOM     20  H   UNL     1      35.331 -24.299 -16.350  0.00  0.00    -0.080 HD
ENDBRANCH  11  12
ENDBRANCH   5  11
ENDBRANCH   3  10
BRANCH   2  21
ATOM     21  C   UNL     1      33.763 -14.550 -21.762  0.00  0.00    +0.052 C 
ATOM     22  C   UNL     1      34.489 -13.745 -22.622  0.00  0.00    +0.030 C 
ATOM     23  C   UNL     1      33.976 -12.499 -22.985  0.00  0.00    +0.059 C 
ATOM     24  C   UNL     1      32.539 -14.149 -21.254  0.00  0.00    +0.015 C 
ATOM     25  C   UNL     1      32.744 -12.079 -22.482  0.00  0.00    +0.015 C 
ATOM     26  C   UNL     1      32.026 -12.904 -21.617  0.00  0.00    +0.003 C 
BRANCH  23  27
ATOM     27  N   UNL     1      34.702 -11.666 -23.861  0.00  0.00    -0.247 N 
ATOM     28  N   UNL     1      34.031  -9.531 -23.155  0.00  0.00    -0.337 NA
ATOM     29  N   UNL     1      35.592  -9.800 -24.971  0.00  0.00    -0.170 NA
ATOM     30  C   UNL     1      34.778 -10.267 -24.002  0.00  0.00    +0.149 C 
ATOM     31  C   UNL     1      34.129  -8.195 -23.319  0.00  0.00    +0.147 C 
ATOM     32  C   UNL     1      34.926  -7.596 -24.272  0.00  0.00    +0.055 C 
ATOM     33  C   UNL     1      35.642  -8.456 -25.079  0.00  0.00    +0.114 C 
ATOM     34  H   UNL     1      35.265 -12.160 -24.500  0.00  0.00    +0.165 HD
BRANCH  31  36
ATOM     35  N   UNL     1      32.382  -7.125 -20.205  0.00  0.00    -0.242 NA
ATOM     36  C   UNL     1      33.330  -7.407 -22.412  0.00  0.00    +0.050 C 
ATOM     37  C   UNL     1      32.748  -6.211 -22.821  0.00  0.00    +0.006 C 
ATOM     38  C   UNL     1      33.118  -7.815 -21.105  0.00  0.00    +0.101 C 
ATOM     39  C   UNL     1      31.983  -5.473 -21.924  0.00  0.00    +0.021 C 
ATOM     40  C   UNL     1      31.833  -5.969 -20.639  0.00  0.00    +0.099 C 
ENDBRANCH  31  36
ENDBRANCH  23  27
ENDBRANCH   2  21
TORSDOF 6
ENDMDL
MODEL 4
REMARK VINA RESULT:     -11.2      4.343     12.904
REMARK  Name = 4369496
REMARK  6 active torsions:
REMARK  status: ('A' for Active; 'I' for Inactive)
REMARK    1  A    between atoms: N_2  and  C_21
REMARK    2  A    between atoms: C_3  and  C_10
REMARK    3  A    between atoms: C_5  and  C_11
REMARK    4  A    between atoms: C_11  and  N_12
REMARK    5  A    between atoms: C_23  and  N_27
REMARK    6  A    between atoms: C_31  and  C_36
REMARK                            x       y       z     vdW  Elec       q    Type
REMARK                         _______ _______ _______ _____ _____    ______ ____
ROOT
ATOM      1  O   UNL     1      35.350 -16.798 -23.526  0.00  0.00    -0.270 OA
ATOM      2  N   UNL     1      34.397 -15.905 -21.577  0.00  0.00    -0.280 N 
ATOM      3  C   UNL     1      35.069 -16.886 -22.320  0.00  0.00    +0.249 C 
ATOM      4  H   UNL     1      34.245 -16.117 -20.628  0.00  0.00    +0.155 HD
ENDROOT
BRANCH   3  10
ATOM      5  C   UNL     1      36.114 -20.402 -20.214  0.00  0.00    -0.043 C 
ATOM      6  C   UNL     1      34.789 -20.183 -20.564  0.00  0.00    -0.006 C 
ATOM      7  C   UNL     1      37.102 -19.485 -20.544  0.00  0.00    -0.006 C 
ATOM      8  C   UNL     1      34.445 -19.024 -21.259  0.00  0.00    +0.004 C 
ATOM      9  C   UNL     1      36.757 -18.326 -21.239  0.00  0.00    +0.004 C 
ATOM     10  C   UNL     1      35.429 -18.095 -21.597  0.00  0.00    +0.054 C 
BRANCH   5  11
ATOM     11  C   UNL     1      36.486 -21.653 -19.464  0.00  0.00    -0.050 C 
BRANCH  11  12
ATOM     12  N   UNL     1      35.638 -21.858 -18.291  0.00  0.00    +0.387 N 
ATOM     13  N   UNL     1      34.490 -23.484 -16.195  0.00  0.00    +0.383 N 
ATOM     14  C   UNL     1      36.438 -22.292 -17.139  0.00  0.00    -0.100 C 
ATOM     15  C   UNL     1      34.581 -22.835 -18.577  0.00  0.00    -0.100 C 
ATOM     16  C   UNL     1      35.549 -22.509 -15.910  0.00  0.00    -0.101 C 
ATOM     17  C   UNL     1      33.691 -23.052 -17.348  0.00  0.00    -0.101 C 
ATOM     18  C   UNL     1      33.642 -23.688 -15.022  0.00  0.00    -0.101 C 
ATOM     19  H   UNL     1      35.200 -20.967 -18.060  0.00  0.00    -0.079 HD
ATOM     20  H   UNL     1      34.929 -24.377 -16.424  0.00  0.00    -0.080 HD
ENDBRANCH  11  12
ENDBRANCH   5  11
ENDBRANCH   3  10
BRANCH   2  21
ATOM     21  C   UNL     1      33.907 -14.650 -22.013  0.00  0.00    +0.052 C 
ATOM     22  C   UNL     1      33.332 -13.791 -21.091  0.00  0.00    +0.030 C 
ATOM     23  C   UNL     1      32.848 -12.555 -21.522  0.00  0.00    +0.059 C 
ATOM     24  C   UNL     1      34.013 -14.311 -23.351  0.00  0.00    +0.015 C 
ATOM     25  C   UNL     1      32.947 -12.197 -22.866  0.00  0.00    +0.015 C 
ATOM     26  C   UNL     1      33.529 -13.075 -23.781  0.00  0.00    +0.003 C 
BRANCH  23  27
ATOM     27  N   UNL     1      32.260 -11.667 -20.596  0.00  0.00    -0.247 N 
ATOM     28  N   UNL     1      32.771  -9.583 -21.545  0.00  0.00    -0.337 NA
ATOM     29  N   UNL     1      31.532  -9.735 -19.484  0.00  0.00    -0.170 NA
ATOM     30  C   UNL     1      32.185 -10.263 -20.539  0.00  0.00    +0.149 C 
ATOM     31  C   UNL     1      32.679  -8.240 -21.458  0.00  0.00    +0.147 C 
ATOM     32  C   UNL     1      32.038  -7.581 -20.429  0.00  0.00    +0.055 C 
ATOM     33  C   UNL     1      31.478  -8.387 -19.461  0.00  0.00    +0.114 C 
ATOM     34  H   UNL     1      31.818 -12.119 -19.842  0.00  0.00    +0.165 HD
BRANCH  31  36
ATOM     35  N   UNL     1      33.090  -5.980 -24.394  0.00  0.00    -0.242 NA
ATOM     36  C   UNL     1      33.306  -7.512 -22.535  0.00  0.00    +0.050 C 
ATOM     37  C   UNL     1      34.673  -7.613 -22.769  0.00  0.00    +0.006 C 
ATOM     38  C   UNL     1      32.565  -6.689 -23.369  0.00  0.00    +0.101 C 
ATOM     39  C   UNL     1      35.249  -6.899 -23.815  0.00  0.00    +0.021 C 
ATOM     40  C   UNL     1      34.421  -6.104 -24.590  0.00  0.00    +0.099 C 
ENDBRANCH  31  36
ENDBRANCH  23  27
ENDBRANCH   2  21
TORSDOF 6
ENDMDL
MODEL 5
REMARK VINA RESULT:     -10.9      5.157     14.018
REMARK  Name = 4369496
REMARK  6 active torsions:
REMARK  status: ('A' for Active; 'I' for Inactive)
REMARK    1  A    between atoms: N_2  and  C_21
REMARK    2  A    between atoms: C_3  and  C_10
REMARK    3  A    between atoms: C_5  and  C_11
REMARK    4  A    between atoms: C_11  and  N_12
REMARK    5  A    between atoms: C_23  and  N_27
REMARK    6  A    between atoms: C_31  and  C_36
REMARK                            x       y       z     vdW  Elec       q    Type
REMARK                         _______ _______ _______ _____ _____    ______ ____
ROOT
ATOM      1  O   UNL     1      34.362 -15.876 -24.854  0.00  0.00    -0.270 OA
ATOM      2  N   UNL     1      34.438 -14.645 -22.858  0.00  0.00    -0.280 N 
ATOM      3  C   UNL     1      34.559 -15.809 -23.630  0.00  0.00    +0.249 C 
ATOM      4  H   UNL     1      34.626 -14.748 -21.898  0.00  0.00    +0.155 HD
ENDROOT
BRANCH   3  10
ATOM      5  C   UNL     1      35.611 -19.321 -21.521  0.00  0.00    -0.043 C 
ATOM      6  C   UNL     1      35.635 -18.099 -20.866  0.00  0.00    -0.006 C 
ATOM      7  C   UNL     1      35.246 -19.411 -22.857  0.00  0.00    -0.006 C 
ATOM      8  C   UNL     1      35.287 -16.940 -21.561  0.00  0.00    +0.004 C 
ATOM      9  C   UNL     1      34.899 -18.252 -23.552  0.00  0.00    +0.004 C 
ATOM     10  C   UNL     1      34.919 -17.017 -22.905  0.00  0.00    +0.054 C 
BRANCH   5  11
ATOM     11  C   UNL     1      35.985 -20.573 -20.771  0.00  0.00    -0.050 C 
BRANCH  11  12
ATOM     12  N   UNL     1      35.069 -20.836 -19.662  0.00  0.00    +0.387 N 
ATOM     13  N   UNL     1      33.108 -22.438 -18.266  0.00  0.00    +0.383 N 
ATOM     14  C   UNL     1      35.453 -22.060 -18.949  0.00  0.00    -0.100 C 
ATOM     15  C   UNL     1      33.685 -20.936 -20.142  0.00  0.00    -0.100 C 
ATOM     16  C   UNL     1      34.492 -22.339 -17.788  0.00  0.00    -0.101 C 
ATOM     17  C   UNL     1      32.724 -21.215 -18.982  0.00  0.00    -0.101 C 
ATOM     18  C   UNL     1      32.193 -22.700 -17.157  0.00  0.00    -0.101 C 
ATOM     19  H   UNL     1      35.128 -20.054 -19.012  0.00  0.00    -0.079 HD
ATOM     20  H   UNL     1      33.048 -23.223 -18.916  0.00  0.00    -0.080 HD
ENDBRANCH  11  12
ENDBRANCH   5  11
ENDBRANCH   3  10
BRANCH   2  21
ATOM     21  C   UNL     1      34.080 -13.341 -23.279  0.00  0.00    +0.052 C 
ATOM     22  C   UNL     1      33.509 -12.469 -22.368  0.00  0.00    +0.030 C 
ATOM     23  C   UNL     1      33.155 -11.185 -22.784  0.00  0.00    +0.059 C 
ATOM     24  C   UNL     1      34.309 -12.969 -24.593  0.00  0.00    +0.015 C 
ATOM     25  C   UNL     1      33.379 -10.793 -24.104  0.00  0.00    +0.015 C 
ATOM     26  C   UNL     1      33.956 -11.684 -25.008  0.00  0.00    +0.003 C 
BRANCH  23  27
ATOM     27  N   UNL     1      32.574 -10.282 -21.868  0.00  0.00    -0.247 N 
ATOM     28  N   UNL     1      33.008  -8.217 -22.894  0.00  0.00    -0.337 NA
ATOM     29  N   UNL     1      31.832  -8.334 -20.794  0.00  0.00    -0.170 NA
ATOM     30  C   UNL     1      32.467  -8.878 -21.851  0.00  0.00    +0.149 C 
ATOM     31  C   UNL     1      32.886  -6.874 -22.844  0.00  0.00    +0.147 C 
ATOM     32  C   UNL     1      32.260  -6.198 -21.818  0.00  0.00    +0.055 C 
ATOM     33  C   UNL     1      31.746  -6.987 -20.809  0.00  0.00    +0.114 C 
ATOM     34  H   UNL     1      32.164 -10.721 -21.088  0.00  0.00    +0.165 HD
BRANCH  31  36
ATOM     35  N   UNL     1      33.180  -4.617 -25.796  0.00  0.00    -0.242 NA
ATOM     36  C   UNL     1      33.465  -6.165 -23.960  0.00  0.00    +0.050 C 
ATOM     37  C   UNL     1      34.808  -6.318 -24.289  0.00  0.00    +0.006 C 
ATOM     38  C   UNL     1      32.701  -5.310 -24.739  0.00  0.00    +0.101 C 
ATOM     39  C   UNL     1      35.337  -5.621 -25.371  0.00  0.00    +0.021 C 
ATOM     40  C   UNL     1      34.489  -4.791 -26.085  0.00  0.00    +0.099 C 
ENDBRANCH  31  36
ENDBRANCH  23  27
ENDBRANCH   2  21
TORSDOF 6
ENDMDL
MODEL 6
REMARK VINA RESULT:     -10.8      7.209     16.214
REMARK  Name = 4369496
REMARK  6 active torsions:
REMARK  status: ('A' for Active; 'I' for Inactive)
REMARK    1  A    between atoms: N_2  and  C_21
REMARK    2  A    between atoms: C_3  and  C_10
REMARK    3  A    between atoms: C_5  and  C_11
REMARK    4  A    between atoms: C_11  and  N_12
REMARK    5  A    between atoms: C_23  and  N_27
REMARK    6  A    between atoms: C_31  and  C_36
REMARK                            x       y       z     vdW  Elec       q    Type
REMARK                         _______ _______ _______ _____ _____    ______ ____
ROOT
ATOM      1  O   UNL     1      32.617 -11.955 -22.427  0.00  0.00    -0.270 OA
ATOM      2  N   UNL     1      34.566 -11.373 -23.596  0.00  0.00    -0.280 N 
ATOM      3  C   UNL     1      33.658 -12.275 -23.023  0.00  0.00    +0.249 C 
ATOM      4  H   UNL     1      35.348 -11.776 -24.036  0.00  0.00    +0.155 HD
ENDROOT
BRANCH   3  10
ATOM      5  C   UNL     1      34.677 -16.368 -23.338  0.00  0.00    -0.043 C 
ATOM      6  C   UNL     1      34.846 -15.713 -22.127  0.00  0.00    -0.006 C 
ATOM      7  C   UNL     1      34.178 -15.701 -24.448  0.00  0.00    -0.006 C 
ATOM      8  C   UNL     1      34.509 -14.364 -22.022  0.00  0.00    +0.004 C 
ATOM      9  C   UNL     1      33.841 -14.351 -24.344  0.00  0.00    +0.004 C 
ATOM     10  C   UNL     1      34.007 -13.682 -23.131  0.00  0.00    +0.054 C 
BRANCH   5  11
ATOM     11  C   UNL     1      35.039 -17.825 -23.451  0.00  0.00    -0.050 C 
BRANCH  11  12
ATOM     12  N   UNL     1      35.293 -18.426 -22.143  0.00  0.00    +0.387 N 
ATOM     13  N   UNL     1      36.197 -20.566 -20.422  0.00  0.00    +0.383 N 
ATOM     14  C   UNL     1      36.722 -18.712 -21.970  0.00  0.00    -0.100 C 
ATOM     15  C   UNL     1      34.501 -19.649 -21.968  0.00  0.00    -0.100 C 
ATOM     16  C   UNL     1      36.990 -19.343 -20.599  0.00  0.00    -0.101 C 
ATOM     17  C   UNL     1      34.767 -20.281 -20.597  0.00  0.00    -0.101 C 
ATOM     18  C   UNL     1      36.451 -21.165 -19.114  0.00  0.00    -0.101 C 
ATOM     19  H   UNL     1      35.011 -17.755 -21.428  0.00  0.00    -0.079 HD
ATOM     20  H   UNL     1      36.480 -21.239 -21.137  0.00  0.00    -0.080 HD
ENDBRANCH  11  12
ENDBRANCH   5  11
ENDBRANCH   3  10
BRANCH   2  21
ATOM     21  C   UNL     1      34.505  -9.958 -23.625  0.00  0.00    +0.052 C 
ATOM     22  C   UNL     1      33.535  -9.308 -22.882  0.00  0.00    +0.030 C 
ATOM     23  C   UNL     1      33.474  -7.914 -22.912  0.00  0.00    +0.059 C 
ATOM     24  C   UNL     1      35.417  -9.259 -24.396  0.00  0.00    +0.015 C 
ATOM     25  C   UNL     1      34.385  -7.193 -23.684  0.00  0.00    +0.015 C 
ATOM     26  C   UNL     1      35.356  -7.865 -24.426  0.00  0.00    +0.003 C 
BRANCH  23  27
ATOM     27  N   UNL     1      32.493  -7.235 -22.160  0.00  0.00    -0.247 N 
ATOM     28  N   UNL     1      32.107  -5.336 -23.483  0.00  0.00    -0.337 NA
ATOM     29  N   UNL     1      30.915  -5.667 -21.416  0.00  0.00    -0.170 NA
ATOM     30  C   UNL     1      31.806  -6.022 -22.363  0.00  0.00    +0.149 C 
ATOM     31  C   UNL     1      31.431  -4.179 -23.645  0.00  0.00    +0.147 C 
ATOM     32  C   UNL     1      30.494  -3.708 -22.749  0.00  0.00    +0.055 C 
ATOM     33  C   UNL     1      30.275  -4.500 -21.641  0.00  0.00    +0.114 C 
ATOM     34  H   UNL     1      32.239  -7.700 -21.330  0.00  0.00    +0.165 HD
BRANCH  31  36
ATOM     35  N   UNL     1      31.113  -1.787 -26.486  0.00  0.00    -0.242 NA
ATOM     36  C   UNL     1      31.752  -3.445 -24.845  0.00  0.00    +0.050 C 
ATOM     37  C   UNL     1      32.954  -3.653 -25.514  0.00  0.00    +0.006 C 
ATOM     38  C   UNL     1      30.874  -2.509 -25.368  0.00  0.00    +0.101 C 
ATOM     39  C   UNL     1      33.235  -2.930 -26.668  0.00  0.00    +0.021 C 
ATOM     40  C   UNL     1      32.290  -2.018 -27.108  0.00  0.00    +0.099 C 
ENDBRANCH  31  36
ENDBRANCH  23  27
ENDBRANCH   2  21
TORSDOF 6
ENDMDL
MODEL 7
REMARK VINA RESULT:     -10.6      2.115      5.114
REMARK  Name = 4369496
REMARK  6 active torsions:
REMARK  status: ('A' for Active; 'I' for Inactive)
REMARK    1  A    between atoms: N_2  and  C_21
REMARK    2  A    between atoms: C_3  and  C_10
REMARK    3  A    between atoms: C_5  and  C_11
REMARK    4  A    between atoms: C_11  and  N_12
REMARK    5  A    between atoms: C_23  and  N_27
REMARK    6  A    between atoms: C_31  and  C_36
REMARK                            x       y       z     vdW  Elec       q    Type
REMARK                         _______ _______ _______ _____ _____    ______ ____
ROOT
ATOM      1  O   UNL     1      36.620 -19.677 -22.094  0.00  0.00    -0.270 OA
ATOM      2  N   UNL     1      34.613 -19.497 -20.892  0.00  0.00    -0.280 N 
ATOM      3  C   UNL     1      35.538 -19.110 -21.872  0.00  0.00    +0.249 C 
ATOM      4  H   UNL     1      33.798 -18.949 -20.834  0.00  0.00    +0.155 HD
ENDROOT
BRANCH   3  10
ATOM      5  C   UNL     1      34.500 -15.694 -24.140  0.00  0.00    -0.043 C 
ATOM      6  C   UNL     1      34.863 -15.546 -22.809  0.00  0.00    -0.006 C 
ATOM      7  C   UNL     1      34.473 -16.946 -24.739  0.00  0.00    -0.006 C 
ATOM      8  C   UNL     1      35.206 -16.672 -22.061  0.00  0.00    +0.004 C 
ATOM      9  C   UNL     1      34.816 -18.072 -23.991  0.00  0.00    +0.004 C 
ATOM     10  C   UNL     1      35.183 -17.936 -22.652  0.00  0.00    +0.054 C 
BRANCH   5  11
ATOM     11  C   UNL     1      34.131 -14.478 -24.948  0.00  0.00    -0.050 C 
BRANCH  11  12
ATOM     12  N   UNL     1      34.102 -13.268 -24.129  0.00  0.00    +0.387 N 
ATOM     13  N   UNL     1      33.149 -10.616 -23.483  0.00  0.00    +0.383 N 
ATOM     14  C   UNL     1      32.767 -13.057 -23.558  0.00  0.00    -0.100 C 
ATOM     15  C   UNL     1      34.515 -12.098 -24.913  0.00  0.00    -0.100 C 
ATOM     16  C   UNL     1      32.735 -11.787 -22.700  0.00  0.00    -0.101 C 
ATOM     17  C   UNL     1      34.484 -10.828 -24.056  0.00  0.00    -0.101 C 
ATOM     18  C   UNL     1      33.122  -9.407 -22.662  0.00  0.00    -0.101 C 
ATOM     19  H   UNL     1      34.763 -13.391 -23.362  0.00  0.00    -0.079 HD
ATOM     20  H   UNL     1      32.486 -10.492 -24.249  0.00  0.00    -0.080 HD
ENDBRANCH  11  12
ENDBRANCH   5  11
ENDBRANCH   3  10
BRANCH   2  21
ATOM     21  C   UNL     1      34.698 -20.573 -19.975  0.00  0.00    +0.052 C 
ATOM     22  C   UNL     1      33.543 -21.040 -19.371  0.00  0.00    +0.030 C 
ATOM     23  C   UNL     1      33.628 -22.099 -18.466  0.00  0.00    +0.059 C 
ATOM     24  C   UNL     1      35.935 -21.133 -19.703  0.00  0.00    +0.015 C 
ATOM     25  C   UNL     1      34.866 -22.675 -18.180  0.00  0.00    +0.015 C 
ATOM     26  C   UNL     1      36.019 -22.192 -18.798  0.00  0.00    +0.003 C 
BRANCH  23  27
ATOM     27  N   UNL     1      32.461 -22.588 -17.843  0.00  0.00    -0.247 N 
ATOM     28  N   UNL     1      33.318 -23.452 -15.836  0.00  0.00    -0.337 NA
ATOM     29  N   UNL     1      30.963 -23.574 -16.330  0.00  0.00    -0.170 NA
ATOM     30  C   UNL     1      32.237 -23.235 -16.612  0.00  0.00    +0.149 C 
ATOM     31  C   UNL     1      33.067 -24.074 -14.665  0.00  0.00    +0.147 C 
ATOM     32  C   UNL     1      31.808 -24.469 -14.263  0.00  0.00    +0.055 C 
ATOM     33  C   UNL     1      30.784 -24.191 -15.144  0.00  0.00    +0.114 C 
ATOM     34  H   UNL     1      31.643 -22.451 -18.373  0.00  0.00    +0.165 HD
BRANCH  31  36
ATOM     35  N   UNL     1      36.511 -25.066 -13.643  0.00  0.00    -0.242 NA
ATOM     36  C   UNL     1      34.223 -24.305 -13.834  0.00  0.00    +0.050 C 
ATOM     37  C   UNL     1      34.200 -24.012 -12.474  0.00  0.00    +0.006 C 
ATOM     38  C   UNL     1      35.393 -24.826 -14.364  0.00  0.00    +0.101 C 
ATOM     39  C   UNL     1      35.331 -24.247 -11.699  0.00  0.00    +0.021 C 
ATOM     40  C   UNL     1      36.450 -24.769 -12.326  0.00  0.00    +0.099 C 
ENDBRANCH  31  36
ENDBRANCH  23  27
ENDBRANCH   2  21
TORSDOF 6
ENDMDL
MODEL 8
REMARK VINA RESULT:     -10.6      2.396      5.649
REMARK  Name = 4369496
REMARK  6 active torsions:
REMARK  status: ('A' for Active; 'I' for Inactive)
REMARK    1  A    between atoms: N_2  and  C_21
REMARK    2  A    between atoms: C_3  and  C_10
REMARK    3  A    between atoms: C_5  and  C_11
REMARK    4  A    between atoms: C_11  and  N_12
REMARK    5  A    between atoms: C_23  and  N_27
REMARK    6  A    between atoms: C_31  and  C_36
REMARK                            x       y       z     vdW  Elec       q    Type
REMARK                         _______ _______ _______ _____ _____    ______ ____
ROOT
ATOM      1  O   UNL     1      36.457 -18.745 -22.179  0.00  0.00    -0.270 OA
ATOM      2  N   UNL     1      34.352 -18.793 -21.146  0.00  0.00    -0.280 N 
ATOM      3  C   UNL     1      35.346 -18.236 -21.963  0.00  0.00    +0.249 C 
ATOM      4  H   UNL     1      33.520 -18.273 -21.071  0.00  0.00    +0.155 HD
ENDROOT
BRANCH   3  10
ATOM      5  C   UNL     1      34.417 -14.505 -23.726  0.00  0.00    -0.043 C 
ATOM      6  C   UNL     1      34.592 -15.619 -24.535  0.00  0.00    -0.006 C 
ATOM      7  C   UNL     1      34.542 -14.597 -22.347  0.00  0.00    -0.006 C 
ATOM      8  C   UNL     1      34.897 -16.849 -23.954  0.00  0.00    +0.004 C 
ATOM      9  C   UNL     1      34.847 -15.828 -21.766  0.00  0.00    +0.004 C 
ATOM     10  C   UNL     1      35.025 -16.954 -22.569  0.00  0.00    +0.054 C 
BRANCH   5  11
ATOM     11  C   UNL     1      34.086 -13.177 -24.353  0.00  0.00    -0.050 C 
BRANCH  11  12
ATOM     12  N   UNL     1      33.781 -12.161 -23.347  0.00  0.00    +0.387 N 
ATOM     13  N   UNL     1      32.180 -10.015 -22.255  0.00  0.00    +0.383 N 
ATOM     14  C   UNL     1      32.481 -12.425 -22.719  0.00  0.00    -0.100 C 
ATOM     15  C   UNL     1      33.801 -10.819 -23.939  0.00  0.00    -0.100 C 
ATOM     16  C   UNL     1      32.159 -11.359 -21.665  0.00  0.00    -0.101 C 
ATOM     17  C   UNL     1      33.480  -9.752 -22.886  0.00  0.00    -0.101 C 
ATOM     18  C   UNL     1      31.877  -9.001 -21.249  0.00  0.00    -0.101 C 
ATOM     19  H   UNL     1      34.501 -12.206 -22.626  0.00  0.00    -0.079 HD
ATOM     20  H   UNL     1      31.459  -9.970 -22.976  0.00  0.00    -0.080 HD
ENDBRANCH  11  12
ENDBRANCH   5  11
ENDBRANCH   3  10
BRANCH   2  21
ATOM     21  C   UNL     1      34.388 -20.005 -20.413  0.00  0.00    +0.052 C 
ATOM     22  C   UNL     1      35.516 -20.313 -19.671  0.00  0.00    +0.030 C 
ATOM     23  C   UNL     1      35.552 -21.507 -18.951  0.00  0.00    +0.059 C 
ATOM     24  C   UNL     1      33.296 -20.853 -20.457  0.00  0.00    +0.015 C 
ATOM     25  C   UNL     1      34.459 -22.374 -18.984  0.00  0.00    +0.015 C 
ATOM     26  C   UNL     1      33.332 -22.048 -19.737  0.00  0.00    +0.003 C 
BRANCH  23  27
ATOM     27  N   UNL     1      36.692 -21.837 -18.188  0.00  0.00    -0.247 N 
ATOM     28  N   UNL     1      35.724 -22.725 -16.244  0.00  0.00    -0.337 NA
ATOM     29  N   UNL     1      38.118 -22.584 -16.482  0.00  0.00    -0.170 NA
ATOM     30  C   UNL     1      36.851 -22.409 -16.911  0.00  0.00    +0.149 C 
ATOM     31  C   UNL     1      35.915 -23.271 -15.024  0.00  0.00    +0.147 C 
ATOM     32  C   UNL     1      37.159 -23.501 -14.475  0.00  0.00    +0.055 C 
ATOM     33  C   UNL     1      38.235 -23.134 -15.256  0.00  0.00    +0.114 C 
ATOM     34  H   UNL     1      37.542 -21.624 -18.637  0.00  0.00    +0.165 HD
BRANCH  31  36
ATOM     35  N   UNL     1      33.669 -24.607 -12.367  0.00  0.00    -0.242 NA
ATOM     36  C   UNL     1      34.708 -23.610 -14.310  0.00  0.00    +0.050 C 
ATOM     37  C   UNL     1      33.455 -23.294 -14.826  0.00  0.00    +0.006 C 
ATOM     38  C   UNL     1      34.759 -24.261 -13.087  0.00  0.00    +0.101 C 
ATOM     39  C   UNL     1      32.310 -23.635 -14.113  0.00  0.00    +0.021 C 
ATOM     40  C   UNL     1      32.470 -24.284 -12.900  0.00  0.00    +0.099 C 
ENDBRANCH  31  36
ENDBRANCH  23  27
ENDBRANCH   2  21
TORSDOF 6
ENDMDL
MODEL 9
REMARK VINA RESULT:     -10.4      3.039     10.835
REMARK  Name = 4369496
REMARK  6 active torsions:
REMARK  status: ('A' for Active; 'I' for Inactive)
REMARK    1  A    between atoms: N_2  and  C_21
REMARK    2  A    between atoms: C_3  and  C_10
REMARK    3  A    between atoms: C_5  and  C_11
REMARK    4  A    between atoms: C_11  and  N_12
REMARK    5  A    between atoms: C_23  and  N_27
REMARK    6  A    between atoms: C_31  and  C_36
REMARK                            x       y       z     vdW  Elec       q    Type
REMARK                         _______ _______ _______ _____ _____    ______ ____
ROOT
ATOM      1  O   UNL     1      36.625 -22.002 -19.188  0.00  0.00    -0.270 OA
ATOM      2  N   UNL     1      35.153 -20.292 -19.833  0.00  0.00    -0.280 N 
ATOM      3  C   UNL     1      35.511 -21.456 -19.137  0.00  0.00    +0.249 C 
ATOM      4  H   UNL     1      34.232 -19.977 -19.692  0.00  0.00    +0.155 HD
ENDROOT
BRANCH   3  10
ATOM      5  C   UNL     1      32.471 -23.206 -16.774  0.00  0.00    -0.043 C 
ATOM      6  C   UNL     1      33.801 -23.478 -16.488  0.00  0.00    -0.006 C 
ATOM      7  C   UNL     1      32.122 -22.369 -17.824  0.00  0.00    -0.006 C 
ATOM      8  C   UNL     1      34.803 -22.900 -17.266  0.00  0.00    +0.004 C 
ATOM      9  C   UNL     1      33.125 -21.791 -18.603  0.00  0.00    +0.004 C 
ATOM     10  C   UNL     1      34.466 -22.057 -18.325  0.00  0.00    +0.054 C 
BRANCH   5  11
ATOM     11  C   UNL     1      31.388 -23.829 -15.933  0.00  0.00    -0.050 C 
BRANCH  11  12
ATOM     12  N   UNL     1      30.135 -23.080 -16.018  0.00  0.00    +0.387 N 
ATOM     13  N   UNL     1      27.309 -22.724 -15.525  0.00  0.00    +0.383 N 
ATOM     14  C   UNL     1      29.631 -22.755 -14.679  0.00  0.00    -0.100 C 
ATOM     15  C   UNL     1      29.129 -23.834 -16.775  0.00  0.00    -0.100 C 
ATOM     16  C   UNL     1      28.316 -21.972 -14.766  0.00  0.00    -0.101 C 
ATOM     17  C   UNL     1      27.814 -23.051 -16.865  0.00  0.00    -0.101 C 
ATOM     18  C   UNL     1      26.057 -21.975 -15.611  0.00  0.00    -0.101 C 
ATOM     19  H   UNL     1      30.322 -22.208 -16.511  0.00  0.00    -0.079 HD
ATOM     20  H   UNL     1      27.120 -23.597 -15.031  0.00  0.00    -0.080 HD
ENDBRANCH  11  12
ENDBRANCH   5  11
ENDBRANCH   3  10
BRANCH   2  21
ATOM     21  C   UNL     1      35.944 -19.511 -20.710  0.00  0.00    +0.052 C 
ATOM     22  C   UNL     1      35.387 -19.046 -21.890  0.00  0.00    +0.030 C 
ATOM     23  C   UNL     1      36.167 -18.278 -22.755  0.00  0.00    +0.059 C 
ATOM     24  C   UNL     1      37.256 -19.230 -20.369  0.00  0.00    +0.015 C 
ATOM     25  C   UNL     1      37.491 -17.985 -22.426  0.00  0.00    +0.015 C 
ATOM     26  C   UNL     1      38.035 -18.461 -21.233  0.00  0.00    +0.003 C 
BRANCH  23  27
ATOM     27  N   UNL     1      35.616 -17.795 -23.960  0.00  0.00    -0.247 N 
ATOM     28  N   UNL     1      34.383 -15.943 -23.212  0.00  0.00    -0.337 NA
ATOM     29  N   UNL     1      34.431 -16.538 -25.547  0.00  0.00    -0.170 NA
ATOM     30  C   UNL     1      34.770 -16.708 -24.253  0.00  0.00    +0.149 C 
ATOM     31  C   UNL     1      33.575 -14.911 -23.530  0.00  0.00    +0.147 C 
ATOM     32  C   UNL     1      33.158 -14.632 -24.815  0.00  0.00    +0.055 C 
ATOM     33  C   UNL     1      33.621 -15.487 -25.793  0.00  0.00    +0.114 C 
ATOM     34  H   UNL     1      35.872 -18.322 -24.751  0.00  0.00    +0.165 HD
BRANCH  31  36
ATOM     35  N   UNL     1      32.445 -11.934 -21.593  0.00  0.00    -0.242 NA
ATOM     36  C   UNL     1      33.161 -14.092 -22.417  0.00  0.00    +0.050 C 
ATOM     37  C   UNL     1      33.071 -14.619 -21.132  0.00  0.00    +0.006 C 
ATOM     38  C   UNL     1      32.840 -12.755 -22.592  0.00  0.00    +0.101 C 
ATOM     39  C   UNL     1      32.669 -13.804 -20.079  0.00  0.00    +0.021 C 
ATOM     40  C   UNL     1      32.370 -12.481 -20.360  0.00  0.00    +0.099 C 
ENDBRANCH  31  36
ENDBRANCH  23  27
ENDBRANCH   2  21
TORSDOF 6
ENDMDL
