MODEL 1
REMARK VINA RESULT:     -12.8      0.000      0.000
REMARK  Name = 448889
REMARK  5 active torsions:
REMARK  status: ('A' for Active; 'I' for Inactive)
REMARK    1  A    between atoms: C_1  and  N_2
REMARK    2  A    between atoms: C_1  and  C_16
REMARK    3  A    between atoms: C_6  and  C_10
REMARK    4  A    between atoms: C_16  and  C_17
REMARK    5  A    between atoms: C_17  and  C_21
REMARK                            x       y       z     vdW  Elec       q    Type
REMARK                         _______ _______ _______ _____ _____    ______ ____
ROOT
ATOM      1  C   UNL     1      34.904 -16.176 -24.595  0.00  0.00    -0.076 C 
ENDROOT
BRANCH   1   2
ATOM      2  N   UNL     1      34.613 -17.123 -23.522  0.00  0.00    +0.390 N 
ATOM      3  C   UNL     1      35.443 -16.859 -22.343  0.00  0.00    -0.072 C 
ATOM      4  C   UNL     1      34.999 -17.758 -21.180  0.00  0.00    +0.003 C 
ATOM      5  C   UNL     1      34.796 -18.508 -23.986  0.00  0.00    -0.051 C 
ATOM      6  C   UNL     1      34.839 -19.208 -21.581  0.00  0.00    -0.031 C 
ATOM      7  C   UNL     1      34.749 -19.533 -22.885  0.00  0.00    -0.053 C 
ATOM      8  H   UNL     1      33.637 -17.001 -23.253  0.00  0.00    -0.079 HD
BRANCH   6  10
ATOM      9  F   UNL     1      34.610 -23.088 -17.529  0.00  0.00    -0.204 F 
ATOM     10  C   UNL     1      34.779 -20.232 -20.511  0.00  0.00    -0.004 C 
ATOM     11  C   UNL     1      35.957 -20.760 -19.979  0.00  0.00    +0.002 C 
ATOM     12  C   UNL     1      33.543 -20.671 -20.032  0.00  0.00    +0.002 C 
ATOM     13  C   UNL     1      35.901 -21.724 -18.972  0.00  0.00    +0.030 C 
ATOM     14  C   UNL     1      33.487 -21.635 -19.024  0.00  0.00    +0.030 C 
ATOM     15  C   UNL     1      34.665 -22.162 -18.495  0.00  0.00    +0.140 C 
ENDBRANCH   6  10
ENDBRANCH   1   2
BRANCH   1  16
ATOM     16  C   UNL     1      33.711 -15.243 -24.815  0.00  0.00    -0.014 C 
BRANCH  16  17
ATOM     17  C   UNL     1      34.027 -13.798 -24.461  0.00  0.00    +0.074 C 
BRANCH  17  21
ATOM     18  O   UNL     1      32.381 -14.910 -20.203  0.00  0.00    -0.209 OA
ATOM     19  N   UNL     1      33.053 -12.099 -22.982  0.00  0.00    -0.290 N 
ATOM     20  N   UNL     1      33.185 -14.374 -22.281  0.00  0.00    -0.322 NA
ATOM     21  C   UNL     1      33.382 -13.424 -23.149  0.00  0.00    +0.173 C 
ATOM     22  C   UNL     1      32.454 -11.695 -21.787  0.00  0.00    +0.058 C 
ATOM     23  C   UNL     1      32.207 -12.653 -20.795  0.00  0.00    +0.108 C 
ATOM     24  C   UNL     1      32.099 -10.363 -21.556  0.00  0.00    -0.008 C 
ATOM     25  C   UNL     1      32.598 -14.066 -21.066  0.00  0.00    +0.207 C 
ATOM     26  C   UNL     1      31.611 -12.289 -19.584  0.00  0.00    +0.014 C 
ATOM     27  C   UNL     1      31.503  -9.996 -20.348  0.00  0.00    -0.003 C 
ATOM     28  C   UNL     1      31.259 -10.957 -19.367  0.00  0.00    +0.001 C 
ATOM     29  C   UNL     1      32.341  -9.302 -22.580  0.00  0.00    +0.032 C 
ATOM     30  H   UNL     1      33.238 -11.446 -23.694  0.00  0.00    +0.154 HD
ENDBRANCH  17  21
ENDBRANCH  16  17
ENDBRANCH   1  16
TORSDOF 5
ENDMDL
MODEL 2
REMARK VINA RESULT:     -12.0      2.696      5.034
REMARK  Name = 448889
REMARK  5 active torsions:
REMARK  status: ('A' for Active; 'I' for Inactive)
REMARK    1  A    between atoms: C_1  and  N_2
REMARK    2  A    between atoms: C_1  and  C_16
REMARK    3  A    between atoms: C_6  and  C_10
REMARK    4  A    between atoms: C_16  and  C_17
REMARK    5  A    between atoms: C_17  and  C_21
REMARK                            x       y       z     vdW  Elec       q    Type
REMARK                         _______ _______ _______ _____ _____    ______ ____
ROOT
ATOM      1  C   UNL     1      35.989 -20.055 -21.121  0.00  0.00    -0.076 C 
ENDROOT
BRANCH   1   2
ATOM      2  N   UNL     1      35.454 -20.556 -19.857  0.00  0.00    +0.390 N 
ATOM      3  C   UNL     1      36.281 -21.646 -19.328  0.00  0.00    -0.072 C 
ATOM      4  C   UNL     1      35.793 -22.036 -17.925  0.00  0.00    +0.003 C 
ATOM      5  C   UNL     1      34.059 -20.994 -20.018  0.00  0.00    -0.051 C 
ATOM      6  C   UNL     1      34.295 -22.228 -17.852  0.00  0.00    -0.031 C 
ATOM      7  C   UNL     1      33.510 -21.740 -18.832  0.00  0.00    -0.053 C 
ATOM      8  H   UNL     1      35.475 -19.790 -19.183  0.00  0.00    -0.079 HD
BRANCH   6  10
ATOM      9  F   UNL     1      32.168 -24.967 -13.436  0.00  0.00    -0.204 F 
ATOM     10  C   UNL     1      33.734 -22.951 -16.685  0.00  0.00    -0.004 C 
ATOM     11  C   UNL     1      34.586 -23.497 -15.723  0.00  0.00    +0.002 C 
ATOM     12  C   UNL     1      32.351 -23.088 -16.546  0.00  0.00    +0.002 C 
ATOM     13  C   UNL     1      34.057 -24.177 -14.625  0.00  0.00    +0.030 C 
ATOM     14  C   UNL     1      31.823 -23.768 -15.448  0.00  0.00    +0.030 C 
ATOM     15  C   UNL     1      32.676 -24.313 -14.488  0.00  0.00    +0.140 C 
ENDBRANCH   6  10
ENDBRANCH   1   2
BRANCH   1  16
ATOM     16  C   UNL     1      34.861 -19.478 -21.981  0.00  0.00    -0.014 C 
BRANCH  16  17
ATOM     17  C   UNL     1      35.344 -19.023 -23.348  0.00  0.00    +0.074 C 
BRANCH  17  21
ATOM     18  O   UNL     1      34.279 -15.534 -26.309  0.00  0.00    -0.209 OA
ATOM     19  N   UNL     1      34.605 -16.831 -22.529  0.00  0.00    -0.290 N 
ATOM     20  N   UNL     1      34.801 -17.240 -24.870  0.00  0.00    -0.322 NA
ATOM     21  C   UNL     1      34.889 -17.612 -23.625  0.00  0.00    +0.173 C 
ATOM     22  C   UNL     1      34.179 -15.516 -22.725  0.00  0.00    +0.058 C 
ATOM     23  C   UNL     1      34.053 -15.032 -24.034  0.00  0.00    +0.108 C 
ATOM     24  C   UNL     1      33.873 -14.674 -21.652  0.00  0.00    -0.008 C 
ATOM     25  C   UNL     1      34.384 -15.952 -25.160  0.00  0.00    +0.207 C 
ATOM     26  C   UNL     1      33.628 -13.723 -24.273  0.00  0.00    +0.014 C 
ATOM     27  C   UNL     1      33.449 -13.365 -21.888  0.00  0.00    -0.003 C 
ATOM     28  C   UNL     1      33.328 -12.891 -23.194  0.00  0.00    +0.001 C 
ATOM     29  C   UNL     1      33.989 -15.140 -20.237  0.00  0.00    +0.032 C 
ATOM     30  H   UNL     1      34.701 -17.195 -21.620  0.00  0.00    +0.154 HD
ENDBRANCH  17  21
ENDBRANCH  16  17
ENDBRANCH   1  16
TORSDOF 5
ENDMDL
MODEL 3
REMARK VINA RESULT:     -12.0      4.514     10.154
REMARK  Name = 448889
REMARK  5 active torsions:
REMARK  status: ('A' for Active; 'I' for Inactive)
REMARK    1  A    between atoms: C_1  and  N_2
REMARK    2  A    between atoms: C_1  and  C_16
REMARK    3  A    between atoms: C_6  and  C_10
REMARK    4  A    between atoms: C_16  and  C_17
REMARK    5  A    between atoms: C_17  and  C_21
REMARK                            x       y       z     vdW  Elec       q    Type
REMARK                         _______ _______ _______ _____ _____    ______ ____
ROOT
ATOM      1  C   UNL     1      35.622 -20.092 -20.654  0.00  0.00    -0.076 C 
ENDROOT
BRANCH   1   2
ATOM      2  N   UNL     1      35.038 -19.031 -21.470  0.00  0.00    +0.390 N 
ATOM      3  C   UNL     1      35.558 -19.071 -22.841  0.00  0.00    -0.072 C 
ATOM      4  C   UNL     1      34.804 -18.057 -23.714  0.00  0.00    +0.003 C 
ATOM      5  C   UNL     1      35.278 -17.713 -20.862  0.00  0.00    -0.051 C 
ATOM      6  C   UNL     1      34.695 -16.691 -23.073  0.00  0.00    -0.031 C 
ATOM      7  C   UNL     1      34.921 -16.553 -21.752  0.00  0.00    -0.053 C 
ATOM      8  H   UNL     1      34.031 -19.187 -21.512  0.00  0.00    -0.079 HD
BRANCH   6  10
ATOM      9  F   UNL     1      33.323 -12.321 -26.321  0.00  0.00    -0.204 F 
ATOM     10  C   UNL     1      34.332 -15.538 -23.931  0.00  0.00    -0.004 C 
ATOM     11  C   UNL     1      34.059 -15.731 -25.287  0.00  0.00    +0.002 C 
ATOM     12  C   UNL     1      34.263 -14.254 -23.385  0.00  0.00    +0.002 C 
ATOM     13  C   UNL     1      33.717 -14.645 -26.094  0.00  0.00    +0.030 C 
ATOM     14  C   UNL     1      33.922 -13.169 -24.192  0.00  0.00    +0.030 C 
ATOM     15  C   UNL     1      33.650 -13.364 -25.546  0.00  0.00    +0.140 C 
ENDBRANCH   6  10
ENDBRANCH   1   2
BRANCH   1  16
ATOM     16  C   UNL     1      34.524 -20.843 -19.897  0.00  0.00    -0.014 C 
BRANCH  16  17
ATOM     17  C   UNL     1      34.993 -22.192 -19.374  0.00  0.00    +0.074 C 
BRANCH  17  21
ATOM     18  O   UNL     1      31.013 -22.580 -16.910  0.00  0.00    -0.209 OA
ATOM     19  N   UNL     1      34.990 -23.054 -17.077  0.00  0.00    -0.290 N 
ATOM     20  N   UNL     1      32.951 -22.388 -18.117  0.00  0.00    -0.322 NA
ATOM     21  C   UNL     1      34.241 -22.562 -18.120  0.00  0.00    +0.173 C 
ATOM     22  C   UNL     1      34.347 -23.413 -15.891  0.00  0.00    +0.058 C 
ATOM     23  C   UNL     1      32.957 -23.261 -15.800  0.00  0.00    +0.108 C 
ATOM     24  C   UNL     1      35.053 -23.922 -14.796  0.00  0.00    -0.008 C 
ATOM     25  C   UNL     1      32.229 -22.718 -16.983  0.00  0.00    +0.207 C 
ATOM     26  C   UNL     1      32.276 -23.610 -14.631  0.00  0.00    +0.014 C 
ATOM     27  C   UNL     1      34.375 -24.271 -13.627  0.00  0.00    -0.003 C 
ATOM     28  C   UNL     1      32.991 -24.115 -13.545  0.00  0.00    +0.001 C 
ATOM     29  C   UNL     1      36.535 -24.105 -14.840  0.00  0.00    +0.032 C 
ATOM     30  H   UNL     1      35.965 -23.152 -17.166  0.00  0.00    +0.154 HD
ENDBRANCH  17  21
ENDBRANCH  16  17
ENDBRANCH   1  16
TORSDOF 5
ENDMDL
MODEL 4
REMARK VINA RESULT:     -11.9      1.600      2.293
REMARK  Name = 448889
REMARK  5 active torsions:
REMARK  status: ('A' for Active; 'I' for Inactive)
REMARK    1  A    between atoms: C_1  and  N_2
REMARK    2  A    between atoms: C_1  and  C_16
REMARK    3  A    between atoms: C_6  and  C_10
REMARK    4  A    between atoms: C_16  and  C_17
REMARK    5  A    between atoms: C_17  and  C_21
REMARK                            x       y       z     vdW  Elec       q    Type
REMARK                         _______ _______ _______ _____ _____    ______ ____
ROOT
ATOM      1  C   UNL     1      35.113 -16.082 -24.368  0.00  0.00    -0.076 C 
ENDROOT
BRANCH   1   2
ATOM      2  N   UNL     1      34.756 -17.049 -23.332  0.00  0.00    +0.390 N 
ATOM      3  C   UNL     1      35.611 -16.898 -22.151  0.00  0.00    -0.072 C 
ATOM      4  C   UNL     1      35.105 -17.809 -21.022  0.00  0.00    +0.003 C 
ATOM      5  C   UNL     1      34.829 -18.422 -23.855  0.00  0.00    -0.051 C 
ATOM      6  C   UNL     1      34.832 -19.224 -21.482  0.00  0.00    -0.031 C 
ATOM      7  C   UNL     1      34.710 -19.487 -22.797  0.00  0.00    -0.053 C 
ATOM      8  H   UNL     1      33.793 -16.863 -23.050  0.00  0.00    -0.079 HD
BRANCH   6  10
ATOM      9  F   UNL     1      34.328 -23.243 -17.593  0.00  0.00    -0.204 F 
ATOM     10  C   UNL     1      34.700 -20.284 -20.455  0.00  0.00    -0.004 C 
ATOM     11  C   UNL     1      35.838 -20.917 -19.949  0.00  0.00    +0.002 C 
ATOM     12  C   UNL     1      33.436 -20.654 -19.989  0.00  0.00    +0.002 C 
ATOM     13  C   UNL     1      35.713 -21.915 -18.982  0.00  0.00    +0.030 C 
ATOM     14  C   UNL     1      33.311 -21.652 -19.023  0.00  0.00    +0.030 C 
ATOM     15  C   UNL     1      34.449 -22.283 -18.520  0.00  0.00    +0.140 C 
ENDBRANCH   6  10
ENDBRANCH   1   2
BRANCH   1  16
ATOM     16  C   UNL     1      33.981 -15.068 -24.557  0.00  0.00    -0.014 C 
BRANCH  16  17
ATOM     17  C   UNL     1      33.414 -14.574 -23.236  0.00  0.00    +0.074 C 
BRANCH  17  21
ATOM     18  O   UNL     1      34.942 -10.401 -24.762  0.00  0.00    -0.209 OA
ATOM     19  N   UNL     1      32.585 -12.476 -22.270  0.00  0.00    -0.290 N 
ATOM     20  N   UNL     1      34.201 -12.440 -24.022  0.00  0.00    -0.322 NA
ATOM     21  C   UNL     1      33.417 -13.066 -23.192  0.00  0.00    +0.173 C 
ATOM     22  C   UNL     1      32.546 -11.083 -22.184  0.00  0.00    +0.058 C 
ATOM     23  C   UNL     1      33.357 -10.329 -23.042  0.00  0.00    +0.108 C 
ATOM     24  C   UNL     1      31.719 -10.425 -21.269  0.00  0.00    -0.008 C 
ATOM     25  C   UNL     1      34.228 -11.056 -24.010  0.00  0.00    +0.207 C 
ATOM     26  C   UNL     1      33.346  -8.932 -22.989  0.00  0.00    +0.014 C 
ATOM     27  C   UNL     1      31.707  -9.030 -21.213  0.00  0.00    -0.003 C 
ATOM     28  C   UNL     1      32.519  -8.287 -22.070  0.00  0.00    +0.001 C 
ATOM     29  C   UNL     1      30.834 -11.182 -20.332  0.00  0.00    +0.032 C 
ATOM     30  H   UNL     1      32.025 -13.029 -21.679  0.00  0.00    +0.154 HD
ENDBRANCH  17  21
ENDBRANCH  16  17
ENDBRANCH   1  16
TORSDOF 5
ENDMDL
MODEL 5
REMARK VINA RESULT:     -11.8      2.788      5.184
REMARK  Name = 448889
REMARK  5 active torsions:
REMARK  status: ('A' for Active; 'I' for Inactive)
REMARK    1  A    between atoms: C_1  and  N_2
REMARK    2  A    between atoms: C_1  and  C_16
REMARK    3  A    between atoms: C_6  and  C_10
REMARK    4  A    between atoms: C_16  and  C_17
REMARK    5  A    between atoms: C_17  and  C_21
REMARK                            x       y       z     vdW  Elec       q    Type
REMARK                         _______ _______ _______ _____ _____    ______ ____
ROOT
ATOM      1  C   UNL     1      34.535 -20.135 -21.188  0.00  0.00    -0.076 C 
ENDROOT
BRANCH   1   2
ATOM      2  N   UNL     1      34.722 -20.629 -19.826  0.00  0.00    +0.390 N 
ATOM      3  C   UNL     1      35.986 -21.362 -19.699  0.00  0.00    -0.072 C 
ATOM      4  C   UNL     1      36.233 -21.722 -18.226  0.00  0.00    +0.003 C 
ATOM      5  C   UNL     1      33.588 -21.474 -19.419  0.00  0.00    -0.051 C 
ATOM      6  C   UNL     1      35.024 -22.338 -17.557  0.00  0.00    -0.031 C 
ATOM      7  C   UNL     1      33.810 -22.214 -18.127  0.00  0.00    -0.053 C 
ATOM      8  H   UNL     1      34.762 -19.823 -19.204  0.00  0.00    -0.079 HD
BRANCH   6  10
ATOM      9  F   UNL     1      35.768 -25.076 -12.712  0.00  0.00    -0.204 F 
ATOM     10  C   UNL     1      35.220 -23.062 -16.278  0.00  0.00    -0.004 C 
ATOM     11  C   UNL     1      34.141 -23.697 -15.659  0.00  0.00    +0.002 C 
ATOM     12  C   UNL     1      36.485 -23.110 -15.688  0.00  0.00    +0.002 C 
ATOM     13  C   UNL     1      34.326 -24.378 -14.456  0.00  0.00    +0.030 C 
ATOM     14  C   UNL     1      36.670 -23.791 -14.485  0.00  0.00    +0.030 C 
ATOM     15  C   UNL     1      35.591 -24.424 -13.868  0.00  0.00    +0.140 C 
ENDBRANCH   6  10
ENDBRANCH   1   2
BRANCH   1  16
ATOM     16  C   UNL     1      35.596 -19.082 -21.519  0.00  0.00    -0.014 C 
BRANCH  16  17
ATOM     17  C   UNL     1      35.721 -18.829 -23.013  0.00  0.00    +0.074 C 
BRANCH  17  21
ATOM     18  O   UNL     1      34.307 -15.656 -26.176  0.00  0.00    -0.209 OA
ATOM     19  N   UNL     1      34.744 -16.686 -22.326  0.00  0.00    -0.290 N 
ATOM     20  N   UNL     1      34.999 -17.208 -24.638  0.00  0.00    -0.322 NA
ATOM     21  C   UNL     1      35.118 -17.494 -23.374  0.00  0.00    +0.173 C 
ATOM     22  C   UNL     1      34.179 -15.438 -22.600  0.00  0.00    +0.058 C 
ATOM     23  C   UNL     1      34.012 -15.049 -23.936  0.00  0.00    +0.108 C 
ATOM     24  C   UNL     1      33.777 -14.572 -21.580  0.00  0.00    -0.008 C 
ATOM     25  C   UNL     1      34.449 -15.992 -25.005  0.00  0.00    +0.207 C 
ATOM     26  C   UNL     1      33.450 -13.809 -24.253  0.00  0.00    +0.014 C 
ATOM     27  C   UNL     1      33.216 -13.333 -21.893  0.00  0.00    -0.003 C 
ATOM     28  C   UNL     1      33.054 -12.953 -23.225  0.00  0.00    +0.001 C 
ATOM     29  C   UNL     1      33.932 -14.938 -20.139  0.00  0.00    +0.032 C 
ATOM     30  H   UNL     1      34.872 -16.982 -21.397  0.00  0.00    +0.154 HD
ENDBRANCH  17  21
ENDBRANCH  16  17
ENDBRANCH   1  16
TORSDOF 5
ENDMDL
MODEL 6
REMARK VINA RESULT:     -11.8      3.777      6.851
REMARK  Name = 448889
REMARK  5 active torsions:
REMARK  status: ('A' for Active; 'I' for Inactive)
REMARK    1  A    between atoms: C_1  and  N_2
REMARK    2  A    between atoms: C_1  and  C_16
REMARK    3  A    between atoms: C_6  and  C_10
REMARK    4  A    between atoms: C_16  and  C_17
REMARK    5  A    between atoms: C_17  and  C_21
REMARK                            x       y       z     vdW  Elec       q    Type
REMARK                         _______ _______ _______ _____ _____    ______ ____
ROOT
ATOM      1  C   UNL     1      31.213 -10.371 -21.046  0.00  0.00    -0.076 C 
ENDROOT
BRANCH   1   2
ATOM      2  N   UNL     1      31.700 -11.699 -21.414  0.00  0.00    +0.390 N 
ATOM      3  C   UNL     1      32.190 -12.427 -20.240  0.00  0.00    -0.072 C 
ATOM      4  C   UNL     1      32.537 -13.872 -20.630  0.00  0.00    +0.003 C 
ATOM      5  C   UNL     1      32.750 -11.602 -22.441  0.00  0.00    -0.051 C 
ATOM      6  C   UNL     1      33.383 -13.960 -21.880  0.00  0.00    -0.031 C 
ATOM      7  C   UNL     1      33.470 -12.897 -22.704  0.00  0.00    -0.053 C 
ATOM      8  H   UNL     1      30.916 -12.222 -21.804  0.00  0.00    -0.079 HD
BRANCH   6  10
ATOM      9  F   UNL     1      36.063 -18.777 -22.947  0.00  0.00    -0.204 F 
ATOM     10  C   UNL     1      34.091 -15.231 -22.163  0.00  0.00    -0.004 C 
ATOM     11  C   UNL     1      34.327 -15.624 -23.481  0.00  0.00    +0.002 C 
ATOM     12  C   UNL     1      34.524 -16.040 -21.109  0.00  0.00    +0.002 C 
ATOM     13  C   UNL     1      34.994 -16.821 -23.747  0.00  0.00    +0.030 C 
ATOM     14  C   UNL     1      35.191 -17.236 -21.375  0.00  0.00    +0.030 C 
ATOM     15  C   UNL     1      35.425 -17.627 -22.693  0.00  0.00    +0.140 C 
ENDBRANCH   6  10
ENDBRANCH   1   2
BRANCH   1  16
ATOM     16  C   UNL     1      32.311  -9.588 -20.322  0.00  0.00    -0.014 C 
BRANCH  16  17
ATOM     17  C   UNL     1      31.866  -8.187 -19.930  0.00  0.00    +0.074 C 
BRANCH  17  21
ATOM     18  O   UNL     1      30.360  -4.574 -22.527  0.00  0.00    -0.209 OA
ATOM     19  N   UNL     1      33.110  -7.424 -21.903  0.00  0.00    -0.290 N 
ATOM     20  N   UNL     1      31.089  -6.336 -21.257  0.00  0.00    -0.322 NA
ATOM     21  C   UNL     1      32.009  -7.243 -21.098  0.00  0.00    +0.173 C 
ATOM     22  C   UNL     1      33.294  -6.579 -22.999  0.00  0.00    +0.058 C 
ATOM     23  C   UNL     1      32.352  -5.571 -23.244  0.00  0.00    +0.108 C 
ATOM     24  C   UNL     1      34.393  -6.711 -23.853  0.00  0.00    -0.008 C 
ATOM     25  C   UNL     1      31.190  -5.452 -22.316  0.00  0.00    +0.207 C 
ATOM     26  C   UNL     1      32.501  -4.704 -24.330  0.00  0.00    +0.014 C 
ATOM     27  C   UNL     1      34.544  -5.846 -24.938  0.00  0.00    -0.003 C 
ATOM     28  C   UNL     1      33.600  -4.847 -25.176  0.00  0.00    +0.001 C 
ATOM     29  C   UNL     1      35.427  -7.767 -23.636  0.00  0.00    +0.032 C 
ATOM     30  H   UNL     1      33.757  -8.139 -21.709  0.00  0.00    +0.154 HD
ENDBRANCH  17  21
ENDBRANCH  16  17
ENDBRANCH   1  16
TORSDOF 5
ENDMDL
MODEL 7
REMARK VINA RESULT:     -11.6      5.672     11.395
REMARK  Name = 448889
REMARK  5 active torsions:
REMARK  status: ('A' for Active; 'I' for Inactive)
REMARK    1  A    between atoms: C_1  and  N_2
REMARK    2  A    between atoms: C_1  and  C_16
REMARK    3  A    between atoms: C_6  and  C_10
REMARK    4  A    between atoms: C_16  and  C_17
REMARK    5  A    between atoms: C_17  and  C_21
REMARK                            x       y       z     vdW  Elec       q    Type
REMARK                         _______ _______ _______ _____ _____    ______ ____
ROOT
ATOM      1  C   UNL     1      36.523 -21.647 -19.414  0.00  0.00    -0.076 C 
ENDROOT
BRANCH   1   2
ATOM      2  N   UNL     1      36.092 -20.330 -19.877  0.00  0.00    +0.390 N 
ATOM      3  C   UNL     1      34.857 -20.424 -20.662  0.00  0.00    -0.072 C 
ATOM      4  C   UNL     1      34.341 -19.014 -20.990  0.00  0.00    +0.003 C 
ATOM      5  C   UNL     1      37.156 -19.679 -20.657  0.00  0.00    -0.051 C 
ATOM      6  C   UNL     1      35.417 -18.101 -21.531  0.00  0.00    -0.031 C 
ATOM      7  C   UNL     1      36.714 -18.428 -21.369  0.00  0.00    -0.053 C 
ATOM      8  H   UNL     1      35.900 -19.758 -19.055  0.00  0.00    -0.079 HD
BRANCH   6  10
ATOM      9  F   UNL     1      33.846 -13.397 -24.163  0.00  0.00    -0.204 F 
ATOM     10  C   UNL     1      35.003 -16.859 -22.225  0.00  0.00    -0.004 C 
ATOM     11  C   UNL     1      34.681 -15.717 -21.488  0.00  0.00    +0.002 C 
ATOM     12  C   UNL     1      34.933 -16.826 -23.620  0.00  0.00    +0.002 C 
ATOM     13  C   UNL     1      34.292 -14.548 -22.142  0.00  0.00    +0.030 C 
ATOM     14  C   UNL     1      34.543 -15.657 -24.274  0.00  0.00    +0.030 C 
ATOM     15  C   UNL     1      34.221 -14.518 -23.535  0.00  0.00    +0.140 C 
ENDBRANCH   6  10
ENDBRANCH   1   2
BRANCH   1  16
ATOM     16  C   UNL     1      36.086 -21.868 -17.964  0.00  0.00    -0.014 C 
BRANCH  16  17
ATOM     17  C   UNL     1      37.246 -21.776 -16.985  0.00  0.00    +0.074 C 
BRANCH  17  21
ATOM     18  O   UNL     1      34.563 -23.567 -13.570  0.00  0.00    -0.209 OA
ATOM     19  N   UNL     1      38.091 -23.515 -15.474  0.00  0.00    -0.290 N 
ATOM     20  N   UNL     1      35.867 -22.689 -15.238  0.00  0.00    -0.322 NA
ATOM     21  C   UNL     1      37.030 -22.712 -15.822  0.00  0.00    +0.173 C 
ATOM     22  C   UNL     1      37.948 -24.402 -14.405  0.00  0.00    +0.058 C 
ATOM     23  C   UNL     1      36.727 -24.445 -13.719  0.00  0.00    +0.108 C 
ATOM     24  C   UNL     1      38.988 -25.245 -14.005  0.00  0.00    -0.008 C 
ATOM     25  C   UNL     1      35.633 -23.536 -14.168  0.00  0.00    +0.207 C 
ATOM     26  C   UNL     1      36.543 -25.320 -12.645  0.00  0.00    +0.014 C 
ATOM     27  C   UNL     1      38.808 -26.119 -12.931  0.00  0.00    -0.003 C 
ATOM     28  C   UNL     1      37.589 -26.155 -12.253  0.00  0.00    +0.001 C 
ATOM     29  C   UNL     1      40.310 -25.239 -14.702  0.00  0.00    +0.032 C 
ATOM     30  H   UNL     1      38.938 -23.465 -15.972  0.00  0.00    +0.154 HD
ENDBRANCH  17  21
ENDBRANCH  16  17
ENDBRANCH   1  16
TORSDOF 5
ENDMDL
MODEL 8
REMARK VINA RESULT:     -11.5      2.211      3.436
REMARK  Name = 448889
REMARK  5 active torsions:
REMARK  status: ('A' for Active; 'I' for Inactive)
REMARK    1  A    between atoms: C_1  and  N_2
REMARK    2  A    between atoms: C_1  and  C_16
REMARK    3  A    between atoms: C_6  and  C_10
REMARK    4  A    between atoms: C_16  and  C_17
REMARK    5  A    between atoms: C_17  and  C_21
REMARK                            x       y       z     vdW  Elec       q    Type
REMARK                         _______ _______ _______ _____ _____    ______ ____
ROOT
ATOM      1  C   UNL     1      33.776 -13.923 -24.160  0.00  0.00    -0.076 C 
ENDROOT
BRANCH   1   2
ATOM      2  N   UNL     1      33.940 -15.160 -23.400  0.00  0.00    +0.390 N 
ATOM      3  C   UNL     1      34.597 -14.908 -22.114  0.00  0.00    -0.072 C 
ATOM      4  C   UNL     1      34.604 -16.192 -21.271  0.00  0.00    +0.003 C 
ATOM      5  C   UNL     1      34.691 -16.155 -24.181  0.00  0.00    -0.051 C 
ATOM      6  C   UNL     1      35.075 -17.404 -22.043  0.00  0.00    -0.031 C 
ATOM      7  C   UNL     1      35.110 -17.365 -23.390  0.00  0.00    -0.053 C 
ATOM      8  H   UNL     1      33.011 -15.536 -23.210  0.00  0.00    -0.079 HD
BRANCH   6  10
ATOM      9  F   UNL     1      36.616 -21.968 -19.160  0.00  0.00    -0.204 F 
ATOM     10  C   UNL     1      35.481 -18.609 -21.283  0.00  0.00    -0.004 C 
ATOM     11  C   UNL     1      34.529 -19.565 -20.922  0.00  0.00    +0.002 C 
ATOM     12  C   UNL     1      36.818 -18.793 -20.924  0.00  0.00    +0.002 C 
ATOM     13  C   UNL     1      34.911 -20.700 -20.206  0.00  0.00    +0.030 C 
ATOM     14  C   UNL     1      37.201 -19.927 -20.208  0.00  0.00    +0.030 C 
ATOM     15  C   UNL     1      36.248 -20.880 -19.848  0.00  0.00    +0.140 C 
ENDBRANCH   6  10
ENDBRANCH   1   2
BRANCH   1  16
ATOM     16  C   UNL     1      34.124 -12.716 -23.286  0.00  0.00    -0.014 C 
BRANCH  16  17
ATOM     17  C   UNL     1      34.058 -11.403 -24.051  0.00  0.00    +0.074 C 
BRANCH  17  21
ATOM     18  O   UNL     1      31.222 -10.064 -20.553  0.00  0.00    -0.209 OA
ATOM     19  N   UNL     1      33.702  -9.032 -23.529  0.00  0.00    -0.290 N 
ATOM     20  N   UNL     1      32.604 -10.724 -22.258  0.00  0.00    -0.322 NA
ATOM     21  C   UNL     1      33.401 -10.336 -23.211  0.00  0.00    +0.173 C 
ATOM     22  C   UNL     1      33.123  -8.002 -22.785  0.00  0.00    +0.058 C 
ATOM     23  C   UNL     1      32.253  -8.329 -21.737  0.00  0.00    +0.108 C 
ATOM     24  C   UNL     1      33.391  -6.658 -23.058  0.00  0.00    -0.008 C 
ATOM     25  C   UNL     1      31.986  -9.771 -21.467  0.00  0.00    +0.207 C 
ATOM     26  C   UNL     1      31.654  -7.328 -20.968  0.00  0.00    +0.014 C 
ATOM     27  C   UNL     1      32.794  -5.655 -22.291  0.00  0.00    -0.003 C 
ATOM     28  C   UNL     1      31.928  -5.990 -21.250  0.00  0.00    +0.001 C 
ATOM     29  C   UNL     1      34.312  -6.254 -24.163  0.00  0.00    +0.032 C 
ATOM     30  H   UNL     1      34.317  -8.829 -24.270  0.00  0.00    +0.154 HD
ENDBRANCH  17  21
ENDBRANCH  16  17
ENDBRANCH   1  16
TORSDOF 5
ENDMDL
MODEL 9
REMARK VINA RESULT:     -11.5      5.067     10.855
REMARK  Name = 448889
REMARK  5 active torsions:
REMARK  status: ('A' for Active; 'I' for Inactive)
REMARK    1  A    between atoms: C_1  and  N_2
REMARK    2  A    between atoms: C_1  and  C_16
REMARK    3  A    between atoms: C_6  and  C_10
REMARK    4  A    between atoms: C_16  and  C_17
REMARK    5  A    between atoms: C_17  and  C_21
REMARK                            x       y       z     vdW  Elec       q    Type
REMARK                         _______ _______ _______ _____ _____    ______ ____
ROOT
ATOM      1  C   UNL     1      31.639 -10.954 -19.854  0.00  0.00    -0.076 C 
ENDROOT
BRANCH   1   2
ATOM      2  N   UNL     1      31.521  -9.756 -20.681  0.00  0.00    +0.390 N 
ATOM      3  C   UNL     1      32.066  -9.984 -22.023  0.00  0.00    -0.072 C 
ATOM      4  C   UNL     1      31.777  -8.768 -22.917  0.00  0.00    +0.003 C 
ATOM      5  C   UNL     1      32.187  -8.612 -20.038  0.00  0.00    -0.051 C 
ATOM      6  C   UNL     1      32.132  -7.454 -22.259  0.00  0.00    -0.031 C 
ATOM      7  C   UNL     1      32.320  -7.403 -20.926  0.00  0.00    -0.053 C 
ATOM      8  H   UNL     1      30.530  -9.538 -20.777  0.00  0.00    -0.079 HD
BRANCH   6  10
ATOM      9  F   UNL     1      32.605  -2.895 -25.502  0.00  0.00    -0.204 F 
ATOM     10  C   UNL     1      32.257  -6.250 -23.114  0.00  0.00    -0.004 C 
ATOM     11  C   UNL     1      31.434  -5.144 -22.893  0.00  0.00    +0.002 C 
ATOM     12  C   UNL     1      33.199  -6.218 -24.145  0.00  0.00    +0.002 C 
ATOM     13  C   UNL     1      31.551  -4.010 -23.698  0.00  0.00    +0.030 C 
ATOM     14  C   UNL     1      33.317  -5.085 -24.950  0.00  0.00    +0.030 C 
ATOM     15  C   UNL     1      32.493  -3.982 -24.727  0.00  0.00    +0.140 C 
ENDBRANCH   6  10
ENDBRANCH   1   2
BRANCH   1  16
ATOM     16  C   UNL     1      31.969 -12.169 -20.726  0.00  0.00    -0.014 C 
BRANCH  16  17
ATOM     17  C   UNL     1      32.558 -13.319 -19.925  0.00  0.00    +0.074 C 
BRANCH  17  21
ATOM     18  O   UNL     1      35.243 -17.107 -20.643  0.00  0.00    -0.209 OA
ATOM     19  N   UNL     1      33.127 -14.072 -22.189  0.00  0.00    -0.290 N 
ATOM     20  N   UNL     1      33.934 -15.260 -20.286  0.00  0.00    -0.322 NA
ATOM     21  C   UNL     1      33.260 -14.293 -20.838  0.00  0.00    +0.173 C 
ATOM     22  C   UNL     1      33.755 -14.942 -23.083  0.00  0.00    +0.058 C 
ATOM     23  C   UNL     1      34.501 -16.014 -22.575  0.00  0.00    +0.108 C 
ATOM     24  C   UNL     1      33.656 -14.773 -24.467  0.00  0.00    -0.008 C 
ATOM     25  C   UNL     1      34.589 -16.172 -21.095  0.00  0.00    +0.207 C 
ATOM     26  C   UNL     1      35.144 -16.908 -23.436  0.00  0.00    +0.014 C 
ATOM     27  C   UNL     1      34.297 -15.664 -25.330  0.00  0.00    -0.003 C 
ATOM     28  C   UNL     1      35.039 -16.727 -24.815  0.00  0.00    +0.001 C 
ATOM     29  C   UNL     1      32.872 -13.648 -25.061  0.00  0.00    +0.032 C 
ATOM     30  H   UNL     1      32.597 -13.313 -22.521  0.00  0.00    +0.154 HD
ENDBRANCH  17  21
ENDBRANCH  16  17
ENDBRANCH   1  16
TORSDOF 5
ENDMDL
