MODEL 1
REMARK VINA RESULT:     -12.3      0.000      0.000
REMARK  Name = 446805
REMARK  6 active torsions:
REMARK  status: ('A' for Active; 'I' for Inactive)
REMARK    1  A    between atoms: C_4  and  C_22
REMARK    2  A    between atoms: C_7  and  N_11
REMARK    3  A    between atoms: N_11  and  S_13
REMARK    4  A    between atoms: S_13  and  C_16
REMARK    5  A    between atoms: C_22  and  C_23
REMARK    6  A    between atoms: C_28  and  C_31
REMARK                            x       y       z     vdW  Elec       q    Type
REMARK                         _______ _______ _______ _____ _____    ______ ____
ROOT
ATOM      1  N   UNL     1      34.742 -16.186 -23.130  0.00  0.00    -0.262 N 
ATOM      2  N   UNL     1      34.839 -16.515 -20.934  0.00  0.00    -0.394 NA
ATOM      3  C   UNL     1      34.117 -15.102 -22.570  0.00  0.00    +0.079 C 
ATOM      4  C   UNL     1      35.155 -17.001 -22.114  0.00  0.00    +0.168 C 
ATOM      5  C   UNL     1      34.191 -15.330 -21.199  0.00  0.00    +0.129 C 
ATOM      6  C   UNL     1      33.634 -14.390 -20.316  0.00  0.00    +0.103 C 
ATOM      7  C   UNL     1      33.021 -13.251 -20.853  0.00  0.00    +0.050 C 
ATOM      8  C   UNL     1      33.512 -13.975 -23.127  0.00  0.00    +0.018 C 
ATOM      9  C   UNL     1      34.926 -16.422 -24.544  0.00  0.00    +0.119 C 
ATOM     10  C   UNL     1      32.963 -13.048 -22.234  0.00  0.00    +0.013 C 
ENDROOT
BRANCH   7  11
ATOM     11  N   UNL     1      32.448 -12.282 -19.974  0.00  0.00    -0.219 N 
ATOM     12  H   UNL     1      32.779 -12.158 -19.055  0.00  0.00    +0.173 HD
BRANCH  11  13
ATOM     13  S   UNL     1      31.139 -11.331 -20.607  0.00  0.00    +0.073 S 
ATOM     14  O   UNL     1      30.143 -11.137 -19.571  0.00  0.00    -0.150 OA
ATOM     15  O   UNL     1      30.757 -11.851 -21.907  0.00  0.00    -0.150 OA
BRANCH  13  16
ATOM     16  C   UNL     1      31.929  -9.774 -20.890  0.00  0.00    +0.125 C 
ATOM     17  C   UNL     1      32.142  -8.922 -19.820  0.00  0.00    +0.020 C 
ATOM     18  C   UNL     1      32.320  -9.440 -22.174  0.00  0.00    +0.020 C 
ATOM     19  C   UNL     1      32.766  -7.695 -20.043  0.00  0.00    +0.001 C 
ATOM     20  C   UNL     1      32.944  -8.212 -22.397  0.00  0.00    +0.001 C 
ATOM     21  C   UNL     1      33.167  -7.339 -21.332  0.00  0.00    +0.000 C 
ENDBRANCH  13  16
ENDBRANCH  11  13
ENDBRANCH   7  11
BRANCH   4  22
ATOM     22  C   UNL     1      35.870 -18.270 -22.365  0.00  0.00    +0.101 C 
BRANCH  22  23
ATOM     23  C   UNL     1      35.587 -19.352 -21.331  0.00  0.00    -0.014 C 
ATOM     24  C   UNL     1      36.643 -19.902 -20.636  0.00  0.00    -0.004 C 
ATOM     25  C   UNL     1      34.282 -19.749 -21.123  0.00  0.00    -0.004 C 
ATOM     26  C   UNL     1      36.383 -20.894 -19.689  0.00  0.00    +0.002 C 
ATOM     27  C   UNL     1      34.022 -20.740 -20.178  0.00  0.00    +0.002 C 
ATOM     28  C   UNL     1      35.073 -21.312 -19.460  0.00  0.00    +0.031 C 
BRANCH  28  31
ATOM     29  N   UNL     1      33.760 -23.256 -18.645  0.00  0.00    -0.343 N 
ATOM     30  N   UNL     1      35.550 -22.433 -17.389  0.00  0.00    -0.285 NA
ATOM     31  C   UNL     1      34.802 -22.347 -18.474  0.00  0.00    +0.117 C 
ATOM     32  H   UNL     1      33.594 -23.948 -17.964  0.00  0.00    +0.144 HD
ATOM     33  H   UNL     1      33.189 -23.206 -19.445  0.00  0.00    +0.144 HD
ATOM     34  H   UNL     1      35.369 -23.132 -16.720  0.00  0.00    +0.188 HD
ENDBRANCH  28  31
ENDBRANCH  22  23
ENDBRANCH   4  22
TORSDOF 6
ENDMDL
MODEL 2
REMARK VINA RESULT:     -12.1      5.145      8.593
REMARK  Name = 446805
REMARK  6 active torsions:
REMARK  status: ('A' for Active; 'I' for Inactive)
REMARK    1  A    between atoms: C_4  and  C_22
REMARK    2  A    between atoms: C_7  and  N_11
REMARK    3  A    between atoms: N_11  and  S_13
REMARK    4  A    between atoms: S_13  and  C_16
REMARK    5  A    between atoms: C_22  and  C_23
REMARK    6  A    between atoms: C_28  and  C_31
REMARK                            x       y       z     vdW  Elec       q    Type
REMARK                         _______ _______ _______ _____ _____    ______ ____
ROOT
ATOM      1  N   UNL     1      34.007 -22.973 -17.002  0.00  0.00    -0.262 N 
ATOM      2  N   UNL     1      32.169 -22.163 -17.954  0.00  0.00    -0.394 NA
ATOM      3  C   UNL     1      34.443 -22.240 -18.076  0.00  0.00    +0.079 C 
ATOM      4  C   UNL     1      32.643 -22.896 -16.971  0.00  0.00    +0.168 C 
ATOM      5  C   UNL     1      33.278 -21.744 -18.653  0.00  0.00    +0.129 C 
ATOM      6  C   UNL     1      33.371 -20.935 -19.798  0.00  0.00    +0.103 C 
ATOM      7  C   UNL     1      34.641 -20.657 -20.318  0.00  0.00    +0.050 C 
ATOM      8  C   UNL     1      35.719 -21.975 -18.575  0.00  0.00    +0.018 C 
ATOM      9  C   UNL     1      34.844 -23.696 -16.072  0.00  0.00    +0.119 C 
ATOM     10  C   UNL     1      35.793 -21.168 -19.716  0.00  0.00    +0.013 C 
ENDROOT
BRANCH   7  11
ATOM     11  N   UNL     1      34.759 -19.838 -21.482  0.00  0.00    -0.219 N 
ATOM     12  H   UNL     1      34.127 -19.913 -22.234  0.00  0.00    +0.173 HD
BRANCH  11  13
ATOM     13  S   UNL     1      36.071 -18.699 -21.507  0.00  0.00    +0.073 S 
ATOM     14  O   UNL     1      36.957 -19.013 -22.611  0.00  0.00    -0.150 OA
ATOM     15  O   UNL     1      36.596 -18.548 -20.163  0.00  0.00    -0.150 OA
BRANCH  13  16
ATOM     16  C   UNL     1      35.233 -17.193 -21.903  0.00  0.00    +0.125 C 
ATOM     17  C   UNL     1      35.084 -16.834 -23.231  0.00  0.00    +0.020 C 
ATOM     18  C   UNL     1      34.742 -16.405 -20.878  0.00  0.00    +0.020 C 
ATOM     19  C   UNL     1      34.423 -15.646 -23.543  0.00  0.00    +0.001 C 
ATOM     20  C   UNL     1      34.080 -15.217 -21.190  0.00  0.00    +0.001 C 
ATOM     21  C   UNL     1      33.921 -14.837 -22.523  0.00  0.00    +0.000 C 
ENDBRANCH  13  16
ENDBRANCH  11  13
ENDBRANCH   7  11
BRANCH   4  22
ATOM     22  C   UNL     1      31.840 -23.577 -15.934  0.00  0.00    +0.101 C 
BRANCH  22  23
ATOM     23  C   UNL     1      30.374 -23.163 -15.918  0.00  0.00    -0.014 C 
ATOM     24  C   UNL     1      29.554 -23.571 -16.949  0.00  0.00    -0.004 C 
ATOM     25  C   UNL     1      29.912 -22.392 -14.871  0.00  0.00    -0.004 C 
ATOM     26  C   UNL     1      28.212 -23.191 -16.934  0.00  0.00    +0.002 C 
ATOM     27  C   UNL     1      28.570 -22.011 -14.856  0.00  0.00    +0.002 C 
ATOM     28  C   UNL     1      27.720 -22.412 -15.887  0.00  0.00    +0.031 C 
BRANCH  28  31
ATOM     29  N   UNL     1      25.746 -21.344 -16.949  0.00  0.00    -0.343 N 
ATOM     30  N   UNL     1      25.571 -22.288 -14.818  0.00  0.00    -0.285 NA
ATOM     31  C   UNL     1      26.321 -22.015 -15.871  0.00  0.00    +0.117 C 
ATOM     32  H   UNL     1      24.796 -21.085 -16.916  0.00  0.00    +0.144 HD
ATOM     33  H   UNL     1      26.287 -21.129 -17.742  0.00  0.00    +0.144 HD
ATOM     34  H   UNL     1      24.624 -22.021 -14.805  0.00  0.00    +0.188 HD
ENDBRANCH  28  31
ENDBRANCH  22  23
ENDBRANCH   4  22
TORSDOF 6
ENDMDL
MODEL 3
REMARK VINA RESULT:     -11.8      3.649     10.111
REMARK  Name = 446805
REMARK  6 active torsions:
REMARK  status: ('A' for Active; 'I' for Inactive)
REMARK    1  A    between atoms: C_4  and  C_22
REMARK    2  A    between atoms: C_7  and  N_11
REMARK    3  A    between atoms: N_11  and  S_13
REMARK    4  A    between atoms: S_13  and  C_16
REMARK    5  A    between atoms: C_22  and  C_23
REMARK    6  A    between atoms: C_28  and  C_31
REMARK                            x       y       z     vdW  Elec       q    Type
REMARK                         _______ _______ _______ _____ _____    ______ ____
ROOT
ATOM      1  N   UNL     1      33.923 -13.599 -24.859  0.00  0.00    -0.262 N 
ATOM      2  N   UNL     1      34.329 -12.741 -22.850  0.00  0.00    -0.394 NA
ATOM      3  C   UNL     1      34.226 -14.670 -24.058  0.00  0.00    +0.079 C 
ATOM      4  C   UNL     1      33.998 -12.470 -24.092  0.00  0.00    +0.168 C 
ATOM      5  C   UNL     1      34.474 -14.109 -22.809  0.00  0.00    +0.129 C 
ATOM      6  C   UNL     1      34.820 -14.948 -21.736  0.00  0.00    +0.103 C 
ATOM      7  C   UNL     1      34.901 -16.327 -21.967  0.00  0.00    +0.050 C 
ATOM      8  C   UNL     1      34.300 -16.040 -24.310  0.00  0.00    +0.018 C 
ATOM      9  C   UNL     1      33.587 -13.658 -26.264  0.00  0.00    +0.119 C 
ATOM     10  C   UNL     1      34.645 -16.862 -23.232  0.00  0.00    +0.013 C 
ENDROOT
BRANCH   7  11
ATOM     11  N   UNL     1      35.251 -17.199 -20.891  0.00  0.00    -0.219 N 
ATOM     12  H   UNL     1      34.975 -17.014 -19.964  0.00  0.00    +0.173 HD
BRANCH  11  13
ATOM     13  S   UNL     1      36.187 -18.605 -21.298  0.00  0.00    +0.073 S 
ATOM     14  O   UNL     1      37.481 -18.524 -20.649  0.00  0.00    -0.150 OA
ATOM     15  O   UNL     1      36.094 -18.843 -22.727  0.00  0.00    -0.150 OA
BRANCH  13  16
ATOM     16  C   UNL     1      35.269 -19.891 -20.504  0.00  0.00    +0.125 C 
ATOM     17  C   UNL     1      35.949 -20.868 -19.798  0.00  0.00    +0.020 C 
ATOM     18  C   UNL     1      33.889 -19.894 -20.603  0.00  0.00    +0.020 C 
ATOM     19  C   UNL     1      35.224 -21.881 -19.170  0.00  0.00    +0.001 C 
ATOM     20  C   UNL     1      33.164 -20.908 -19.976  0.00  0.00    +0.001 C 
ATOM     21  C   UNL     1      33.832 -21.902 -19.260  0.00  0.00    +0.000 C 
ENDBRANCH  13  16
ENDBRANCH  11  13
ENDBRANCH   7  11
BRANCH   4  22
ATOM     22  C   UNL     1      33.730 -11.126 -24.645  0.00  0.00    +0.101 C 
BRANCH  22  23
ATOM     23  C   UNL     1      33.479 -10.062 -23.583  0.00  0.00    -0.014 C 
ATOM     24  C   UNL     1      34.275  -8.936 -23.566  0.00  0.00    -0.004 C 
ATOM     25  C   UNL     1      32.462 -10.259 -22.671  0.00  0.00    -0.004 C 
ATOM     26  C   UNL     1      34.045  -7.962 -22.594  0.00  0.00    +0.002 C 
ATOM     27  C   UNL     1      32.232  -9.286 -21.699  0.00  0.00    +0.002 C 
ATOM     28  C   UNL     1      33.023  -8.138 -21.661  0.00  0.00    +0.031 C 
BRANCH  28  31
ATOM     29  N   UNL     1      32.294  -5.862 -20.985  0.00  0.00    -0.343 N 
ATOM     30  N   UNL     1      33.033  -7.389 -19.377  0.00  0.00    -0.285 NA
ATOM     31  C   UNL     1      32.783  -7.123 -20.647  0.00  0.00    +0.117 C 
ATOM     32  H   UNL     1      32.139  -5.190 -20.281  0.00  0.00    +0.144 HD
ATOM     33  H   UNL     1      32.104  -5.643 -21.925  0.00  0.00    +0.144 HD
ATOM     34  H   UNL     1      32.872  -6.704 -18.689  0.00  0.00    +0.188 HD
ENDBRANCH  28  31
ENDBRANCH  22  23
ENDBRANCH   4  22
TORSDOF 6
ENDMDL
MODEL 4
REMARK VINA RESULT:     -11.7      4.772      8.117
REMARK  Name = 446805
REMARK  6 active torsions:
REMARK  status: ('A' for Active; 'I' for Inactive)
REMARK    1  A    between atoms: C_4  and  C_22
REMARK    2  A    between atoms: C_7  and  N_11
REMARK    3  A    between atoms: N_11  and  S_13
REMARK    4  A    between atoms: S_13  and  C_16
REMARK    5  A    between atoms: C_22  and  C_23
REMARK    6  A    between atoms: C_28  and  C_31
REMARK                            x       y       z     vdW  Elec       q    Type
REMARK                         _______ _______ _______ _____ _____    ______ ____
ROOT
ATOM      1  N   UNL     1      33.221 -22.446 -17.406  0.00  0.00    -0.262 N 
ATOM      2  N   UNL     1      35.431 -22.543 -17.616  0.00  0.00    -0.394 NA
ATOM      3  C   UNL     1      33.510 -21.755 -18.554  0.00  0.00    +0.079 C 
ATOM      4  C   UNL     1      34.400 -22.896 -16.882  0.00  0.00    +0.168 C 
ATOM      5  C   UNL     1      34.895 -21.831 -18.664  0.00  0.00    +0.129 C 
ATOM      6  C   UNL     1      35.532 -21.213 -19.755  0.00  0.00    +0.103 C 
ATOM      7  C   UNL     1      34.741 -20.541 -20.695  0.00  0.00    +0.050 C 
ATOM      8  C   UNL     1      32.703 -21.092 -19.480  0.00  0.00    +0.018 C 
ATOM      9  C   UNL     1      31.902 -22.656 -16.851  0.00  0.00    +0.119 C 
ATOM     10  C   UNL     1      33.352 -20.483 -20.559  0.00  0.00    +0.013 C 
ENDROOT
BRANCH   7  11
ATOM     11  N   UNL     1      35.367 -19.905 -21.811  0.00  0.00    -0.219 N 
ATOM     12  H   UNL     1      35.313 -20.284 -22.719  0.00  0.00    +0.173 HD
BRANCH  11  13
ATOM     13  S   UNL     1      36.226 -18.430 -21.490  0.00  0.00    +0.073 S 
ATOM     14  O   UNL     1      37.602 -18.572 -21.923  0.00  0.00    -0.150 OA
ATOM     15  O   UNL     1      35.921 -17.985 -20.143  0.00  0.00    -0.150 OA
BRANCH  13  16
ATOM     16  C   UNL     1      35.430 -17.302 -22.595  0.00  0.00    +0.125 C 
ATOM     17  C   UNL     1      34.996 -16.079 -22.112  0.00  0.00    +0.020 C 
ATOM     18  C   UNL     1      35.257 -17.663 -23.918  0.00  0.00    +0.020 C 
ATOM     19  C   UNL     1      34.369 -15.189 -22.985  0.00  0.00    +0.001 C 
ATOM     20  C   UNL     1      34.629 -16.773 -24.791  0.00  0.00    +0.001 C 
ATOM     21  C   UNL     1      34.185 -15.536 -24.324  0.00  0.00    +0.000 C 
ENDBRANCH  13  16
ENDBRANCH  11  13
ENDBRANCH   7  11
BRANCH   4  22
ATOM     22  C   UNL     1      34.455 -23.685 -15.633  0.00  0.00    +0.101 C 
BRANCH  22  23
ATOM     23  C   UNL     1      35.832 -24.260 -15.327  0.00  0.00    -0.014 C 
ATOM     24  C   UNL     1      36.921 -23.414 -15.321  0.00  0.00    -0.004 C 
ATOM     25  C   UNL     1      35.946 -25.610 -15.065  0.00  0.00    -0.004 C 
ATOM     26  C   UNL     1      38.182 -23.941 -15.041  0.00  0.00    +0.002 C 
ATOM     27  C   UNL     1      37.206 -26.137 -14.785  0.00  0.00    +0.002 C 
ATOM     28  C   UNL     1      38.324 -25.302 -14.773  0.00  0.00    +0.031 C 
BRANCH  28  31
ATOM     29  N   UNL     1      39.966 -26.311 -13.207  0.00  0.00    -0.343 N 
ATOM     30  N   UNL     1      40.551 -25.919 -15.435  0.00  0.00    -0.285 NA
ATOM     31  C   UNL     1      39.639 -25.852 -14.481  0.00  0.00    +0.117 C 
ATOM     32  H   UNL     1      40.863 -26.680 -13.032  0.00  0.00    +0.144 HD
ATOM     33  H   UNL     1      39.302 -26.268 -12.482  0.00  0.00    +0.144 HD
ATOM     34  H   UNL     1      41.441 -26.291 -15.241  0.00  0.00    +0.188 HD
ENDBRANCH  28  31
ENDBRANCH  22  23
ENDBRANCH   4  22
TORSDOF 6
ENDMDL
MODEL 5
REMARK VINA RESULT:     -11.6      5.027     10.380
REMARK  Name = 446805
REMARK  6 active torsions:
REMARK  status: ('A' for Active; 'I' for Inactive)
REMARK    1  A    between atoms: C_4  and  C_22
REMARK    2  A    between atoms: C_7  and  N_11
REMARK    3  A    between atoms: N_11  and  S_13
REMARK    4  A    between atoms: S_13  and  C_16
REMARK    5  A    between atoms: C_22  and  C_23
REMARK    6  A    between atoms: C_28  and  C_31
REMARK                            x       y       z     vdW  Elec       q    Type
REMARK                         _______ _______ _______ _____ _____    ______ ____
ROOT
ATOM      1  N   UNL     1      36.514 -19.416 -20.861  0.00  0.00    -0.262 N 
ATOM      2  N   UNL     1      34.371 -19.796 -21.309  0.00  0.00    -0.394 NA
ATOM      3  C   UNL     1      36.124 -20.391 -19.980  0.00  0.00    +0.079 C 
ATOM      4  C   UNL     1      35.433 -19.094 -21.632  0.00  0.00    +0.168 C 
ATOM      5  C   UNL     1      34.783 -20.612 -20.280  0.00  0.00    +0.129 C 
ATOM      6  C   UNL     1      34.065 -21.572 -19.547  0.00  0.00    +0.103 C 
ATOM      7  C   UNL     1      34.732 -22.275 -18.535  0.00  0.00    +0.050 C 
ATOM      8  C   UNL     1      36.808 -21.080 -18.978  0.00  0.00    +0.018 C 
ATOM      9  C   UNL     1      37.834 -18.834 -20.952  0.00  0.00    +0.119 C 
ATOM     10  C   UNL     1      36.080 -22.032 -18.258  0.00  0.00    +0.013 C 
ENDROOT
BRANCH   7  11
ATOM     11  N   UNL     1      34.022 -23.255 -17.777  0.00  0.00    -0.219 N 
ATOM     12  H   UNL     1      33.369 -23.861 -18.197  0.00  0.00    +0.173 HD
BRANCH  11  13
ATOM     13  S   UNL     1      34.368 -23.328 -16.076  0.00  0.00    +0.073 S 
ATOM     14  O   UNL     1      35.062 -22.120 -15.676  0.00  0.00    -0.150 OA
ATOM     15  O   UNL     1      34.916 -24.633 -15.756  0.00  0.00    -0.150 OA
BRANCH  13  16
ATOM     16  C   UNL     1      32.744 -23.270 -15.376  0.00  0.00    +0.125 C 
ATOM     17  C   UNL     1      31.664 -23.009 -16.201  0.00  0.00    +0.020 C 
ATOM     18  C   UNL     1      32.587 -23.487 -14.019  0.00  0.00    +0.020 C 
ATOM     19  C   UNL     1      30.384 -22.964 -15.649  0.00  0.00    +0.001 C 
ATOM     20  C   UNL     1      31.306 -23.442 -13.467  0.00  0.00    +0.001 C 
ATOM     21  C   UNL     1      30.205 -23.180 -14.282  0.00  0.00    +0.000 C 
ENDBRANCH  13  16
ENDBRANCH  11  13
ENDBRANCH   7  11
BRANCH   4  22
ATOM     22  C   UNL     1      35.503 -18.067 -22.693  0.00  0.00    +0.101 C 
BRANCH  22  23
ATOM     23  C   UNL     1      34.795 -16.766 -22.340  0.00  0.00    -0.014 C 
ATOM     24  C   UNL     1      34.600 -16.453 -21.011  0.00  0.00    -0.004 C 
ATOM     25  C   UNL     1      34.370 -15.940 -23.361  0.00  0.00    -0.004 C 
ATOM     26  C   UNL     1      33.951 -15.260 -20.687  0.00  0.00    +0.002 C 
ATOM     27  C   UNL     1      33.722 -14.749 -23.037  0.00  0.00    +0.002 C 
ATOM     28  C   UNL     1      33.512 -14.409 -21.700  0.00  0.00    +0.031 C 
BRANCH  28  31
ATOM     29  N   UNL     1      32.726 -12.127 -22.286  0.00  0.00    -0.343 N 
ATOM     30  N   UNL     1      32.313 -13.007 -20.160  0.00  0.00    -0.285 NA
ATOM     31  C   UNL     1      32.835 -13.166 -21.363  0.00  0.00    +0.117 C 
ATOM     32  H   UNL     1      32.263 -11.295 -22.036  0.00  0.00    +0.144 HD
ATOM     33  H   UNL     1      33.110 -12.225 -23.186  0.00  0.00    +0.144 HD
ATOM     34  H   UNL     1      31.855 -12.167 -19.929  0.00  0.00    +0.188 HD
ENDBRANCH  28  31
ENDBRANCH  22  23
ENDBRANCH   4  22
TORSDOF 6
ENDMDL
MODEL 6
REMARK VINA RESULT:     -11.6      7.864     12.579
REMARK  Name = 446805
REMARK  6 active torsions:
REMARK  status: ('A' for Active; 'I' for Inactive)
REMARK    1  A    between atoms: C_4  and  C_22
REMARK    2  A    between atoms: C_7  and  N_11
REMARK    3  A    between atoms: N_11  and  S_13
REMARK    4  A    between atoms: S_13  and  C_16
REMARK    5  A    between atoms: C_22  and  C_23
REMARK    6  A    between atoms: C_28  and  C_31
REMARK                            x       y       z     vdW  Elec       q    Type
REMARK                         _______ _______ _______ _____ _____    ______ ____
ROOT
ATOM      1  N   UNL     1      32.271 -23.000 -16.230  0.00  0.00    -0.262 N 
ATOM      2  N   UNL     1      34.313 -23.487 -16.958  0.00  0.00    -0.394 NA
ATOM      3  C   UNL     1      32.931 -23.519 -15.147  0.00  0.00    +0.079 C 
ATOM      4  C   UNL     1      33.137 -23.001 -17.287  0.00  0.00    +0.168 C 
ATOM      5  C   UNL     1      34.204 -23.814 -15.626  0.00  0.00    +0.129 C 
ATOM      6  C   UNL     1      35.153 -24.372 -14.753  0.00  0.00    +0.103 C 
ATOM      7  C   UNL     1      34.779 -24.611 -13.424  0.00  0.00    +0.050 C 
ATOM      8  C   UNL     1      32.538 -23.747 -13.827  0.00  0.00    +0.018 C 
ATOM      9  C   UNL     1      30.902 -22.536 -16.247  0.00  0.00    +0.119 C 
ATOM     10  C   UNL     1      33.494 -24.302 -12.971  0.00  0.00    +0.013 C 
ENDROOT
BRANCH   7  11
ATOM     11  N   UNL     1      35.728 -25.178 -12.519  0.00  0.00    -0.219 N 
ATOM     12  H   UNL     1      35.634 -26.099 -12.183  0.00  0.00    +0.173 HD
BRANCH  11  13
ATOM     13  S   UNL     1      37.056 -24.165 -12.043  0.00  0.00    +0.073 S 
ATOM     14  O   UNL     1      37.497 -24.545 -10.715  0.00  0.00    -0.150 OA
ATOM     15  O   UNL     1      36.733 -22.782 -12.343  0.00  0.00    -0.150 OA
BRANCH  13  16
ATOM     16  C   UNL     1      38.312 -24.657 -13.187  0.00  0.00    +0.125 C 
ATOM     17  C   UNL     1      38.424 -23.987 -14.394  0.00  0.00    +0.020 C 
ATOM     18  C   UNL     1      39.157 -25.699 -12.854  0.00  0.00    +0.020 C 
ATOM     19  C   UNL     1      39.415 -24.375 -15.296  0.00  0.00    +0.001 C 
ATOM     20  C   UNL     1      40.149 -26.086 -13.756  0.00  0.00    +0.001 C 
ATOM     21  C   UNL     1      40.277 -25.424 -14.977  0.00  0.00    +0.000 C 
ENDBRANCH  13  16
ENDBRANCH  11  13
ENDBRANCH   7  11
BRANCH   4  22
ATOM     22  C   UNL     1      32.748 -22.505 -18.623  0.00  0.00    +0.101 C 
BRANCH  22  23
ATOM     23  C   UNL     1      33.791 -21.606 -19.275  0.00  0.00    -0.014 C 
ATOM     24  C   UNL     1      35.127 -21.873 -19.063  0.00  0.00    -0.004 C 
ATOM     25  C   UNL     1      33.365 -20.552 -20.057  0.00  0.00    -0.004 C 
ATOM     26  C   UNL     1      36.082 -21.050 -19.660  0.00  0.00    +0.002 C 
ATOM     27  C   UNL     1      34.320 -19.728 -20.653  0.00  0.00    +0.002 C 
ATOM     28  C   UNL     1      35.678 -19.977 -20.455  0.00  0.00    +0.031 C 
BRANCH  28  31
ATOM     29  N   UNL     1      36.536 -18.685 -22.394  0.00  0.00    -0.343 N 
ATOM     30  N   UNL     1      37.735 -18.736 -20.390  0.00  0.00    -0.285 NA
ATOM     31  C   UNL     1      36.673 -19.118 -21.077  0.00  0.00    +0.117 C 
ATOM     32  H   UNL     1      37.222 -18.103 -22.795  0.00  0.00    +0.144 HD
ATOM     33  H   UNL     1      35.753 -18.960 -22.924  0.00  0.00    +0.144 HD
ATOM     34  H   UNL     1      38.411 -18.155 -20.808  0.00  0.00    +0.188 HD
ENDBRANCH  28  31
ENDBRANCH  22  23
ENDBRANCH   4  22
TORSDOF 6
ENDMDL
MODEL 7
REMARK VINA RESULT:     -11.2      4.325     11.194
REMARK  Name = 446805
REMARK  6 active torsions:
REMARK  status: ('A' for Active; 'I' for Inactive)
REMARK    1  A    between atoms: C_4  and  C_22
REMARK    2  A    between atoms: C_7  and  N_11
REMARK    3  A    between atoms: N_11  and  S_13
REMARK    4  A    between atoms: S_13  and  C_16
REMARK    5  A    between atoms: C_22  and  C_23
REMARK    6  A    between atoms: C_28  and  C_31
REMARK                            x       y       z     vdW  Elec       q    Type
REMARK                         _______ _______ _______ _____ _____    ______ ____
ROOT
ATOM      1  N   UNL     1      31.964  -8.075 -20.440  0.00  0.00    -0.262 N 
ATOM      2  N   UNL     1      32.014  -8.619 -22.595  0.00  0.00    -0.394 NA
ATOM      3  C   UNL     1      31.958  -9.446 -20.472  0.00  0.00    +0.079 C 
ATOM      4  C   UNL     1      31.998  -7.628 -21.731  0.00  0.00    +0.168 C 
ATOM      5  C   UNL     1      31.991  -9.761 -21.827  0.00  0.00    +0.129 C 
ATOM      6  C   UNL     1      31.994 -11.111 -22.218  0.00  0.00    +0.103 C 
ATOM      7  C   UNL     1      31.965 -12.094 -21.221  0.00  0.00    +0.050 C 
ATOM      8  C   UNL     1      31.930 -10.409 -19.462  0.00  0.00    +0.018 C 
ATOM      9  C   UNL     1      31.938  -7.254 -19.251  0.00  0.00    +0.119 C 
ATOM     10  C   UNL     1      31.934 -11.747 -19.868  0.00  0.00    +0.013 C 
ENDROOT
BRANCH   7  11
ATOM     11  N   UNL     1      31.967 -13.473 -21.595  0.00  0.00    -0.219 N 
ATOM     12  H   UNL     1      31.196 -13.887 -22.046  0.00  0.00    +0.173 HD
BRANCH  11  13
ATOM     13  S   UNL     1      33.397 -14.383 -21.216  0.00  0.00    +0.073 S 
ATOM     14  O   UNL     1      33.041 -15.509 -20.376  0.00  0.00    -0.150 OA
ATOM     15  O   UNL     1      34.451 -13.470 -20.815  0.00  0.00    -0.150 OA
BRANCH  13  16
ATOM     16  C   UNL     1      33.849 -15.020 -22.803  0.00  0.00    +0.125 C 
ATOM     17  C   UNL     1      34.686 -16.120 -22.875  0.00  0.00    +0.020 C 
ATOM     18  C   UNL     1      33.356 -14.407 -23.941  0.00  0.00    +0.020 C 
ATOM     19  C   UNL     1      35.041 -16.623 -24.127  0.00  0.00    +0.001 C 
ATOM     20  C   UNL     1      33.711 -14.910 -25.193  0.00  0.00    +0.001 C 
ATOM     21  C   UNL     1      34.554 -16.018 -25.286  0.00  0.00    +0.000 C 
ENDBRANCH  13  16
ENDBRANCH  11  13
ENDBRANCH   7  11
BRANCH   4  22
ATOM     22  C   UNL     1      32.012  -6.189 -22.064  0.00  0.00    +0.101 C 
BRANCH  22  23
ATOM     23  C   UNL     1      32.844  -5.849 -23.294  0.00  0.00    -0.014 C 
ATOM     24  C   UNL     1      34.063  -6.470 -23.467  0.00  0.00    -0.004 C 
ATOM     25  C   UNL     1      32.351  -4.929 -24.197  0.00  0.00    -0.004 C 
ATOM     26  C   UNL     1      34.825  -6.158 -24.594  0.00  0.00    +0.002 C 
ATOM     27  C   UNL     1      33.112  -4.617 -25.324  0.00  0.00    +0.002 C 
ATOM     28  C   UNL     1      34.349  -5.232 -25.522  0.00  0.00    +0.031 C 
BRANCH  28  31
ATOM     29  N   UNL     1      34.545  -4.670 -27.933  0.00  0.00    -0.343 N 
ATOM     30  N   UNL     1      36.459  -4.832 -26.601  0.00  0.00    -0.285 NA
ATOM     31  C   UNL     1      35.143  -4.906 -26.696  0.00  0.00    +0.117 C 
ATOM     32  H   UNL     1      35.103  -4.452 -28.715  0.00  0.00    +0.144 HD
ATOM     33  H   UNL     1      33.567  -4.723 -28.025  0.00  0.00    +0.144 HD
ATOM     34  H   UNL     1      36.999  -4.612 -27.394  0.00  0.00    +0.188 HD
ENDBRANCH  28  31
ENDBRANCH  22  23
ENDBRANCH   4  22
TORSDOF 6
ENDMDL
MODEL 8
REMARK VINA RESULT:     -11.1      4.068     11.408
REMARK  Name = 446805
REMARK  6 active torsions:
REMARK  status: ('A' for Active; 'I' for Inactive)
REMARK    1  A    between atoms: C_4  and  C_22
REMARK    2  A    between atoms: C_7  and  N_11
REMARK    3  A    between atoms: N_11  and  S_13
REMARK    4  A    between atoms: S_13  and  C_16
REMARK    5  A    between atoms: C_22  and  C_23
REMARK    6  A    between atoms: C_28  and  C_31
REMARK                            x       y       z     vdW  Elec       q    Type
REMARK                         _______ _______ _______ _____ _____    ______ ____
ROOT
ATOM      1  N   UNL     1      31.965  -8.244 -20.706  0.00  0.00    -0.262 N 
ATOM      2  N   UNL     1      32.427  -8.645 -22.843  0.00  0.00    -0.394 NA
ATOM      3  C   UNL     1      32.001  -9.609 -20.822  0.00  0.00    +0.079 C 
ATOM      4  C   UNL     1      32.225  -7.713 -21.938  0.00  0.00    +0.168 C 
ATOM      5  C   UNL     1      32.292  -9.835 -22.164  0.00  0.00    +0.129 C 
ATOM      6  C   UNL     1      32.403 -11.156 -22.630  0.00  0.00    +0.103 C 
ATOM      7  C   UNL     1      32.216 -12.203 -21.718  0.00  0.00    +0.050 C 
ATOM      8  C   UNL     1      31.813 -10.636 -19.896  0.00  0.00    +0.018 C 
ATOM      9  C   UNL     1      31.698  -7.502 -19.494  0.00  0.00    +0.119 C 
ATOM     10  C   UNL     1      31.927 -11.945 -20.376  0.00  0.00    +0.013 C 
ENDROOT
BRANCH   7  11
ATOM     11  N   UNL     1      32.324 -13.554 -22.169  0.00  0.00    -0.219 N 
ATOM     12  H   UNL     1      31.751 -14.268 -21.804  0.00  0.00    +0.173 HD
BRANCH  11  13
ATOM     13  S   UNL     1      33.514 -13.877 -23.392  0.00  0.00    +0.073 S 
ATOM     14  O   UNL     1      34.537 -12.851 -23.349  0.00  0.00    -0.150 OA
ATOM     15  O   UNL     1      32.842 -14.194 -24.639  0.00  0.00    -0.150 OA
BRANCH  13  16
ATOM     16  C   UNL     1      34.236 -15.381 -22.804  0.00  0.00    +0.125 C 
ATOM     17  C   UNL     1      34.651 -16.332 -23.720  0.00  0.00    +0.020 C 
ATOM     18  C   UNL     1      34.373 -15.575 -21.442  0.00  0.00    +0.020 C 
ATOM     19  C   UNL     1      35.221 -17.518 -23.255  0.00  0.00    +0.001 C 
ATOM     20  C   UNL     1      34.943 -16.761 -20.977  0.00  0.00    +0.001 C 
ATOM     21  C   UNL     1      35.368 -17.732 -21.884  0.00  0.00    +0.000 C 
ENDBRANCH  13  16
ENDBRANCH  11  13
ENDBRANCH   7  11
BRANCH   4  22
ATOM     22  C   UNL     1      32.263  -6.255 -22.174  0.00  0.00    +0.101 C 
BRANCH  22  23
ATOM     23  C   UNL     1      33.029  -5.852 -23.427  0.00  0.00    -0.014 C 
ATOM     24  C   UNL     1      32.435  -4.988 -24.323  0.00  0.00    -0.004 C 
ATOM     25  C   UNL     1      34.295  -6.365 -23.627  0.00  0.00    -0.004 C 
ATOM     26  C   UNL     1      33.138  -4.620 -25.471  0.00  0.00    +0.002 C 
ATOM     27  C   UNL     1      34.997  -5.998 -24.775  0.00  0.00    +0.002 C 
ATOM     28  C   UNL     1      34.418  -5.124 -25.697  0.00  0.00    +0.031 C 
BRANCH  28  31
ATOM     29  N   UNL     1      36.541  -4.658 -26.897  0.00  0.00    -0.343 N 
ATOM     30  N   UNL     1      34.493  -4.461 -28.005  0.00  0.00    -0.285 NA
ATOM     31  C   UNL     1      35.150  -4.741 -26.894  0.00  0.00    +0.117 C 
ATOM     32  H   UNL     1      37.016  -4.396 -27.719  0.00  0.00    +0.144 HD
ATOM     33  H   UNL     1      37.049  -4.860 -26.078  0.00  0.00    +0.144 HD
ATOM     34  H   UNL     1      34.986  -4.201 -28.817  0.00  0.00    +0.188 HD
ENDBRANCH  28  31
ENDBRANCH  22  23
ENDBRANCH   4  22
TORSDOF 6
ENDMDL
MODEL 9
REMARK VINA RESULT:     -10.9      5.388     11.345
REMARK  Name = 446805
REMARK  6 active torsions:
REMARK  status: ('A' for Active; 'I' for Inactive)
REMARK    1  A    between atoms: C_4  and  C_22
REMARK    2  A    between atoms: C_7  and  N_11
REMARK    3  A    between atoms: N_11  and  S_13
REMARK    4  A    between atoms: S_13  and  C_16
REMARK    5  A    between atoms: C_22  and  C_23
REMARK    6  A    between atoms: C_28  and  C_31
REMARK                            x       y       z     vdW  Elec       q    Type
REMARK                         _______ _______ _______ _____ _____    ______ ____
ROOT
ATOM      1  N   UNL     1      34.961 -20.069 -20.973  0.00  0.00    -0.262 N 
ATOM      2  N   UNL     1      37.066 -19.738 -20.342  0.00  0.00    -0.394 NA
ATOM      3  C   UNL     1      35.139 -20.857 -19.866  0.00  0.00    +0.079 C 
ATOM      4  C   UNL     1      36.138 -19.421 -21.218  0.00  0.00    +0.168 C 
ATOM      5  C   UNL     1      36.460 -20.632 -19.490  0.00  0.00    +0.129 C 
ATOM      6  C   UNL     1      36.976 -21.300 -18.366  0.00  0.00    +0.103 C 
ATOM      7  C   UNL     1      36.136 -22.172 -17.663  0.00  0.00    +0.050 C 
ATOM      8  C   UNL     1      34.283 -21.720 -19.179  0.00  0.00    +0.018 C 
ATOM      9  C   UNL     1      33.743 -19.950 -21.743  0.00  0.00    +0.119 C 
ATOM     10  C   UNL     1      34.813 -22.376 -18.063  0.00  0.00    +0.013 C 
ENDROOT
BRANCH   7  11
ATOM     11  N   UNL     1      36.640 -22.862 -16.518  0.00  0.00    -0.219 N 
ATOM     12  H   UNL     1      37.606 -22.994 -16.378  0.00  0.00    +0.173 HD
BRANCH  11  13
ATOM     13  S   UNL     1      35.466 -23.453 -15.382  0.00  0.00    +0.073 S 
ATOM     14  O   UNL     1      34.519 -24.307 -16.073  0.00  0.00    -0.150 OA
ATOM     15  O   UNL     1      35.001 -22.352 -14.560  0.00  0.00    -0.150 OA
BRANCH  13  16
ATOM     16  C   UNL     1      36.458 -24.485 -14.343  0.00  0.00    +0.125 C 
ATOM     17  C   UNL     1      37.163 -23.910 -13.300  0.00  0.00    +0.020 C 
ATOM     18  C   UNL     1      36.510 -25.844 -14.594  0.00  0.00    +0.020 C 
ATOM     19  C   UNL     1      37.945 -24.724 -12.480  0.00  0.00    +0.001 C 
ATOM     20  C   UNL     1      37.293 -26.657 -13.774  0.00  0.00    +0.001 C 
ATOM     21  C   UNL     1      38.010 -26.098 -12.717  0.00  0.00    +0.000 C 
ENDBRANCH  13  16
ENDBRANCH  11  13
ENDBRANCH   7  11
BRANCH   4  22
ATOM     22  C   UNL     1      36.300 -18.484 -22.349  0.00  0.00    +0.101 C 
BRANCH  22  23
ATOM     23  C   UNL     1      35.433 -17.236 -22.245  0.00  0.00    -0.014 C 
ATOM     24  C   UNL     1      35.052 -16.590 -23.402  0.00  0.00    -0.004 C 
ATOM     25  C   UNL     1      35.055 -16.791 -20.994  0.00  0.00    -0.004 C 
ATOM     26  C   UNL     1      34.257 -15.447 -23.306  0.00  0.00    +0.002 C 
ATOM     27  C   UNL     1      34.262 -15.648 -20.898  0.00  0.00    +0.002 C 
ATOM     28  C   UNL     1      33.863 -14.976 -22.054  0.00  0.00    +0.031 C 
BRANCH  28  31
ATOM     29  N   UNL     1      33.281 -12.663 -22.743  0.00  0.00    -0.343 N 
ATOM     30  N   UNL     1      32.031 -13.751 -21.096  0.00  0.00    -0.285 NA
ATOM     31  C   UNL     1      33.036 -13.784 -21.953  0.00  0.00    +0.117 C 
ATOM     32  H   UNL     1      32.708 -11.866 -22.658  0.00  0.00    +0.144 HD
ATOM     33  H   UNL     1      34.026 -12.666 -23.386  0.00  0.00    +0.144 HD
ATOM     34  H   UNL     1      31.470 -12.945 -21.026  0.00  0.00    +0.188 HD
ENDBRANCH  28  31
ENDBRANCH  22  23
ENDBRANCH   4  22
TORSDOF 6
ENDMDL
