MODEL 1
REMARK VINA RESULT:     -11.3      0.000      0.000
REMARK  Name = 18376177
REMARK  11 active torsions:
REMARK  status: ('A' for Active; 'I' for Inactive)
REMARK    1  A    between atoms: N_1  and  S_2
REMARK    2  A    between atoms: N_1  and  C_11
REMARK    3  A    between atoms: N_1  and  C_23
REMARK    4  A    between atoms: S_2  and  C_6
REMARK    5  A    between atoms: C_11  and  C_12
REMARK    6  A    between atoms: C_15  and  N_18
REMARK    7  A    between atoms: C_23  and  C_24
REMARK    8  A    between atoms: C_27  and  O_30
REMARK    9  A    between atoms: O_30  and  C_31
REMARK   10  A    between atoms: C_31  and  C_33
REMARK   11  A    between atoms: C_33  and  O_34
REMARK                            x       y       z     vdW  Elec       q    Type
REMARK                         _______ _______ _______ _____ _____    ______ ____
ROOT
ATOM      1  N   UNL     1      33.312 -23.142 -15.209  0.00  0.00    -0.147 NA
ENDROOT
BRANCH   1   2
ATOM      2  S   UNL     1      32.110 -23.858 -14.202  0.00  0.00    +0.065 S 
ATOM      3  O   UNL     1      31.936 -23.052 -13.008  0.00  0.00    -0.153 OA
ATOM      4  O   UNL     1      32.374 -25.279 -14.071  0.00  0.00    -0.153 OA
BRANCH   2   6
ATOM      5  N   UNL     1      29.224 -22.286 -16.546  0.00  0.00    -0.241 NA
ATOM      6  C   UNL     1      30.639 -23.685 -15.172  0.00  0.00    +0.141 C 
ATOM      7  C   UNL     1      29.759 -24.749 -15.335  0.00  0.00    +0.023 C 
ATOM      8  C   UNL     1      30.328 -22.485 -15.793  0.00  0.00    +0.119 C 
ATOM      9  C   UNL     1      28.612 -24.584 -16.103  0.00  0.00    +0.022 C 
ATOM     10  C   UNL     1      28.392 -23.343 -16.682  0.00  0.00    +0.099 C 
ENDBRANCH   2   6
ENDBRANCH   1   2
BRANCH   1  11
ATOM     11  C   UNL     1      33.637 -23.819 -16.490  0.00  0.00    +0.122 C 
BRANCH  11  12
ATOM     12  C   UNL     1      34.075 -22.849 -17.552  0.00  0.00    -0.004 C 
ATOM     13  C   UNL     1      33.127 -22.247 -18.379  0.00  0.00    -0.002 C 
ATOM     14  C   UNL     1      35.428 -22.552 -17.711  0.00  0.00    -0.002 C 
ATOM     15  C   UNL     1      34.886 -21.052 -19.525  0.00  0.00    +0.074 C 
ATOM     16  C   UNL     1      33.533 -21.348 -19.366  0.00  0.00    +0.016 C 
ATOM     17  C   UNL     1      35.834 -21.653 -18.697  0.00  0.00    +0.016 C 
BRANCH  15  18
ATOM     18  N   UNL     1      35.288 -20.159 -20.502  0.00  0.00    -0.189 N 
ATOM     19  N   UNL     1      36.495 -19.572 -20.433  0.00  0.00    -0.172 NA
ATOM     20  C   UNL     1      34.557 -19.790 -21.592  0.00  0.00    +0.091 C 
ATOM     21  C   UNL     1      35.339 -18.898 -22.284  0.00  0.00    +0.040 C 
ATOM     22  C   UNL     1      36.519 -18.801 -21.525  0.00  0.00    +0.120 C 
ENDBRANCH  15  18
ENDBRANCH  11  12
ENDBRANCH   1  11
BRANCH   1  23
ATOM     23  C   UNL     1      34.521 -22.581 -14.554  0.00  0.00    +0.123 C 
BRANCH  23  24
ATOM     24  C   UNL     1      35.340 -23.640 -13.870  0.00  0.00    -0.001 C 
ATOM     25  C   UNL     1      36.280 -24.372 -14.594  0.00  0.00    +0.034 C 
ATOM     26  C   UNL     1      35.158 -23.890 -12.509  0.00  0.00    -0.003 C 
ATOM     27  C   UNL     1      37.039 -25.354 -13.958  0.00  0.00    +0.139 C 
ATOM     28  C   UNL     1      35.917 -24.873 -11.874  0.00  0.00    +0.003 C 
ATOM     29  C   UNL     1      36.859 -25.605 -12.598  0.00  0.00    +0.037 C 
BRANCH  27  30
ATOM     30  O   UNL     1      37.955 -26.071 -14.665  0.00  0.00    -0.464 OA
BRANCH  30  31
ATOM     31  C   UNL     1      39.174 -26.403 -14.002  0.00  0.00    +0.314 C 
BRANCH  31  33
ATOM     32  O   UNL     1      40.950 -24.745 -14.053  0.00  0.00    -0.246 OA
ATOM     33  C   UNL     1      40.311 -25.628 -14.607  0.00  0.00    +0.359 C 
BRANCH  33  34
ATOM     34  O   UNL     1      40.539 -26.047 -15.877  0.00  0.00    -0.478 OA
ATOM     35  H   UNL     1      40.589 -25.423 -16.575  0.00  0.00    +0.295 HD
ENDBRANCH  33  34
ENDBRANCH  31  33
ENDBRANCH  30  31
ENDBRANCH  27  30
ENDBRANCH  23  24
ENDBRANCH   1  23
TORSDOF 11
ENDMDL
MODEL 2
REMARK VINA RESULT:     -10.9      2.546      6.941
REMARK  Name = 18376177
REMARK  11 active torsions:
REMARK  status: ('A' for Active; 'I' for Inactive)
REMARK    1  A    between atoms: N_1  and  S_2
REMARK    2  A    between atoms: N_1  and  C_11
REMARK    3  A    between atoms: N_1  and  C_23
REMARK    4  A    between atoms: S_2  and  C_6
REMARK    5  A    between atoms: C_11  and  C_12
REMARK    6  A    between atoms: C_15  and  N_18
REMARK    7  A    between atoms: C_23  and  C_24
REMARK    8  A    between atoms: C_27  and  O_30
REMARK    9  A    between atoms: O_30  and  C_31
REMARK   10  A    between atoms: C_31  and  C_33
REMARK   11  A    between atoms: C_33  and  O_34
REMARK                            x       y       z     vdW  Elec       q    Type
REMARK                         _______ _______ _______ _____ _____    ______ ____
ROOT
ATOM      1  N   UNL     1      34.272 -23.542 -15.298  0.00  0.00    -0.147 NA
ENDROOT
BRANCH   1   2
ATOM      2  S   UNL     1      35.915 -23.306 -14.832  0.00  0.00    +0.065 S 
ATOM      3  O   UNL     1      36.254 -21.900 -14.949  0.00  0.00    -0.153 OA
ATOM      4  O   UNL     1      36.749 -24.299 -15.485  0.00  0.00    -0.153 OA
BRANCH   2   6
ATOM      5  N   UNL     1      34.825 -24.858 -11.269  0.00  0.00    -0.241 NA
ATOM      6  C   UNL     1      35.887 -23.699 -13.105  0.00  0.00    +0.141 C 
ATOM      7  C   UNL     1      36.850 -23.193 -12.240  0.00  0.00    +0.023 C 
ATOM      8  C   UNL     1      34.904 -24.519 -12.575  0.00  0.00    +0.119 C 
ATOM      9  C   UNL     1      36.803 -23.518 -10.889  0.00  0.00    +0.022 C 
ATOM     10  C   UNL     1      35.779 -24.348 -10.457  0.00  0.00    +0.099 C 
ENDBRANCH   2   6
ENDBRANCH   1   2
BRANCH   1  11
ATOM     11  C   UNL     1      34.002 -23.999 -16.685  0.00  0.00    +0.122 C 
BRANCH  11  12
ATOM     12  C   UNL     1      34.332 -22.947 -17.706  0.00  0.00    -0.004 C 
ATOM     13  C   UNL     1      33.312 -22.350 -18.446  0.00  0.00    -0.002 C 
ATOM     14  C   UNL     1      35.658 -22.569 -17.915  0.00  0.00    -0.002 C 
ATOM     15  C   UNL     1      34.944 -20.996 -19.605  0.00  0.00    +0.074 C 
ATOM     16  C   UNL     1      33.618 -21.374 -19.395  0.00  0.00    +0.016 C 
ATOM     17  C   UNL     1      35.964 -21.593 -18.864  0.00  0.00    +0.016 C 
BRANCH  15  18
ATOM     18  N   UNL     1      35.246 -20.028 -20.544  0.00  0.00    -0.189 N 
ATOM     19  N   UNL     1      36.393 -19.332 -20.459  0.00  0.00    -0.172 NA
ATOM     20  C   UNL     1      34.470 -19.683 -21.610  0.00  0.00    +0.091 C 
ATOM     21  C   UNL     1      35.155 -18.691 -22.268  0.00  0.00    +0.040 C 
ATOM     22  C   UNL     1      36.330 -18.516 -21.516  0.00  0.00    +0.120 C 
ENDBRANCH  15  18
ENDBRANCH  11  12
ENDBRANCH   1  11
BRANCH   1  23
ATOM     23  C   UNL     1      33.272 -22.544 -14.839  0.00  0.00    +0.123 C 
BRANCH  23  24
ATOM     24  C   UNL     1      31.862 -23.049 -14.972  0.00  0.00    -0.001 C 
ATOM     25  C   UNL     1      30.972 -22.412 -15.836  0.00  0.00    +0.034 C 
ATOM     26  C   UNL     1      31.444 -24.155 -14.231  0.00  0.00    -0.003 C 
ATOM     27  C   UNL     1      29.664 -22.880 -15.960  0.00  0.00    +0.139 C 
ATOM     28  C   UNL     1      30.137 -24.623 -14.355  0.00  0.00    +0.003 C 
ATOM     29  C   UNL     1      29.246 -23.986 -15.220  0.00  0.00    +0.037 C 
BRANCH  27  30
ATOM     30  O   UNL     1      28.794 -22.257 -16.801  0.00  0.00    -0.464 OA
BRANCH  30  31
ATOM     31  C   UNL     1      27.486 -22.815 -16.914  0.00  0.00    +0.314 C 
BRANCH  31  33
ATOM     32  O   UNL     1      26.405 -20.714 -17.478  0.00  0.00    -0.246 OA
ATOM     33  C   UNL     1      26.456 -21.727 -16.796  0.00  0.00    +0.359 C 
BRANCH  33  34
ATOM     34  O   UNL     1      25.571 -22.024 -15.812  0.00  0.00    -0.478 OA
ATOM     35  H   UNL     1      25.876 -22.189 -14.941  0.00  0.00    +0.295 HD
ENDBRANCH  33  34
ENDBRANCH  31  33
ENDBRANCH  30  31
ENDBRANCH  27  30
ENDBRANCH  23  24
ENDBRANCH   1  23
TORSDOF 11
ENDMDL
MODEL 3
REMARK VINA RESULT:     -10.5      2.638      7.149
REMARK  Name = 18376177
REMARK  11 active torsions:
REMARK  status: ('A' for Active; 'I' for Inactive)
REMARK    1  A    between atoms: N_1  and  S_2
REMARK    2  A    between atoms: N_1  and  C_11
REMARK    3  A    between atoms: N_1  and  C_23
REMARK    4  A    between atoms: S_2  and  C_6
REMARK    5  A    between atoms: C_11  and  C_12
REMARK    6  A    between atoms: C_15  and  N_18
REMARK    7  A    between atoms: C_23  and  C_24
REMARK    8  A    between atoms: C_27  and  O_30
REMARK    9  A    between atoms: O_30  and  C_31
REMARK   10  A    between atoms: C_31  and  C_33
REMARK   11  A    between atoms: C_33  and  O_34
REMARK                            x       y       z     vdW  Elec       q    Type
REMARK                         _______ _______ _______ _____ _____    ______ ____
ROOT
ATOM      1  N   UNL     1      34.299 -24.280 -13.920  0.00  0.00    -0.147 NA
ENDROOT
BRANCH   1   2
ATOM      2  S   UNL     1      35.423 -24.212 -12.615  0.00  0.00    +0.065 S 
ATOM      3  O   UNL     1      34.935 -25.022 -11.514  0.00  0.00    -0.153 OA
ATOM      4  O   UNL     1      35.800 -22.831 -12.373  0.00  0.00    -0.153 OA
BRANCH   2   6
ATOM      5  N   UNL     1      37.952 -27.105 -13.851  0.00  0.00    -0.241 NA
ATOM      6  C   UNL     1      36.843 -25.033 -13.283  0.00  0.00    +0.141 C 
ATOM      7  C   UNL     1      37.933 -24.311 -13.754  0.00  0.00    +0.023 C 
ATOM      8  C   UNL     1      36.901 -26.416 -13.354  0.00  0.00    +0.119 C 
ATOM      9  C   UNL     1      39.033 -24.983 -14.274  0.00  0.00    +0.022 C 
ATOM     10  C   UNL     1      38.994 -26.369 -14.300  0.00  0.00    +0.099 C 
ENDBRANCH   2   6
ENDBRANCH   1   2
BRANCH   1  11
ATOM     11  C   UNL     1      34.755 -24.883 -15.198  0.00  0.00    +0.122 C 
BRANCH  11  12
ATOM     12  C   UNL     1      34.801 -23.881 -16.317  0.00  0.00    -0.004 C 
ATOM     13  C   UNL     1      35.837 -22.950 -16.377  0.00  0.00    -0.002 C 
ATOM     14  C   UNL     1      33.806 -23.881 -17.295  0.00  0.00    -0.002 C 
ATOM     15  C   UNL     1      34.883 -22.018 -18.392  0.00  0.00    +0.074 C 
ATOM     16  C   UNL     1      35.879 -22.018 -17.415  0.00  0.00    +0.016 C 
ATOM     17  C   UNL     1      33.847 -22.949 -18.332  0.00  0.00    +0.016 C 
BRANCH  15  18
ATOM     18  N   UNL     1      34.926 -21.095 -19.421  0.00  0.00    -0.189 N 
ATOM     19  N   UNL     1      36.102 -20.593 -19.836  0.00  0.00    -0.172 NA
ATOM     20  C   UNL     1      33.848 -20.613 -20.103  0.00  0.00    +0.091 C 
ATOM     21  C   UNL     1      34.353 -19.733 -21.029  0.00  0.00    +0.040 C 
ATOM     22  C   UNL     1      35.744 -19.760 -20.819  0.00  0.00    +0.120 C 
ENDBRANCH  15  18
ENDBRANCH  11  12
ENDBRANCH   1  11
BRANCH   1  23
ATOM     23  C   UNL     1      33.425 -23.100 -14.144  0.00  0.00    +0.123 C 
BRANCH  23  24
ATOM     24  C   UNL     1      31.999 -23.492 -14.413  0.00  0.00    -0.001 C 
ATOM     25  C   UNL     1      31.251 -22.795 -15.361  0.00  0.00    +0.034 C 
ATOM     26  C   UNL     1      31.423 -24.553 -13.713  0.00  0.00    -0.003 C 
ATOM     27  C   UNL     1      29.928 -23.158 -15.610  0.00  0.00    +0.139 C 
ATOM     28  C   UNL     1      30.100 -24.916 -13.962  0.00  0.00    +0.003 C 
ATOM     29  C   UNL     1      29.352 -24.219 -14.911  0.00  0.00    +0.037 C 
BRANCH  27  30
ATOM     30  O   UNL     1      29.197 -22.477 -16.534  0.00  0.00    -0.464 OA
BRANCH  30  31
ATOM     31  C   UNL     1      27.925 -23.020 -16.887  0.00  0.00    +0.314 C 
BRANCH  31  33
ATOM     32  O   UNL     1      26.656 -21.004 -17.362  0.00  0.00    -0.246 OA
ATOM     33  C   UNL     1      26.853 -21.990 -16.667  0.00  0.00    +0.359 C 
BRANCH  33  34
ATOM     34  O   UNL     1      26.116 -22.306 -15.573  0.00  0.00    -0.478 OA
ATOM     35  H   UNL     1      25.290 -22.737 -15.672  0.00  0.00    +0.295 HD
ENDBRANCH  33  34
ENDBRANCH  31  33
ENDBRANCH  30  31
ENDBRANCH  27  30
ENDBRANCH  23  24
ENDBRANCH   1  23
TORSDOF 11
ENDMDL
MODEL 4
REMARK VINA RESULT:     -10.5      2.596      6.709
REMARK  Name = 18376177
REMARK  11 active torsions:
REMARK  status: ('A' for Active; 'I' for Inactive)
REMARK    1  A    between atoms: N_1  and  S_2
REMARK    2  A    between atoms: N_1  and  C_11
REMARK    3  A    between atoms: N_1  and  C_23
REMARK    4  A    between atoms: S_2  and  C_6
REMARK    5  A    between atoms: C_11  and  C_12
REMARK    6  A    between atoms: C_15  and  N_18
REMARK    7  A    between atoms: C_23  and  C_24
REMARK    8  A    between atoms: C_27  and  O_30
REMARK    9  A    between atoms: O_30  and  C_31
REMARK   10  A    between atoms: C_31  and  C_33
REMARK   11  A    between atoms: C_33  and  O_34
REMARK                            x       y       z     vdW  Elec       q    Type
REMARK                         _______ _______ _______ _____ _____    ______ ____
ROOT
ATOM      1  N   UNL     1      34.349 -23.307 -16.403  0.00  0.00    -0.147 NA
ENDROOT
BRANCH   1   2
ATOM      2  S   UNL     1      35.873 -22.871 -15.726  0.00  0.00    +0.065 S 
ATOM      3  O   UNL     1      35.662 -22.025 -14.566  0.00  0.00    -0.153 OA
ATOM      4  O   UNL     1      36.762 -22.425 -16.783  0.00  0.00    -0.153 OA
BRANCH   2   6
ATOM      5  N   UNL     1      36.139 -26.789 -14.792  0.00  0.00    -0.241 NA
ATOM      6  C   UNL     1      36.493 -24.423 -15.138  0.00  0.00    +0.141 C 
ATOM      7  C   UNL     1      37.762 -24.523 -14.581  0.00  0.00    +0.023 C 
ATOM      8  C   UNL     1      35.728 -25.576 -15.221  0.00  0.00    +0.119 C 
ATOM      9  C   UNL     1      38.222 -25.754 -14.129  0.00  0.00    +0.022 C 
ATOM     10  C   UNL     1      37.379 -26.848 -14.256  0.00  0.00    +0.099 C 
ENDBRANCH   2   6
ENDBRANCH   1   2
BRANCH   1  11
ATOM     11  C   UNL     1      34.309 -23.681 -17.840  0.00  0.00    +0.122 C 
BRANCH  11  12
ATOM     12  C   UNL     1      34.465 -22.489 -18.743  0.00  0.00    -0.004 C 
ATOM     13  C   UNL     1      35.735 -22.101 -19.169  0.00  0.00    -0.002 C 
ATOM     14  C   UNL     1      33.342 -21.772 -19.153  0.00  0.00    -0.002 C 
ATOM     15  C   UNL     1      34.757 -20.276 -20.416  0.00  0.00    +0.074 C 
ATOM     16  C   UNL     1      35.881 -20.994 -20.006  0.00  0.00    +0.016 C 
ATOM     17  C   UNL     1      33.488 -20.666 -19.990  0.00  0.00    +0.016 C 
BRANCH  15  18
ATOM     18  N   UNL     1      34.902 -19.181 -21.247  0.00  0.00    -0.189 N 
ATOM     19  N   UNL     1      35.069 -17.951 -20.729  0.00  0.00    -0.172 NA
ATOM     20  C   UNL     1      34.898 -19.209 -22.610  0.00  0.00    +0.091 C 
ATOM     21  C   UNL     1      35.074 -17.908 -23.013  0.00  0.00    +0.040 C 
ATOM     22  C   UNL     1      35.173 -17.178 -21.814  0.00  0.00    +0.120 C 
ENDBRANCH  15  18
ENDBRANCH  11  12
ENDBRANCH   1  11
BRANCH   1  23
ATOM     23  C   UNL     1      33.159 -22.512 -16.003  0.00  0.00    +0.123 C 
BRANCH  23  24
ATOM     24  C   UNL     1      32.149 -23.335 -15.256  0.00  0.00    -0.001 C 
ATOM     25  C   UNL     1      30.798 -23.258 -15.595  0.00  0.00    +0.034 C 
ATOM     26  C   UNL     1      32.562 -24.178 -14.223  0.00  0.00    -0.003 C 
ATOM     27  C   UNL     1      29.860 -24.023 -14.901  0.00  0.00    +0.139 C 
ATOM     28  C   UNL     1      31.624 -24.942 -13.529  0.00  0.00    +0.003 C 
ATOM     29  C   UNL     1      30.273 -24.865 -13.869  0.00  0.00    +0.037 C 
BRANCH  27  30
ATOM     30  O   UNL     1      28.542 -23.945 -15.229  0.00  0.00    -0.464 OA
BRANCH  30  31
ATOM     31  C   UNL     1      27.996 -22.642 -15.428  0.00  0.00    +0.314 C 
BRANCH  31  33
ATOM     32  O   UNL     1      27.386 -23.432 -17.642  0.00  0.00    -0.246 OA
ATOM     33  C   UNL     1      27.401 -22.543 -16.804  0.00  0.00    +0.359 C 
BRANCH  33  34
ATOM     34  O   UNL     1      26.871 -21.309 -16.998  0.00  0.00    -0.478 OA
ATOM     35  H   UNL     1      26.630 -20.782 -16.262  0.00  0.00    +0.295 HD
ENDBRANCH  33  34
ENDBRANCH  31  33
ENDBRANCH  30  31
ENDBRANCH  27  30
ENDBRANCH  23  24
ENDBRANCH   1  23
TORSDOF 11
ENDMDL
MODEL 5
REMARK VINA RESULT:      -9.8      3.353      7.562
REMARK  Name = 18376177
REMARK  11 active torsions:
REMARK  status: ('A' for Active; 'I' for Inactive)
REMARK    1  A    between atoms: N_1  and  S_2
REMARK    2  A    between atoms: N_1  and  C_11
REMARK    3  A    between atoms: N_1  and  C_23
REMARK    4  A    between atoms: S_2  and  C_6
REMARK    5  A    between atoms: C_11  and  C_12
REMARK    6  A    between atoms: C_15  and  N_18
REMARK    7  A    between atoms: C_23  and  C_24
REMARK    8  A    between atoms: C_27  and  O_30
REMARK    9  A    between atoms: O_30  and  C_31
REMARK   10  A    between atoms: C_31  and  C_33
REMARK   11  A    between atoms: C_33  and  O_34
REMARK                            x       y       z     vdW  Elec       q    Type
REMARK                         _______ _______ _______ _____ _____    ______ ____
ROOT
ATOM      1  N   UNL     1      34.867 -24.433 -13.004  0.00  0.00    -0.147 NA
ENDROOT
BRANCH   1   2
ATOM      2  S   UNL     1      36.249 -24.350 -11.977  0.00  0.00    +0.065 S 
ATOM      3  O   UNL     1      35.997 -25.108 -10.765  0.00  0.00    -0.153 OA
ATOM      4  O   UNL     1      36.694 -22.972 -11.877  0.00  0.00    -0.153 OA
BRANCH   2   6
ATOM      5  N   UNL     1      38.114 -27.232 -14.099  0.00  0.00    -0.241 NA
ATOM      6  C   UNL     1      37.474 -25.231 -12.904  0.00  0.00    +0.141 C 
ATOM      7  C   UNL     1      38.715 -24.665 -13.170  0.00  0.00    +0.023 C 
ATOM      8  C   UNL     1      37.225 -26.506 -13.386  0.00  0.00    +0.119 C 
ATOM      9  C   UNL     1      39.657 -25.380 -13.900  0.00  0.00    +0.022 C 
ATOM     10  C   UNL     1      39.310 -26.649 -14.339  0.00  0.00    +0.099 C 
ENDBRANCH   2   6
ENDBRANCH   1   2
BRANCH   1  11
ATOM     11  C   UNL     1      33.572 -24.830 -12.395  0.00  0.00    +0.122 C 
BRANCH  11  12
ATOM     12  C   UNL     1      32.397 -24.409 -13.232  0.00  0.00    -0.004 C 
ATOM     13  C   UNL     1      32.193 -23.060 -13.519  0.00  0.00    -0.002 C 
ATOM     14  C   UNL     1      31.509 -25.368 -13.721  0.00  0.00    -0.002 C 
ATOM     15  C   UNL     1      30.213 -23.627 -14.782  0.00  0.00    +0.074 C 
ATOM     16  C   UNL     1      31.100 -22.669 -14.294  0.00  0.00    +0.016 C 
ATOM     17  C   UNL     1      30.418 -24.977 -14.496  0.00  0.00    +0.016 C 
BRANCH  15  18
ATOM     18  N   UNL     1      29.132 -23.240 -15.552  0.00  0.00    -0.189 N 
ATOM     19  N   UNL     1      28.390 -22.176 -15.197  0.00  0.00    -0.172 NA
ATOM     20  C   UNL     1      28.711 -23.847 -16.698  0.00  0.00    +0.091 C 
ATOM     21  C   UNL     1      27.618 -23.133 -17.122  0.00  0.00    +0.040 C 
ATOM     22  C   UNL     1      27.466 -22.116 -16.161  0.00  0.00    +0.120 C 
ENDBRANCH  15  18
ENDBRANCH  11  12
ENDBRANCH   1  11
BRANCH   1  23
ATOM     23  C   UNL     1      35.045 -25.016 -14.359  0.00  0.00    +0.123 C 
BRANCH  23  24
ATOM     24  C   UNL     1      35.287 -23.964 -15.404  0.00  0.00    -0.001 C 
ATOM     25  C   UNL     1      34.278 -23.634 -16.309  0.00  0.00    +0.034 C 
ATOM     26  C   UNL     1      36.522 -23.318 -15.470  0.00  0.00    -0.003 C 
ATOM     27  C   UNL     1      34.503 -22.657 -17.278  0.00  0.00    +0.139 C 
ATOM     28  C   UNL     1      36.747 -22.341 -16.440  0.00  0.00    +0.003 C 
ATOM     29  C   UNL     1      35.737 -22.010 -17.344  0.00  0.00    +0.037 C 
BRANCH  27  30
ATOM     30  O   UNL     1      33.520 -22.336 -18.162  0.00  0.00    -0.464 OA
BRANCH  30  31
ATOM     31  C   UNL     1      33.910 -22.118 -19.518  0.00  0.00    +0.314 C 
BRANCH  31  33
ATOM     32  O   UNL     1      32.392 -20.280 -19.985  0.00  0.00    -0.246 OA
ATOM     33  C   UNL     1      33.528 -20.727 -19.940  0.00  0.00    +0.359 C 
BRANCH  33  34
ATOM     34  O   UNL     1      34.636 -20.018 -20.271  0.00  0.00    -0.478 OA
ATOM     35  H   UNL     1      34.560 -19.118 -20.520  0.00  0.00    +0.295 HD
ENDBRANCH  33  34
ENDBRANCH  31  33
ENDBRANCH  30  31
ENDBRANCH  27  30
ENDBRANCH  23  24
ENDBRANCH   1  23
TORSDOF 11
ENDMDL
MODEL 6
REMARK VINA RESULT:      -9.4      2.512      4.985
REMARK  Name = 18376177
REMARK  11 active torsions:
REMARK  status: ('A' for Active; 'I' for Inactive)
REMARK    1  A    between atoms: N_1  and  S_2
REMARK    2  A    between atoms: N_1  and  C_11
REMARK    3  A    between atoms: N_1  and  C_23
REMARK    4  A    between atoms: S_2  and  C_6
REMARK    5  A    between atoms: C_11  and  C_12
REMARK    6  A    between atoms: C_15  and  N_18
REMARK    7  A    between atoms: C_23  and  C_24
REMARK    8  A    between atoms: C_27  and  O_30
REMARK    9  A    between atoms: O_30  and  C_31
REMARK   10  A    between atoms: C_31  and  C_33
REMARK   11  A    between atoms: C_33  and  O_34
REMARK                            x       y       z     vdW  Elec       q    Type
REMARK                         _______ _______ _______ _____ _____    ______ ____
ROOT
ATOM      1  N   UNL     1      34.691 -23.133 -16.902  0.00  0.00    -0.147 NA
ENDROOT
BRANCH   1   2
ATOM      2  S   UNL     1      36.179 -22.523 -16.282  0.00  0.00    +0.065 S 
ATOM      3  O   UNL     1      35.910 -21.425 -15.372  0.00  0.00    -0.153 OA
ATOM      4  O   UNL     1      37.116 -22.332 -17.374  0.00  0.00    -0.153 OA
BRANCH   2   6
ATOM      5  N   UNL     1      38.395 -24.726 -13.727  0.00  0.00    -0.241 NA
ATOM      6  C   UNL     1      36.777 -23.877 -15.309  0.00  0.00    +0.141 C 
ATOM      7  C   UNL     1      36.146 -25.115 -15.341  0.00  0.00    +0.023 C 
ATOM      8  C   UNL     1      37.888 -23.736 -14.493  0.00  0.00    +0.119 C 
ATOM      9  C   UNL     1      36.638 -26.160 -14.566  0.00  0.00    +0.022 C 
ATOM     10  C   UNL     1      37.755 -25.916 -13.783  0.00  0.00    +0.099 C 
ENDBRANCH   2   6
ENDBRANCH   1   2
BRANCH   1  11
ATOM     11  C   UNL     1      34.604 -23.401 -18.360  0.00  0.00    +0.122 C 
BRANCH  11  12
ATOM     12  C   UNL     1      34.697 -22.144 -19.177  0.00  0.00    -0.004 C 
ATOM     13  C   UNL     1      33.541 -21.428 -19.487  0.00  0.00    -0.002 C 
ATOM     14  C   UNL     1      35.938 -21.693 -19.627  0.00  0.00    -0.002 C 
ATOM     15  C   UNL     1      34.868 -19.811 -20.698  0.00  0.00    +0.074 C 
ATOM     16  C   UNL     1      33.627 -20.261 -20.248  0.00  0.00    +0.016 C 
ATOM     17  C   UNL     1      36.024 -20.527 -20.386  0.00  0.00    +0.016 C 
BRANCH  15  18
ATOM     18  N   UNL     1      34.952 -18.653 -21.449  0.00  0.00    -0.189 N 
ATOM     19  N   UNL     1      34.970 -17.451 -20.848  0.00  0.00    -0.172 NA
ATOM     20  C   UNL     1      35.027 -18.591 -22.809  0.00  0.00    +0.091 C 
ATOM     21  C   UNL     1      35.098 -17.255 -23.120  0.00  0.00    +0.040 C 
ATOM     22  C   UNL     1      35.059 -16.601 -21.876  0.00  0.00    +0.120 C 
ENDBRANCH  15  18
ENDBRANCH  11  12
ENDBRANCH   1  11
BRANCH   1  23
ATOM     23  C   UNL     1      33.430 -22.557 -16.368  0.00  0.00    +0.123 C 
BRANCH  23  24
ATOM     24  C   UNL     1      32.851 -23.388 -15.257  0.00  0.00    -0.001 C 
ATOM     25  C   UNL     1      33.630 -23.707 -14.145  0.00  0.00    +0.034 C 
ATOM     26  C   UNL     1      31.533 -23.840 -15.338  0.00  0.00    -0.003 C 
ATOM     27  C   UNL     1      33.092 -24.477 -13.115  0.00  0.00    +0.139 C 
ATOM     28  C   UNL     1      30.996 -24.610 -14.308  0.00  0.00    +0.003 C 
ATOM     29  C   UNL     1      31.775 -24.929 -13.195  0.00  0.00    +0.037 C 
BRANCH  27  30
ATOM     30  O   UNL     1      33.853 -24.791 -12.031  0.00  0.00    -0.464 OA
BRANCH  30  31
ATOM     31  C   UNL     1      35.097 -24.106 -11.890  0.00  0.00    +0.314 C 
BRANCH  31  33
ATOM     32  O   UNL     1      35.327 -25.220  -9.743  0.00  0.00    -0.246 OA
ATOM     33  C   UNL     1      35.830 -24.624 -10.684  0.00  0.00    +0.359 C 
BRANCH  33  34
ATOM     34  O   UNL     1      37.152 -24.339 -10.781  0.00  0.00    -0.478 OA
ATOM     35  H   UNL     1      37.484 -23.531 -10.440  0.00  0.00    +0.295 HD
ENDBRANCH  33  34
ENDBRANCH  31  33
ENDBRANCH  30  31
ENDBRANCH  27  30
ENDBRANCH  23  24
ENDBRANCH   1  23
TORSDOF 11
ENDMDL
MODEL 7
REMARK VINA RESULT:      -9.0      3.268      7.610
REMARK  Name = 18376177
REMARK  11 active torsions:
REMARK  status: ('A' for Active; 'I' for Inactive)
REMARK    1  A    between atoms: N_1  and  S_2
REMARK    2  A    between atoms: N_1  and  C_11
REMARK    3  A    between atoms: N_1  and  C_23
REMARK    4  A    between atoms: S_2  and  C_6
REMARK    5  A    between atoms: C_11  and  C_12
REMARK    6  A    between atoms: C_15  and  N_18
REMARK    7  A    between atoms: C_23  and  C_24
REMARK    8  A    between atoms: C_27  and  O_30
REMARK    9  A    between atoms: O_30  and  C_31
REMARK   10  A    between atoms: C_31  and  C_33
REMARK   11  A    between atoms: C_33  and  O_34
REMARK                            x       y       z     vdW  Elec       q    Type
REMARK                         _______ _______ _______ _____ _____    ______ ____
ROOT
ATOM      1  N   UNL     1      34.668 -23.717 -14.689  0.00  0.00    -0.147 NA
ENDROOT
BRANCH   1   2
ATOM      2  S   UNL     1      36.050 -23.234 -13.778  0.00  0.00    +0.065 S 
ATOM      3  O   UNL     1      35.694 -23.136 -12.374  0.00  0.00    -0.153 OA
ATOM      4  O   UNL     1      36.690 -22.107 -14.432  0.00  0.00    -0.153 OA
BRANCH   2   6
ATOM      5  N   UNL     1      37.556 -26.973 -13.557  0.00  0.00    -0.241 NA
ATOM      6  C   UNL     1      37.133 -24.625 -13.950  0.00  0.00    +0.141 C 
ATOM      7  C   UNL     1      38.364 -24.501 -14.583  0.00  0.00    +0.023 C 
ATOM      8  C   UNL     1      36.779 -25.872 -13.459  0.00  0.00    +0.119 C 
ATOM      9  C   UNL     1      39.192 -25.611 -14.704  0.00  0.00    +0.022 C 
ATOM     10  C   UNL     1      38.746 -26.814 -14.179  0.00  0.00    +0.099 C 
ENDBRANCH   2   6
ENDBRANCH   1   2
BRANCH   1  11
ATOM     11  C   UNL     1      33.587 -24.443 -13.977  0.00  0.00    +0.122 C 
BRANCH  11  12
ATOM     12  C   UNL     1      32.219 -24.008 -14.422  0.00  0.00    -0.004 C 
ATOM     13  C   UNL     1      31.340 -24.936 -14.980  0.00  0.00    -0.002 C 
ATOM     14  C   UNL     1      31.829 -22.677 -14.279  0.00  0.00    -0.002 C 
ATOM     15  C   UNL     1      29.681 -23.201 -15.253  0.00  0.00    +0.074 C 
ATOM     16  C   UNL     1      30.071 -24.532 -15.396  0.00  0.00    +0.016 C 
ATOM     17  C   UNL     1      30.560 -22.273 -14.695  0.00  0.00    +0.016 C 
BRANCH  15  18
ATOM     18  N   UNL     1      28.423 -22.801 -15.664  0.00  0.00    -0.189 N 
ATOM     19  N   UNL     1      27.520 -22.368 -14.767  0.00  0.00    -0.172 NA
ATOM     20  C   UNL     1      27.969 -22.793 -16.950  0.00  0.00    +0.091 C 
ATOM     21  C   UNL     1      26.680 -22.324 -16.891  0.00  0.00    +0.040 C 
ATOM     22  C   UNL     1      26.457 -22.079 -15.524  0.00  0.00    +0.120 C 
ENDBRANCH  15  18
ENDBRANCH  11  12
ENDBRANCH   1  11
BRANCH   1  23
ATOM     23  C   UNL     1      34.893 -24.256 -16.055  0.00  0.00    +0.123 C 
BRANCH  23  24
ATOM     24  C   UNL     1      34.565 -23.253 -17.124  0.00  0.00    -0.001 C 
ATOM     25  C   UNL     1      35.585 -22.520 -17.731  0.00  0.00    +0.034 C 
ATOM     26  C   UNL     1      33.239 -23.053 -17.510  0.00  0.00    -0.003 C 
ATOM     27  C   UNL     1      35.280 -21.589 -18.723  0.00  0.00    +0.139 C 
ATOM     28  C   UNL     1      32.934 -22.122 -18.502  0.00  0.00    +0.003 C 
ATOM     29  C   UNL     1      33.955 -21.390 -19.109  0.00  0.00    +0.037 C 
BRANCH  27  30
ATOM     30  O   UNL     1      36.275 -20.872 -19.313  0.00  0.00    -0.464 OA
BRANCH  30  31
ATOM     31  C   UNL     1      35.970 -20.235 -20.553  0.00  0.00    +0.314 C 
BRANCH  31  33
ATOM     32  O   UNL     1      37.044 -18.473 -21.836  0.00  0.00    -0.246 OA
ATOM     33  C   UNL     1      36.937 -19.111 -20.799  0.00  0.00    +0.359 C 
BRANCH  33  34
ATOM     34  O   UNL     1      37.692 -18.893 -19.693  0.00  0.00    -0.478 OA
ATOM     35  H   UNL     1      37.710 -18.045 -19.297  0.00  0.00    +0.295 HD
ENDBRANCH  33  34
ENDBRANCH  31  33
ENDBRANCH  30  31
ENDBRANCH  27  30
ENDBRANCH  23  24
ENDBRANCH   1  23
TORSDOF 11
ENDMDL
MODEL 8
REMARK VINA RESULT:      -9.0      3.213      7.435
REMARK  Name = 18376177
REMARK  11 active torsions:
REMARK  status: ('A' for Active; 'I' for Inactive)
REMARK    1  A    between atoms: N_1  and  S_2
REMARK    2  A    between atoms: N_1  and  C_11
REMARK    3  A    between atoms: N_1  and  C_23
REMARK    4  A    between atoms: S_2  and  C_6
REMARK    5  A    between atoms: C_11  and  C_12
REMARK    6  A    between atoms: C_15  and  N_18
REMARK    7  A    between atoms: C_23  and  C_24
REMARK    8  A    between atoms: C_27  and  O_30
REMARK    9  A    between atoms: O_30  and  C_31
REMARK   10  A    between atoms: C_31  and  C_33
REMARK   11  A    between atoms: C_33  and  O_34
REMARK                            x       y       z     vdW  Elec       q    Type
REMARK                         _______ _______ _______ _____ _____    ______ ____
ROOT
ATOM      1  N   UNL     1      34.954 -23.664 -15.109  0.00  0.00    -0.147 NA
ENDROOT
BRANCH   1   2
ATOM      2  S   UNL     1      36.614 -23.686 -14.642  0.00  0.00    +0.065 S 
ATOM      3  O   UNL     1      37.222 -22.407 -14.958  0.00  0.00    -0.153 OA
ATOM      4  O   UNL     1      37.234 -24.909 -15.119  0.00  0.00    -0.153 OA
BRANCH   2   6
ATOM      5  N   UNL     1      37.162 -22.935 -10.714  0.00  0.00    -0.241 NA
ATOM      6  C   UNL     1      36.517 -23.801 -12.877  0.00  0.00    +0.141 C 
ATOM      7  C   UNL     1      35.761 -24.793 -12.264  0.00  0.00    +0.023 C 
ATOM      8  C   UNL     1      37.193 -22.904 -12.065  0.00  0.00    +0.119 C 
ATOM      9  C   UNL     1      35.704 -24.858 -10.877  0.00  0.00    +0.022 C 
ATOM     10  C   UNL     1      36.417 -23.914 -10.153  0.00  0.00    +0.099 C 
ENDBRANCH   2   6
ENDBRANCH   1   2
BRANCH   1  11
ATOM     11  C   UNL     1      33.940 -24.026 -14.086  0.00  0.00    +0.122 C 
BRANCH  11  12
ATOM     12  C   UNL     1      32.544 -23.685 -14.523  0.00  0.00    -0.004 C 
ATOM     13  C   UNL     1      31.717 -24.676 -15.051  0.00  0.00    -0.002 C 
ATOM     14  C   UNL     1      32.074 -22.377 -14.400  0.00  0.00    -0.002 C 
ATOM     15  C   UNL     1      29.951 -23.051 -15.336  0.00  0.00    +0.074 C 
ATOM     16  C   UNL     1      30.420 -24.359 -15.458  0.00  0.00    +0.016 C 
ATOM     17  C   UNL     1      30.778 -22.060 -14.807  0.00  0.00    +0.016 C 
BRANCH  15  18
ATOM     18  N   UNL     1      28.666 -22.738 -15.738  0.00  0.00    -0.189 N 
ATOM     19  N   UNL     1      28.348 -22.711 -17.044  0.00  0.00    -0.172 NA
ATOM     20  C   UNL     1      27.623 -22.439 -14.911  0.00  0.00    +0.091 C 
ATOM     21  C   UNL     1      26.549 -22.200 -15.732  0.00  0.00    +0.040 C 
ATOM     22  C   UNL     1      27.053 -22.381 -17.033  0.00  0.00    +0.120 C 
ENDBRANCH  15  18
ENDBRANCH  11  12
ENDBRANCH   1  11
BRANCH   1  23
ATOM     23  C   UNL     1      34.604 -24.199 -16.450  0.00  0.00    +0.123 C 
BRANCH  23  24
ATOM     24  C   UNL     1      34.402 -23.107 -17.463  0.00  0.00    -0.001 C 
ATOM     25  C   UNL     1      35.504 -22.470 -18.033  0.00  0.00    +0.034 C 
ATOM     26  C   UNL     1      33.110 -22.730 -17.833  0.00  0.00    -0.003 C 
ATOM     27  C   UNL     1      35.315 -21.458 -18.973  0.00  0.00    +0.139 C 
ATOM     28  C   UNL     1      32.922 -21.717 -18.772  0.00  0.00    +0.003 C 
ATOM     29  C   UNL     1      34.025 -21.081 -19.343  0.00  0.00    +0.037 C 
BRANCH  27  30
ATOM     30  O   UNL     1      36.391 -20.835 -19.528  0.00  0.00    -0.464 OA
BRANCH  30  31
ATOM     31  C   UNL     1      36.130 -19.875 -20.552  0.00  0.00    +0.314 C 
BRANCH  31  33
ATOM     32  O   UNL     1      37.822 -18.712 -21.849  0.00  0.00    -0.246 OA
ATOM     33  C   UNL     1      37.345 -19.018 -20.767  0.00  0.00    +0.359 C 
BRANCH  33  34
ATOM     34  O   UNL     1      37.853 -18.618 -19.574  0.00  0.00    -0.478 OA
ATOM     35  H   UNL     1      38.268 -17.781 -19.498  0.00  0.00    +0.295 HD
ENDBRANCH  33  34
ENDBRANCH  31  33
ENDBRANCH  30  31
ENDBRANCH  27  30
ENDBRANCH  23  24
ENDBRANCH   1  23
TORSDOF 11
ENDMDL
MODEL 9
REMARK VINA RESULT:      -8.9      3.365      6.745
REMARK  Name = 18376177
REMARK  11 active torsions:
REMARK  status: ('A' for Active; 'I' for Inactive)
REMARK    1  A    between atoms: N_1  and  S_2
REMARK    2  A    between atoms: N_1  and  C_11
REMARK    3  A    between atoms: N_1  and  C_23
REMARK    4  A    between atoms: S_2  and  C_6
REMARK    5  A    between atoms: C_11  and  C_12
REMARK    6  A    between atoms: C_15  and  N_18
REMARK    7  A    between atoms: C_23  and  C_24
REMARK    8  A    between atoms: C_27  and  O_30
REMARK    9  A    between atoms: O_30  and  C_31
REMARK   10  A    between atoms: C_31  and  C_33
REMARK   11  A    between atoms: C_33  and  O_34
REMARK                            x       y       z     vdW  Elec       q    Type
REMARK                         _______ _______ _______ _____ _____    ______ ____
ROOT
ATOM      1  N   UNL     1      32.590 -23.395 -15.661  0.00  0.00    -0.147 NA
ENDROOT
BRANCH   1   2
ATOM      2  S   UNL     1      31.505 -24.097 -14.520  0.00  0.00    +0.065 S 
ATOM      3  O   UNL     1      31.660 -23.438 -13.236  0.00  0.00    -0.153 OA
ATOM      4  O   UNL     1      31.593 -25.544 -14.595  0.00  0.00    -0.153 OA
BRANCH   2   6
ATOM      5  N   UNL     1      28.118 -22.024 -15.248  0.00  0.00    -0.241 NA
ATOM      6  C   UNL     1      29.919 -23.634 -15.160  0.00  0.00    +0.141 C 
ATOM      7  C   UNL     1      29.234 -24.461 -16.042  0.00  0.00    +0.023 C 
ATOM      8  C   UNL     1      29.323 -22.437 -14.797  0.00  0.00    +0.119 C 
ATOM      9  C   UNL     1      27.991 -24.072 -16.528  0.00  0.00    +0.022 C 
ATOM     10  C   UNL     1      27.481 -22.854 -16.104  0.00  0.00    +0.099 C 
ENDBRANCH   2   6
ENDBRANCH   1   2
BRANCH   1  11
ATOM     11  C   UNL     1      33.626 -22.462 -15.150  0.00  0.00    +0.122 C 
BRANCH  11  12
ATOM     12  C   UNL     1      34.956 -23.136 -14.961  0.00  0.00    -0.004 C 
ATOM     13  C   UNL     1      36.135 -22.426 -15.187  0.00  0.00    -0.002 C 
ATOM     14  C   UNL     1      35.012 -24.470 -14.559  0.00  0.00    -0.002 C 
ATOM     15  C   UNL     1      37.425 -24.387 -14.612  0.00  0.00    +0.074 C 
ATOM     16  C   UNL     1      37.370 -23.052 -15.013  0.00  0.00    +0.016 C 
ATOM     17  C   UNL     1      36.246 -25.095 -14.385  0.00  0.00    +0.016 C 
BRANCH  15  18
ATOM     18  N   UNL     1      38.649 -25.006 -14.438  0.00  0.00    -0.189 N 
ATOM     19  N   UNL     1      39.772 -24.442 -14.917  0.00  0.00    -0.172 NA
ATOM     20  C   UNL     1      38.859 -26.189 -13.794  0.00  0.00    +0.091 C 
ATOM     21  C   UNL     1      40.211 -26.417 -13.857  0.00  0.00    +0.040 C 
ATOM     22  C   UNL     1      40.723 -25.310 -14.559  0.00  0.00    +0.120 C 
ENDBRANCH  15  18
ENDBRANCH  11  12
ENDBRANCH   1  11
BRANCH   1  23
ATOM     23  C   UNL     1      32.033 -22.947 -16.963  0.00  0.00    +0.123 C 
BRANCH  23  24
ATOM     24  C   UNL     1      33.103 -22.488 -17.912  0.00  0.00    -0.001 C 
ATOM     25  C   UNL     1      32.881 -21.381 -18.732  0.00  0.00    +0.034 C 
ATOM     26  C   UNL     1      34.320 -23.168 -17.974  0.00  0.00    -0.003 C 
ATOM     27  C   UNL     1      33.874 -20.955 -19.613  0.00  0.00    +0.139 C 
ATOM     28  C   UNL     1      35.313 -22.742 -18.855  0.00  0.00    +0.003 C 
ATOM     29  C   UNL     1      35.091 -21.634 -19.674  0.00  0.00    +0.037 C 
BRANCH  27  30
ATOM     30  O   UNL     1      33.657 -19.877 -20.414  0.00  0.00    -0.464 OA
BRANCH  30  31
ATOM     31  C   UNL     1      34.613 -19.628 -21.444  0.00  0.00    +0.314 C 
BRANCH  31  33
ATOM     32  O   UNL     1      34.893 -17.217 -21.542  0.00  0.00    -0.246 OA
ATOM     33  C   UNL     1      35.301 -18.316 -21.195  0.00  0.00    +0.359 C 
BRANCH  33  34
ATOM     34  O   UNL     1      36.459 -18.516 -20.518  0.00  0.00    -0.478 OA
ATOM     35  H   UNL     1      36.444 -18.913 -19.670  0.00  0.00    +0.295 HD
ENDBRANCH  33  34
ENDBRANCH  31  33
ENDBRANCH  30  31
ENDBRANCH  27  30
ENDBRANCH  23  24
ENDBRANCH   1  23
TORSDOF 11
ENDMDL
