MODEL 1
REMARK VINA RESULT:     -12.2      0.000      0.000
REMARK  Name = 32778
REMARK  7 active torsions:
REMARK  status: ('A' for Active; 'I' for Inactive)
REMARK    1  A    between atoms: C_1  and  S_7
REMARK    2  A    between atoms: C_2  and  C_23
REMARK    3  A    between atoms: S_7  and  N_12
REMARK    4  A    between atoms: N_11  and  N_16
REMARK    5  A    between atoms: C_23  and  C_24
REMARK    6  A    between atoms: C_24  and  N_26
REMARK    7  A    between atoms: C_27  and  C_31
REMARK                            x       y       z     vdW  Elec       q    Type
REMARK                         _______ _______ _______ _____ _____    ______ ____
ROOT
ATOM      1  C   UNL     1      34.602 -21.283 -19.605  0.00  0.00    +0.125 C 
ATOM      2  C   UNL     1      35.688 -19.291 -21.228  0.00  0.00    -0.020 C 
ATOM      3  C   UNL     1      35.986 -21.115 -19.673  0.00  0.00    +0.020 C 
ATOM      4  C   UNL     1      33.762 -20.455 -20.349  0.00  0.00    +0.020 C 
ATOM      5  C   UNL     1      36.528 -20.119 -20.484  0.00  0.00    -0.003 C 
ATOM      6  C   UNL     1      34.304 -19.459 -21.161  0.00  0.00    -0.003 C 
ENDROOT
BRANCH   1   7
ATOM      7  S   UNL     1      33.916 -22.547 -18.577  0.00  0.00    +0.077 S 
ATOM      8  O   UNL     1      33.783 -23.752 -19.372  0.00  0.00    -0.150 OA
ATOM      9  O   UNL     1      32.759 -21.969 -17.919  0.00  0.00    -0.150 OA
BRANCH   7  12
ATOM     10  O   UNL     1      34.048 -24.103 -15.895  0.00  0.00    -0.250 OA
ATOM     11  N   UNL     1      36.247 -23.498 -15.508  0.00  0.00    -0.230 N 
ATOM     12  N   UNL     1      35.169 -22.755 -17.435  0.00  0.00    -0.168 N 
ATOM     13  C   UNL     1      35.073 -23.515 -16.226  0.00  0.00    +0.333 C 
ATOM     14  H   UNL     1      37.029 -23.001 -15.842  0.00  0.00    +0.171 HD
ATOM     15  H   UNL     1      36.031 -22.315 -17.624  0.00  0.00    +0.178 HD
BRANCH  11  16
ATOM     16  N   UNL     1      36.316 -24.192 -14.309  0.00  0.00    -0.205 NA
ATOM     17  C   UNL     1      37.740 -24.609 -11.475  0.00  0.00    +0.002 C 
ATOM     18  C   UNL     1      37.778 -26.045 -11.980  0.00  0.00    +0.002 C 
ATOM     19  C   UNL     1      36.463 -23.847 -11.807  0.00  0.00    +0.019 C 
ATOM     20  C   UNL     1      37.169 -26.315 -13.351  0.00  0.00    +0.019 C 
ATOM     21  C   UNL     1      36.475 -23.237 -13.211  0.00  0.00    +0.092 C 
ATOM     22  C   UNL     1      37.366 -25.213 -14.391  0.00  0.00    +0.092 C 
ENDBRANCH  11  16
ENDBRANCH   7  12
ENDBRANCH   1   7
BRANCH   2  23
ATOM     23  C   UNL     1      36.268 -18.225 -22.095  0.00  0.00    +0.048 C 
BRANCH  23  24
ATOM     24  C   UNL     1      35.262 -17.624 -23.085  0.00  0.00    +0.094 C 
BRANCH  24  26
ATOM     25  O   UNL     1      34.227 -15.466 -24.610  0.00  0.00    -0.268 OA
ATOM     26  N   UNL     1      34.611 -16.454 -22.562  0.00  0.00    -0.299 N 
ATOM     27  C   UNL     1      34.130 -15.436 -23.383  0.00  0.00    +0.267 C 
ATOM     28  H   UNL     1      34.501 -16.368 -21.587  0.00  0.00    +0.150 HD
BRANCH  27  31
ATOM     29  O   UNL     1      32.832 -12.265 -22.382  0.00  0.00    -0.358 OA
ATOM     30  N   UNL     1      33.458 -13.103 -23.298  0.00  0.00    -0.073 NA
ATOM     31  C   UNL     1      33.519 -14.292 -22.692  0.00  0.00    +0.176 C 
ATOM     32  C   UNL     1      32.953 -14.266 -21.406  0.00  0.00    +0.063 C 
ATOM     33  C   UNL     1      32.536 -12.970 -21.260  0.00  0.00    +0.155 C 
ATOM     34  C   UNL     1      31.866 -12.233 -20.180  0.00  0.00    +0.075 C 
ENDBRANCH  27  31
ENDBRANCH  24  26
ENDBRANCH  23  24
ENDBRANCH   2  23
TORSDOF 7
ENDMDL
MODEL 2
REMARK VINA RESULT:     -11.8      2.446     11.703
REMARK  Name = 32778
REMARK  7 active torsions:
REMARK  status: ('A' for Active; 'I' for Inactive)
REMARK    1  A    between atoms: C_1  and  S_7
REMARK    2  A    between atoms: C_2  and  C_23
REMARK    3  A    between atoms: S_7  and  N_12
REMARK    4  A    between atoms: N_11  and  N_16
REMARK    5  A    between atoms: C_23  and  C_24
REMARK    6  A    between atoms: C_24  and  N_26
REMARK    7  A    between atoms: C_27  and  C_31
REMARK                            x       y       z     vdW  Elec       q    Type
REMARK                         _______ _______ _______ _____ _____    ______ ____
ROOT
ATOM      1  C   UNL     1      35.547 -20.220 -20.374  0.00  0.00    +0.125 C 
ATOM      2  C   UNL     1      34.309 -22.112 -18.741  0.00  0.00    -0.020 C 
ATOM      3  C   UNL     1      34.156 -20.309 -20.342  0.00  0.00    +0.020 C 
ATOM      4  C   UNL     1      36.320 -21.077 -19.590  0.00  0.00    +0.020 C 
ATOM      5  C   UNL     1      33.536 -21.255 -19.525  0.00  0.00    -0.003 C 
ATOM      6  C   UNL     1      35.700 -22.023 -18.773  0.00  0.00    -0.003 C 
ENDROOT
BRANCH   1   7
ATOM      7  S   UNL     1      36.331 -19.022 -21.410  0.00  0.00    +0.077 S 
ATOM      8  O   UNL     1      35.953 -19.295 -22.783  0.00  0.00    -0.150 OA
ATOM      9  O   UNL     1      37.730 -18.986 -21.026  0.00  0.00    -0.150 OA
BRANCH   7  12
ATOM     10  O   UNL     1      34.749 -16.831 -22.938  0.00  0.00    -0.250 OA
ATOM     11  N   UNL     1      34.357 -15.600 -21.019  0.00  0.00    -0.230 N 
ATOM     12  N   UNL     1      35.566 -17.586 -20.887  0.00  0.00    -0.168 N 
ATOM     13  C   UNL     1      34.866 -16.664 -21.727  0.00  0.00    +0.333 C 
ATOM     14  H   UNL     1      34.494 -15.538 -20.046  0.00  0.00    +0.171 HD
ATOM     15  H   UNL     1      35.611 -17.375 -19.925  0.00  0.00    +0.178 HD
BRANCH  11  16
ATOM     16  N   UNL     1      33.647 -14.617 -21.693  0.00  0.00    -0.205 NA
ATOM     17  C   UNL     1      33.579 -11.674 -22.944  0.00  0.00    +0.002 C 
ATOM     18  C   UNL     1      32.312 -11.609 -22.101  0.00  0.00    +0.002 C 
ATOM     19  C   UNL     1      33.817 -13.009 -23.639  0.00  0.00    +0.019 C 
ATOM     20  C   UNL     1      31.942 -12.857 -21.307  0.00  0.00    +0.019 C 
ATOM     21  C   UNL     1      34.498 -14.042 -22.736  0.00  0.00    +0.092 C 
ATOM     22  C   UNL     1      33.117 -13.646 -20.730  0.00  0.00    +0.092 C 
ENDBRANCH  11  16
ENDBRANCH   7  12
ENDBRANCH   1   7
BRANCH   2  23
ATOM     23  C   UNL     1      33.646 -23.123 -17.867  0.00  0.00    +0.048 C 
BRANCH  23  24
ATOM     24  C   UNL     1      34.058 -23.022 -16.392  0.00  0.00    +0.094 C 
BRANCH  24  26
ATOM     25  O   UNL     1      34.501 -24.560 -14.049  0.00  0.00    -0.268 OA
ATOM     26  N   UNL     1      35.233 -23.798 -16.098  0.00  0.00    -0.299 N 
ATOM     27  C   UNL     1      35.370 -24.527 -14.919  0.00  0.00    +0.267 C 
ATOM     28  H   UNL     1      35.966 -23.814 -16.755  0.00  0.00    +0.150 HD
BRANCH  27  31
ATOM     29  O   UNL     1      38.031 -26.900 -14.742  0.00  0.00    -0.358 OA
ATOM     30  N   UNL     1      36.707 -26.554 -14.988  0.00  0.00    -0.073 NA
ATOM     31  C   UNL     1      36.644 -25.241 -14.754  0.00  0.00    +0.176 C 
ATOM     32  C   UNL     1      37.885 -24.708 -14.362  0.00  0.00    +0.063 C 
ATOM     33  C   UNL     1      38.722 -25.792 -14.371  0.00  0.00    +0.155 C 
ATOM     34  C   UNL     1      40.147 -25.977 -14.071  0.00  0.00    +0.075 C 
ENDBRANCH  27  31
ENDBRANCH  24  26
ENDBRANCH  23  24
ENDBRANCH   2  23
TORSDOF 7
ENDMDL
MODEL 3
REMARK VINA RESULT:     -11.8      3.931     10.769
REMARK  Name = 32778
REMARK  7 active torsions:
REMARK  status: ('A' for Active; 'I' for Inactive)
REMARK    1  A    between atoms: C_1  and  S_7
REMARK    2  A    between atoms: C_2  and  C_23
REMARK    3  A    between atoms: S_7  and  N_12
REMARK    4  A    between atoms: N_11  and  N_16
REMARK    5  A    between atoms: C_23  and  C_24
REMARK    6  A    between atoms: C_24  and  N_26
REMARK    7  A    between atoms: C_27  and  C_31
REMARK                            x       y       z     vdW  Elec       q    Type
REMARK                         _______ _______ _______ _____ _____    ______ ____
ROOT
ATOM      1  C   UNL     1      35.559 -20.080 -20.495  0.00  0.00    +0.125 C 
ATOM      2  C   UNL     1      34.244 -22.088 -19.073  0.00  0.00    -0.020 C 
ATOM      3  C   UNL     1      34.166 -20.150 -20.514  0.00  0.00    +0.020 C 
ATOM      4  C   UNL     1      36.295 -21.014 -19.765  0.00  0.00    +0.020 C 
ATOM      5  C   UNL     1      33.508 -21.154 -19.803  0.00  0.00    -0.003 C 
ATOM      6  C   UNL     1      35.637 -22.018 -19.054  0.00  0.00    -0.003 C 
ENDROOT
BRANCH   1   7
ATOM      7  S   UNL     1      36.391 -18.809 -21.397  0.00  0.00    +0.077 S 
ATOM      8  O   UNL     1      36.102 -18.991 -22.806  0.00  0.00    -0.150 OA
ATOM      9  O   UNL     1      37.764 -18.789 -20.926  0.00  0.00    -0.150 OA
BRANCH   7  12
ATOM     10  O   UNL     1      34.734 -16.623 -22.852  0.00  0.00    -0.250 OA
ATOM     11  N   UNL     1      34.303 -15.470 -20.893  0.00  0.00    -0.230 N 
ATOM     12  N   UNL     1      35.579 -17.418 -20.827  0.00  0.00    -0.168 N 
ATOM     13  C   UNL     1      34.847 -16.492 -21.636  0.00  0.00    +0.333 C 
ATOM     14  H   UNL     1      34.439 -15.435 -19.918  0.00  0.00    +0.171 HD
ATOM     15  H   UNL     1      35.618 -17.237 -19.859  0.00  0.00    +0.178 HD
BRANCH  11  16
ATOM     16  N   UNL     1      33.560 -14.490 -21.534  0.00  0.00    -0.205 NA
ATOM     17  C   UNL     1      33.394 -11.514 -22.696  0.00  0.00    +0.002 C 
ATOM     18  C   UNL     1      32.130 -11.514 -21.845  0.00  0.00    +0.002 C 
ATOM     19  C   UNL     1      33.670 -12.820 -23.431  0.00  0.00    +0.019 C 
ATOM     20  C   UNL     1      31.803 -12.797 -21.088  0.00  0.00    +0.019 C 
ATOM     21  C   UNL     1      34.387 -13.858 -22.563  0.00  0.00    +0.092 C 
ATOM     22  C   UNL     1      33.005 -13.565 -20.540  0.00  0.00    +0.092 C 
ENDBRANCH  11  16
ENDBRANCH   7  12
ENDBRANCH   1   7
BRANCH   2  23
ATOM     23  C   UNL     1      33.541 -23.160 -18.312  0.00  0.00    +0.048 C 
BRANCH  23  24
ATOM     24  C   UNL     1      33.008 -22.697 -16.950  0.00  0.00    +0.094 C 
BRANCH  24  26
ATOM     25  O   UNL     1      31.233 -23.896 -15.088  0.00  0.00    -0.268 OA
ATOM     26  N   UNL     1      31.576 -22.563 -16.939  0.00  0.00    -0.299 N 
ATOM     27  C   UNL     1      30.775 -23.188 -15.986  0.00  0.00    +0.267 C 
ATOM     28  H   UNL     1      31.146 -22.010 -17.630  0.00  0.00    +0.150 HD
BRANCH  27  31
ATOM     29  O   UNL     1      27.368 -23.050 -17.041  0.00  0.00    -0.358 OA
ATOM     30  N   UNL     1      28.700 -23.401 -17.231  0.00  0.00    -0.073 NA
ATOM     31  C   UNL     1      29.327 -22.979 -16.130  0.00  0.00    +0.176 C 
ATOM     32  C   UNL     1      28.453 -22.360 -15.220  0.00  0.00    +0.063 C 
ATOM     33  C   UNL     1      27.234 -22.431 -15.840  0.00  0.00    +0.155 C 
ATOM     34  C   UNL     1      25.881 -21.990 -15.477  0.00  0.00    +0.075 C 
ENDBRANCH  27  31
ENDBRANCH  24  26
ENDBRANCH  23  24
ENDBRANCH   2  23
TORSDOF 7
ENDMDL
MODEL 4
REMARK VINA RESULT:     -11.7      1.391      2.074
REMARK  Name = 32778
REMARK  7 active torsions:
REMARK  status: ('A' for Active; 'I' for Inactive)
REMARK    1  A    between atoms: C_1  and  S_7
REMARK    2  A    between atoms: C_2  and  C_23
REMARK    3  A    between atoms: S_7  and  N_12
REMARK    4  A    between atoms: N_11  and  N_16
REMARK    5  A    between atoms: C_23  and  C_24
REMARK    6  A    between atoms: C_24  and  N_26
REMARK    7  A    between atoms: C_27  and  C_31
REMARK                            x       y       z     vdW  Elec       q    Type
REMARK                         _______ _______ _______ _____ _____    ______ ____
ROOT
ATOM      1  C   UNL     1      34.180 -21.618 -19.254  0.00  0.00    +0.125 C 
ATOM      2  C   UNL     1      35.043 -19.702 -21.089  0.00  0.00    -0.020 C 
ATOM      3  C   UNL     1      33.249 -20.820 -19.919  0.00  0.00    +0.020 C 
ATOM      4  C   UNL     1      35.543 -21.458 -19.507  0.00  0.00    +0.020 C 
ATOM      5  C   UNL     1      33.680 -19.862 -20.837  0.00  0.00    -0.003 C 
ATOM      6  C   UNL     1      35.974 -20.501 -20.425  0.00  0.00    -0.003 C 
ENDROOT
BRANCH   1   7
ATOM      7  S   UNL     1      33.633 -22.830 -18.090  0.00  0.00    +0.077 S 
ATOM      8  O   UNL     1      33.611 -24.118 -18.755  0.00  0.00    -0.150 OA
ATOM      9  O   UNL     1      32.431 -22.303 -17.469  0.00  0.00    -0.150 OA
BRANCH   7  12
ATOM     10  O   UNL     1      34.122 -24.399 -15.456  0.00  0.00    -0.250 OA
ATOM     11  N   UNL     1      36.143 -23.346 -15.059  0.00  0.00    -0.230 N 
ATOM     12  N   UNL     1      34.913 -22.797 -16.958  0.00  0.00    -0.168 N 
ATOM     13  C   UNL     1      34.993 -23.594 -15.773  0.00  0.00    +0.333 C 
ATOM     14  H   UNL     1      36.796 -22.683 -15.379  0.00  0.00    +0.171 HD
ATOM     15  H   UNL     1      35.657 -22.177 -17.136  0.00  0.00    +0.178 HD
BRANCH  11  16
ATOM     16  N   UNL     1      36.371 -24.043 -13.881  0.00  0.00    -0.205 NA
ATOM     17  C   UNL     1      38.286 -24.637 -11.388  0.00  0.00    +0.002 C 
ATOM     18  C   UNL     1      38.040 -26.067 -11.852  0.00  0.00    +0.002 C 
ATOM     19  C   UNL     1      37.072 -23.720 -11.471  0.00  0.00    +0.019 C 
ATOM     20  C   UNL     1      37.133 -26.258 -13.063  0.00  0.00    +0.019 C 
ATOM     21  C   UNL     1      36.870 -23.116 -12.864  0.00  0.00    +0.092 C 
ATOM     22  C   UNL     1      37.247 -25.189 -14.149  0.00  0.00    +0.092 C 
ENDBRANCH  11  16
ENDBRANCH   7  12
ENDBRANCH   1   7
BRANCH   2  23
ATOM     23  C   UNL     1      35.503 -18.679 -22.072  0.00  0.00    +0.048 C 
BRANCH  23  24
ATOM     24  C   UNL     1      35.391 -17.239 -21.556  0.00  0.00    +0.094 C 
BRANCH  24  26
ATOM     25  O   UNL     1      33.867 -14.866 -21.243  0.00  0.00    -0.268 OA
ATOM     26  N   UNL     1      35.049 -16.309 -22.598  0.00  0.00    -0.299 N 
ATOM     27  C   UNL     1      34.293 -15.163 -22.358  0.00  0.00    +0.267 C 
ATOM     28  H   UNL     1      35.360 -16.488 -23.515  0.00  0.00    +0.150 HD
BRANCH  27  31
ATOM     29  O   UNL     1      33.823 -12.543 -24.737  0.00  0.00    -0.358 OA
ATOM     30  N   UNL     1      34.186 -13.010 -23.478  0.00  0.00    -0.073 NA
ATOM     31  C   UNL     1      34.002 -14.332 -23.535  0.00  0.00    +0.176 C 
ATOM     32  C   UNL     1      33.530 -14.753 -24.790  0.00  0.00    +0.063 C 
ATOM     33  C   UNL     1      33.434 -13.591 -25.508  0.00  0.00    +0.155 C 
ATOM     34  C   UNL     1      33.015 -13.275 -26.880  0.00  0.00    +0.075 C 
ENDBRANCH  27  31
ENDBRANCH  24  26
ENDBRANCH  23  24
ENDBRANCH   2  23
TORSDOF 7
ENDMDL
MODEL 5
REMARK VINA RESULT:     -11.3      2.499     11.537
REMARK  Name = 32778
REMARK  7 active torsions:
REMARK  status: ('A' for Active; 'I' for Inactive)
REMARK    1  A    between atoms: C_1  and  S_7
REMARK    2  A    between atoms: C_2  and  C_23
REMARK    3  A    between atoms: S_7  and  N_12
REMARK    4  A    between atoms: N_11  and  N_16
REMARK    5  A    between atoms: C_23  and  C_24
REMARK    6  A    between atoms: C_24  and  N_26
REMARK    7  A    between atoms: C_27  and  C_31
REMARK                            x       y       z     vdW  Elec       q    Type
REMARK                         _______ _______ _______ _____ _____    ______ ____
ROOT
ATOM      1  C   UNL     1      35.539 -20.089 -20.484  0.00  0.00    +0.125 C 
ATOM      2  C   UNL     1      34.245 -22.090 -19.034  0.00  0.00    -0.020 C 
ATOM      3  C   UNL     1      34.146 -20.165 -20.491  0.00  0.00    +0.020 C 
ATOM      4  C   UNL     1      36.285 -21.014 -19.753  0.00  0.00    +0.020 C 
ATOM      5  C   UNL     1      33.499 -21.165 -19.765  0.00  0.00    -0.003 C 
ATOM      6  C   UNL     1      35.637 -22.014 -19.027  0.00  0.00    -0.003 C 
ENDROOT
BRANCH   1   7
ATOM      7  S   UNL     1      36.359 -18.823 -21.405  0.00  0.00    +0.077 S 
ATOM      8  O   UNL     1      36.081 -19.035 -22.812  0.00  0.00    -0.150 OA
ATOM      9  O   UNL     1      37.728 -18.775 -20.926  0.00  0.00    -0.150 OA
BRANCH   7  12
ATOM     10  O   UNL     1      34.789 -16.618 -22.924  0.00  0.00    -0.250 OA
ATOM     11  N   UNL     1      34.260 -15.480 -20.980  0.00  0.00    -0.230 N 
ATOM     12  N   UNL     1      35.523 -17.433 -20.865  0.00  0.00    -0.168 N 
ATOM     13  C   UNL     1      34.838 -16.498 -21.703  0.00  0.00    +0.333 C 
ATOM     14  H   UNL     1      34.345 -15.454 -19.999  0.00  0.00    +0.171 HD
ATOM     15  H   UNL     1      35.513 -17.262 -19.894  0.00  0.00    +0.178 HD
BRANCH  11  16
ATOM     16  N   UNL     1      33.556 -14.491 -21.650  0.00  0.00    -0.205 NA
ATOM     17  C   UNL     1      33.500 -11.542 -22.887  0.00  0.00    +0.002 C 
ATOM     18  C   UNL     1      32.233 -11.476 -22.045  0.00  0.00    +0.002 C 
ATOM     19  C   UNL     1      33.734 -12.874 -23.588  0.00  0.00    +0.019 C 
ATOM     20  C   UNL     1      31.857 -12.727 -21.257  0.00  0.00    +0.019 C 
ATOM     21  C   UNL     1      34.410 -13.914 -22.690  0.00  0.00    +0.092 C 
ATOM     22  C   UNL     1      33.028 -13.523 -20.683  0.00  0.00    +0.092 C 
ENDBRANCH  11  16
ENDBRANCH   7  12
ENDBRANCH   1   7
BRANCH   2  23
ATOM     23  C   UNL     1      33.552 -23.158 -18.257  0.00  0.00    +0.048 C 
BRANCH  23  24
ATOM     24  C   UNL     1      33.064 -22.695 -16.878  0.00  0.00    +0.094 C 
BRANCH  24  26
ATOM     25  O   UNL     1      32.103 -23.352 -14.290  0.00  0.00    -0.268 OA
ATOM     26  N   UNL     1      33.838 -23.262 -15.806  0.00  0.00    -0.299 N 
ATOM     27  C   UNL     1      33.286 -23.555 -14.560  0.00  0.00    +0.267 C 
ATOM     28  H   UNL     1      34.793 -23.450 -15.958  0.00  0.00    +0.150 HD
BRANCH  27  31
ATOM     29  O   UNL     1      34.937 -24.742 -11.626  0.00  0.00    -0.358 OA
ATOM     30  N   UNL     1      33.840 -24.196 -12.284  0.00  0.00    -0.073 NA
ATOM     31  C   UNL     1      34.216 -24.100 -13.561  0.00  0.00    +0.176 C 
ATOM     32  C   UNL     1      35.526 -24.565 -13.770  0.00  0.00    +0.063 C 
ATOM     33  C   UNL     1      35.934 -24.957 -12.522  0.00  0.00    +0.155 C 
ATOM     34  C   UNL     1      37.177 -25.535 -11.994  0.00  0.00    +0.075 C 
ENDBRANCH  27  31
ENDBRANCH  24  26
ENDBRANCH  23  24
ENDBRANCH   2  23
TORSDOF 7
ENDMDL
MODEL 6
REMARK VINA RESULT:     -11.0      4.952     13.934
REMARK  Name = 32778
REMARK  7 active torsions:
REMARK  status: ('A' for Active; 'I' for Inactive)
REMARK    1  A    between atoms: C_1  and  S_7
REMARK    2  A    between atoms: C_2  and  C_23
REMARK    3  A    between atoms: S_7  and  N_12
REMARK    4  A    between atoms: N_11  and  N_16
REMARK    5  A    between atoms: C_23  and  C_24
REMARK    6  A    between atoms: C_24  and  N_26
REMARK    7  A    between atoms: C_27  and  C_31
REMARK                            x       y       z     vdW  Elec       q    Type
REMARK                         _______ _______ _______ _____ _____    ______ ____
ROOT
ATOM      1  C   UNL     1      32.333 -12.595 -21.121  0.00  0.00    +0.125 C 
ATOM      2  C   UNL     1      33.652 -14.841 -22.120  0.00  0.00    -0.020 C 
ATOM      3  C   UNL     1      32.900 -12.562 -22.396  0.00  0.00    +0.020 C 
ATOM      4  C   UNL     1      32.427 -13.751 -20.346  0.00  0.00    +0.020 C 
ATOM      5  C   UNL     1      33.559 -13.685 -22.895  0.00  0.00    -0.003 C 
ATOM      6  C   UNL     1      33.085 -14.875 -20.846  0.00  0.00    -0.003 C 
ENDROOT
BRANCH   1   7
ATOM      7  S   UNL     1      31.500 -11.170 -20.488  0.00  0.00    +0.077 S 
ATOM      8  O   UNL     1      32.282 -10.642 -19.388  0.00  0.00    -0.150 OA
ATOM      9  O   UNL     1      30.113 -11.549 -20.290  0.00  0.00    -0.150 OA
BRANCH   7  12
ATOM     10  O   UNL     1      31.980  -8.109 -20.678  0.00  0.00    -0.250 OA
ATOM     11  N   UNL     1      31.874  -8.110 -22.989  0.00  0.00    -0.230 N 
ATOM     12  N   UNL     1      31.609 -10.109 -21.823  0.00  0.00    -0.168 N 
ATOM     13  C   UNL     1      31.837  -8.698 -21.746  0.00  0.00    +0.333 C 
ATOM     14  H   UNL     1      31.749  -8.653 -23.802  0.00  0.00    +0.171 HD
ATOM     15  H   UNL     1      31.505 -10.500 -22.722  0.00  0.00    +0.178 HD
BRANCH  11  16
ATOM     16  N   UNL     1      32.089  -6.744 -23.084  0.00  0.00    -0.205 NA
ATOM     17  C   UNL     1      31.013  -3.867 -23.979  0.00  0.00    +0.002 C 
ATOM     18  C   UNL     1      32.374  -3.840 -24.662  0.00  0.00    +0.002 C 
ATOM     19  C   UNL     1      31.002  -4.511 -22.598  0.00  0.00    +0.019 C 
ATOM     20  C   UNL     1      33.265  -5.065 -24.483  0.00  0.00    +0.019 C 
ATOM     21  C   UNL     1      30.883  -6.037 -22.648  0.00  0.00    +0.092 C 
ATOM     22  C   UNL     1      32.539  -6.409 -24.440  0.00  0.00    +0.092 C 
ENDBRANCH  11  16
ENDBRANCH   7  12
ENDBRANCH   1   7
BRANCH   2  23
ATOM     23  C   UNL     1      34.356 -16.042 -22.655  0.00  0.00    +0.048 C 
BRANCH  23  24
ATOM     24  C   UNL     1      35.395 -16.626 -21.689  0.00  0.00    +0.094 C 
BRANCH  24  26
ATOM     25  O   UNL     1      35.373 -19.333 -22.537  0.00  0.00    -0.268 OA
ATOM     26  N   UNL     1      34.882 -17.742 -20.942  0.00  0.00    -0.299 N 
ATOM     27  C   UNL     1      34.910 -19.046 -21.434  0.00  0.00    +0.267 C 
ATOM     28  H   UNL     1      34.497 -17.580 -20.050  0.00  0.00    +0.150 HD
BRANCH  27  31
ATOM     29  O   UNL     1      32.777 -21.231 -19.585  0.00  0.00    -0.358 OA
ATOM     30  N   UNL     1      32.989 -20.184 -20.476  0.00  0.00    -0.073 NA
ATOM     31  C   UNL     1      34.317 -20.071 -20.563  0.00  0.00    +0.176 C 
ATOM     32  C   UNL     1      34.988 -21.008 -19.759  0.00  0.00    +0.063 C 
ATOM     33  C   UNL     1      33.975 -21.712 -19.165  0.00  0.00    +0.155 C 
ATOM     34  C   UNL     1      33.935 -22.829 -18.213  0.00  0.00    +0.075 C 
ENDBRANCH  27  31
ENDBRANCH  24  26
ENDBRANCH  23  24
ENDBRANCH   2  23
TORSDOF 7
ENDMDL
MODEL 7
REMARK VINA RESULT:     -11.0      2.460     11.686
REMARK  Name = 32778
REMARK  7 active torsions:
REMARK  status: ('A' for Active; 'I' for Inactive)
REMARK    1  A    between atoms: C_1  and  S_7
REMARK    2  A    between atoms: C_2  and  C_23
REMARK    3  A    between atoms: S_7  and  N_12
REMARK    4  A    between atoms: N_11  and  N_16
REMARK    5  A    between atoms: C_23  and  C_24
REMARK    6  A    between atoms: C_24  and  N_26
REMARK    7  A    between atoms: C_27  and  C_31
REMARK                            x       y       z     vdW  Elec       q    Type
REMARK                         _______ _______ _______ _____ _____    ______ ____
ROOT
ATOM      1  C   UNL     1      35.557 -20.042 -20.542  0.00  0.00    +0.125 C 
ATOM      2  C   UNL     1      34.305 -22.003 -19.003  0.00  0.00    -0.020 C 
ATOM      3  C   UNL     1      36.324 -20.963 -19.828  0.00  0.00    +0.020 C 
ATOM      4  C   UNL     1      34.164 -20.101 -20.486  0.00  0.00    +0.020 C 
ATOM      5  C   UNL     1      35.698 -21.944 -19.059  0.00  0.00    -0.003 C 
ATOM      6  C   UNL     1      33.538 -21.082 -19.717  0.00  0.00    -0.003 C 
ENDROOT
BRANCH   1   7
ATOM      7  S   UNL     1      36.351 -18.798 -21.515  0.00  0.00    +0.077 S 
ATOM      8  O   UNL     1      36.347 -19.235 -22.898  0.00  0.00    -0.150 OA
ATOM      9  O   UNL     1      37.600 -18.478 -20.849  0.00  0.00    -0.150 OA
BRANCH   7  12
ATOM     10  O   UNL     1      35.436 -16.559 -23.461  0.00  0.00    -0.250 OA
ATOM     11  N   UNL     1      34.032 -15.598 -21.893  0.00  0.00    -0.230 N 
ATOM     12  N   UNL     1      35.262 -17.494 -21.330  0.00  0.00    -0.168 N 
ATOM     13  C   UNL     1      34.941 -16.530 -22.337  0.00  0.00    +0.333 C 
ATOM     14  H   UNL     1      33.681 -15.643 -20.974  0.00  0.00    +0.171 HD
ATOM     15  H   UNL     1      34.818 -17.397 -20.455  0.00  0.00    +0.178 HD
BRANCH  11  16
ATOM     16  N   UNL     1      33.617 -14.594 -22.755  0.00  0.00    -0.205 NA
ATOM     17  C   UNL     1      34.064 -12.977 -25.478  0.00  0.00    +0.002 C 
ATOM     18  C   UNL     1      33.951 -11.803 -24.514  0.00  0.00    +0.002 C 
ATOM     19  C   UNL     1      33.115 -14.134 -25.192  0.00  0.00    +0.019 C 
ATOM     20  C   UNL     1      33.715 -12.132 -23.044  0.00  0.00    +0.019 C 
ATOM     21  C   UNL     1      33.648 -15.099 -24.128  0.00  0.00    +0.092 C 
ATOM     22  C   UNL     1      34.417 -13.387 -22.527  0.00  0.00    +0.092 C 
ENDBRANCH  11  16
ENDBRANCH   7  12
ENDBRANCH   1   7
BRANCH   2  23
ATOM     23  C   UNL     1      33.637 -23.053 -18.182  0.00  0.00    +0.048 C 
BRANCH  23  24
ATOM     24  C   UNL     1      33.853 -22.881 -16.672  0.00  0.00    +0.094 C 
BRANCH  24  26
ATOM     25  O   UNL     1      34.559 -24.666 -14.583  0.00  0.00    -0.268 OA
ATOM     26  N   UNL     1      35.189 -23.224 -16.268  0.00  0.00    -0.299 N 
ATOM     27  C   UNL     1      35.450 -24.113 -15.227  0.00  0.00    +0.267 C 
ATOM     28  H   UNL     1      35.948 -22.816 -16.745  0.00  0.00    +0.150 HD
BRANCH  27  31
ATOM     29  O   UNL     1      38.997 -23.953 -14.859  0.00  0.00    -0.358 OA
ATOM     30  N   UNL     1      37.784 -23.445 -15.311  0.00  0.00    -0.073 NA
ATOM     31  C   UNL     1      36.869 -24.334 -14.916  0.00  0.00    +0.176 C 
ATOM     32  C   UNL     1      37.438 -25.412 -14.217  0.00  0.00    +0.063 C 
ATOM     33  C   UNL     1      38.777 -25.125 -14.209  0.00  0.00    +0.155 C 
ATOM     34  C   UNL     1      39.960 -25.803 -13.663  0.00  0.00    +0.075 C 
ENDBRANCH  27  31
ENDBRANCH  24  26
ENDBRANCH  23  24
ENDBRANCH   2  23
TORSDOF 7
ENDMDL
MODEL 8
REMARK VINA RESULT:     -10.5      2.746     11.479
REMARK  Name = 32778
REMARK  7 active torsions:
REMARK  status: ('A' for Active; 'I' for Inactive)
REMARK    1  A    between atoms: C_1  and  S_7
REMARK    2  A    between atoms: C_2  and  C_23
REMARK    3  A    between atoms: S_7  and  N_12
REMARK    4  A    between atoms: N_11  and  N_16
REMARK    5  A    between atoms: C_23  and  C_24
REMARK    6  A    between atoms: C_24  and  N_26
REMARK    7  A    between atoms: C_27  and  C_31
REMARK                            x       y       z     vdW  Elec       q    Type
REMARK                         _______ _______ _______ _____ _____    ______ ____
ROOT
ATOM      1  C   UNL     1      34.930 -17.432 -23.209  0.00  0.00    +0.125 C 
ATOM      2  C   UNL     1      35.031 -19.482 -21.321  0.00  0.00    -0.020 C 
ATOM      3  C   UNL     1      34.757 -18.757 -23.609  0.00  0.00    +0.020 C 
ATOM      4  C   UNL     1      35.154 -17.132 -21.865  0.00  0.00    +0.020 C 
ATOM      5  C   UNL     1      34.807 -19.782 -22.664  0.00  0.00    -0.003 C 
ATOM      6  C   UNL     1      35.204 -18.157 -20.921  0.00  0.00    -0.003 C 
ENDROOT
BRANCH   1   7
ATOM      7  S   UNL     1      34.868 -16.133 -24.407  0.00  0.00    +0.077 S 
ATOM      8  O   UNL     1      34.445 -16.704 -25.671  0.00  0.00    -0.150 OA
ATOM      9  O   UNL     1      36.124 -15.412 -24.309  0.00  0.00    -0.150 OA
BRANCH   7  12
ATOM     10  O   UNL     1      34.879 -13.751 -22.417  0.00  0.00    -0.250 OA
ATOM     11  N   UNL     1      32.582 -13.493 -22.519  0.00  0.00    -0.230 N 
ATOM     12  N   UNL     1      33.611 -15.165 -23.773  0.00  0.00    -0.168 N 
ATOM     13  C   UNL     1      33.779 -14.086 -22.848  0.00  0.00    +0.333 C 
ATOM     14  H   UNL     1      31.739 -13.821 -22.909  0.00  0.00    +0.171 HD
ATOM     15  H   UNL     1      32.692 -15.366 -24.069  0.00  0.00    +0.178 HD
BRANCH  11  16
ATOM     16  N   UNL     1      32.577 -12.427 -21.632  0.00  0.00    -0.205 NA
ATOM     17  C   UNL     1      30.976 -10.656 -19.503  0.00  0.00    +0.002 C 
ATOM     18  C   UNL     1      31.510  -9.542 -20.394  0.00  0.00    +0.002 C 
ATOM     19  C   UNL     1      31.949 -11.804 -19.261  0.00  0.00    +0.019 C 
ATOM     20  C   UNL     1      32.372  -9.956 -21.582  0.00  0.00    +0.019 C 
ATOM     21  C   UNL     1      31.938 -12.846 -20.383  0.00  0.00    +0.092 C 
ATOM     22  C   UNL     1      31.966 -11.257 -22.271  0.00  0.00    +0.092 C 
ENDBRANCH  11  16
ENDBRANCH   7  12
ENDBRANCH   1   7
BRANCH   2  23
ATOM     23  C   UNL     1      35.083 -20.579 -20.311  0.00  0.00    +0.048 C 
BRANCH  23  24
ATOM     24  C   UNL     1      36.474 -20.778 -19.693  0.00  0.00    +0.094 C 
BRANCH  24  26
ATOM     25  O   UNL     1      37.717 -20.334 -17.181  0.00  0.00    -0.268 OA
ATOM     26  N   UNL     1      36.450 -21.672 -18.567  0.00  0.00    -0.299 N 
ATOM     27  C   UNL     1      37.089 -21.376 -17.365  0.00  0.00    +0.267 C 
ATOM     28  H   UNL     1      35.962 -22.524 -18.648  0.00  0.00    +0.150 HD
BRANCH  27  31
ATOM     29  O   UNL     1      37.664 -23.789 -14.797  0.00  0.00    -0.358 OA
ATOM     30  N   UNL     1      38.104 -22.834 -15.708  0.00  0.00    -0.073 NA
ATOM     31  C   UNL     1      36.997 -22.408 -16.322  0.00  0.00    +0.176 C 
ATOM     32  C   UNL     1      35.841 -23.049 -15.846  0.00  0.00    +0.063 C 
ATOM     33  C   UNL     1      36.315 -23.907 -14.890  0.00  0.00    +0.155 C 
ATOM     34  C   UNL     1      35.679 -24.880 -13.992  0.00  0.00    +0.075 C 
ENDBRANCH  27  31
ENDBRANCH  24  26
ENDBRANCH  23  24
ENDBRANCH   2  23
TORSDOF 7
ENDMDL
MODEL 9
REMARK VINA RESULT:     -10.4      3.238     11.348
REMARK  Name = 32778
REMARK  7 active torsions:
REMARK  status: ('A' for Active; 'I' for Inactive)
REMARK    1  A    between atoms: C_1  and  S_7
REMARK    2  A    between atoms: C_2  and  C_23
REMARK    3  A    between atoms: S_7  and  N_12
REMARK    4  A    between atoms: N_11  and  N_16
REMARK    5  A    between atoms: C_23  and  C_24
REMARK    6  A    between atoms: C_24  and  N_26
REMARK    7  A    between atoms: C_27  and  C_31
REMARK                            x       y       z     vdW  Elec       q    Type
REMARK                         _______ _______ _______ _____ _____    ______ ____
ROOT
ATOM      1  C   UNL     1      34.888 -17.317 -23.266  0.00  0.00    +0.125 C 
ATOM      2  C   UNL     1      34.972 -19.361 -21.370  0.00  0.00    -0.020 C 
ATOM      3  C   UNL     1      34.706 -18.643 -23.661  0.00  0.00    +0.020 C 
ATOM      4  C   UNL     1      35.113 -17.014 -21.923  0.00  0.00    +0.020 C 
ATOM      5  C   UNL     1      34.747 -19.665 -22.713  0.00  0.00    -0.003 C 
ATOM      6  C   UNL     1      35.154 -18.036 -20.975  0.00  0.00    -0.003 C 
ENDROOT
BRANCH   1   7
ATOM      7  S   UNL     1      34.836 -16.023 -24.469  0.00  0.00    +0.077 S 
ATOM      8  O   UNL     1      34.406 -16.595 -25.730  0.00  0.00    -0.150 OA
ATOM      9  O   UNL     1      36.099 -15.314 -24.376  0.00  0.00    -0.150 OA
BRANCH   7  12
ATOM     10  O   UNL     1      34.864 -13.684 -22.427  0.00  0.00    -0.250 OA
ATOM     11  N   UNL     1      32.576 -13.372 -22.566  0.00  0.00    -0.230 N 
ATOM     12  N   UNL     1      33.590 -15.039 -23.837  0.00  0.00    -0.168 N 
ATOM     13  C   UNL     1      33.765 -13.985 -22.886  0.00  0.00    +0.333 C 
ATOM     14  H   UNL     1      31.733 -13.673 -22.977  0.00  0.00    +0.171 HD
ATOM     15  H   UNL     1      32.673 -15.213 -24.153  0.00  0.00    +0.178 HD
BRANCH  11  16
ATOM     16  N   UNL     1      32.578 -12.326 -21.656  0.00  0.00    -0.205 NA
ATOM     17  C   UNL     1      30.988 -10.585 -19.494  0.00  0.00    +0.002 C 
ATOM     18  C   UNL     1      31.535  -9.457 -20.359  0.00  0.00    +0.002 C 
ATOM     19  C   UNL     1      31.949 -11.747 -19.274  0.00  0.00    +0.019 C 
ATOM     20  C   UNL     1      32.396  -9.854 -21.553  0.00  0.00    +0.019 C 
ATOM     21  C   UNL     1      31.931 -12.765 -20.418  0.00  0.00    +0.092 C 
ATOM     22  C   UNL     1      31.980 -11.137 -22.271  0.00  0.00    +0.092 C 
ENDBRANCH  11  16
ENDBRANCH   7  12
ENDBRANCH   1   7
BRANCH   2  23
ATOM     23  C   UNL     1      35.015 -20.455 -20.356  0.00  0.00    +0.048 C 
BRANCH  23  24
ATOM     24  C   UNL     1      33.651 -21.108 -20.100  0.00  0.00    +0.094 C 
BRANCH  24  26
ATOM     25  O   UNL     1      33.793 -23.758 -19.096  0.00  0.00    -0.268 OA
ATOM     26  N   UNL     1      33.483 -21.503 -18.727  0.00  0.00    -0.299 N 
ATOM     27  C   UNL     1      33.568 -22.832 -18.317  0.00  0.00    +0.267 C 
ATOM     28  H   UNL     1      33.301 -20.809 -18.053  0.00  0.00    +0.150 HD
BRANCH  27  31
ATOM     29  O   UNL     1      33.818 -23.464 -14.813  0.00  0.00    -0.358 OA
ATOM     30  N   UNL     1      34.380 -23.269 -16.070  0.00  0.00    -0.073 NA
ATOM     31  C   UNL     1      33.341 -23.075 -16.886  0.00  0.00    +0.176 C 
ATOM     32  C   UNL     1      32.111 -23.136 -16.209  0.00  0.00    +0.063 C 
ATOM     33  C   UNL     1      32.466 -23.383 -14.910  0.00  0.00    +0.155 C 
ATOM     34  C   UNL     1      31.708 -23.567 -13.665  0.00  0.00    +0.075 C 
ENDBRANCH  27  31
ENDBRANCH  24  26
ENDBRANCH  23  24
ENDBRANCH   2  23
TORSDOF 7
ENDMDL
