MODEL 1
REMARK VINA RESULT:     -11.8      0.000      0.000
REMARK  Name = 24880024
REMARK  5 active torsions:
REMARK  status: ('A' for Active; 'I' for Inactive)
REMARK    1  A    between atoms: N_5  and  C_12
REMARK    2  A    between atoms: C_6  and  C_22
REMARK    3  A    between atoms: C_13  and  C_21
REMARK    4  A    between atoms: C_22  and  C_23
REMARK    5  A    between atoms: C_23  and  N_25
REMARK                            x       y       z     vdW  Elec       q    Type
REMARK                         _______ _______ _______ _____ _____    ______ ____
ROOT
ATOM      1  S   UNL     1      36.471 -20.886 -19.546  0.00  0.00    -0.056 S 
ATOM      2  O   UNL     1      35.041 -23.459 -15.922  0.00  0.00    -0.252 OA
ATOM      3  N   UNL     1      34.389 -21.915 -18.410  0.00  0.00    -0.223 NA
ATOM      4  N   UNL     1      36.515 -22.317 -17.350  0.00  0.00    -0.248 N 
ATOM      5  N   UNL     1      37.336 -23.437 -15.473  0.00  0.00    -0.268 N 
ATOM      6  C   UNL     1      34.943 -20.621 -20.279  0.00  0.00    +0.031 C 
ATOM      7  C   UNL     1      33.960 -21.240 -19.535  0.00  0.00    +0.103 C 
ATOM      8  C   UNL     1      35.695 -21.796 -18.315  0.00  0.00    +0.166 C 
ATOM      9  C   UNL     1      36.183 -23.114 -16.207  0.00  0.00    +0.310 C 
ATOM     10  H   UNL     1      37.473 -22.114 -17.457  0.00  0.00    +0.158 HD
ATOM     11  H   UNL     1      38.185 -23.087 -15.827  0.00  0.00    +0.156 HD
ENDROOT
BRANCH   5  12
ATOM     12  C   UNL     1      37.427 -24.205 -14.288  0.00  0.00    +0.052 C 
ATOM     13  C   UNL     1      36.770 -24.604 -11.998  0.00  0.00    +0.073 C 
ATOM     14  C   UNL     1      36.680 -23.847 -13.166  0.00  0.00    +0.019 C 
ATOM     15  C   UNL     1      38.264 -25.320 -14.243  0.00  0.00    +0.015 C 
ATOM     16  C   UNL     1      37.606 -25.720 -11.953  0.00  0.00    +0.004 C 
ATOM     17  C   UNL     1      38.353 -26.078 -13.075  0.00  0.00    +0.001 C 
BRANCH  13  21
ATOM     18  F   UNL     1      35.500 -25.291 -10.091  0.00  0.00    -0.166 F 
ATOM     19  F   UNL     1      36.672 -23.477  -9.891  0.00  0.00    -0.166 F 
ATOM     20  F   UNL     1      34.873 -23.478 -11.113  0.00  0.00    -0.166 F 
ATOM     21  C   UNL     1      35.972 -24.223 -10.797  0.00  0.00    +0.419 C 
ENDBRANCH  13  21
ENDBRANCH   5  12
BRANCH   6  22
ATOM     22  C   UNL     1      34.831 -19.810 -21.547  0.00  0.00    +0.056 C 
BRANCH  22  23
ATOM     23  C   UNL     1      35.855 -18.679 -21.629  0.00  0.00    +0.093 C 
BRANCH  23  25
ATOM     24  S   UNL     1      33.783 -14.553 -21.174  0.00  0.00    -0.101 S 
ATOM     25  N   UNL     1      35.213 -17.401 -21.557  0.00  0.00    -0.320 N 
ATOM     26  N   UNL     1      35.108 -17.161 -23.922  0.00  0.00    -0.233 NA
ATOM     27  N   UNL     1      34.140 -15.214 -24.984  0.00  0.00    -0.247 NA
ATOM     28  C   UNL     1      34.850 -16.661 -22.697  0.00  0.00    +0.118 C 
ATOM     29  C   UNL     1      34.228 -15.423 -22.584  0.00  0.00    +0.145 C 
ATOM     30  C   UNL     1      33.887 -14.725 -23.742  0.00  0.00    +0.073 C 
ATOM     31  C   UNL     1      33.259 -13.477 -23.445  0.00  0.00    +0.022 C 
ATOM     32  C   UNL     1      33.142 -13.261 -22.091  0.00  0.00    +0.033 C 
ATOM     33  C   UNL     1      34.741 -16.415 -24.981  0.00  0.00    +0.251 C 
ATOM     34  H   UNL     1      35.019 -17.022 -20.669  0.00  0.00    +0.148 HD
ENDBRANCH  23  25
ENDBRANCH  22  23
ENDBRANCH   6  22
TORSDOF 5
ENDMDL
MODEL 2
REMARK VINA RESULT:     -11.6      1.145      1.558
REMARK  Name = 24880024
REMARK  5 active torsions:
REMARK  status: ('A' for Active; 'I' for Inactive)
REMARK    1  A    between atoms: N_5  and  C_12
REMARK    2  A    between atoms: C_6  and  C_22
REMARK    3  A    between atoms: C_13  and  C_21
REMARK    4  A    between atoms: C_22  and  C_23
REMARK    5  A    between atoms: C_23  and  N_25
REMARK                            x       y       z     vdW  Elec       q    Type
REMARK                         _______ _______ _______ _____ _____    ______ ____
ROOT
ATOM      1  S   UNL     1      36.422 -20.840 -19.665  0.00  0.00    -0.056 S 
ATOM      2  O   UNL     1      35.160 -23.365 -15.946  0.00  0.00    -0.252 OA
ATOM      3  N   UNL     1      34.399 -21.891 -18.444  0.00  0.00    -0.223 NA
ATOM      4  N   UNL     1      36.565 -22.222 -17.442  0.00  0.00    -0.248 N 
ATOM      5  N   UNL     1      37.467 -23.282 -15.568  0.00  0.00    -0.268 N 
ATOM      6  C   UNL     1      34.868 -20.625 -20.356  0.00  0.00    +0.031 C 
ATOM      7  C   UNL     1      33.922 -21.250 -19.570  0.00  0.00    +0.103 C 
ATOM      8  C   UNL     1      35.705 -21.741 -18.392  0.00  0.00    +0.166 C 
ATOM      9  C   UNL     1      36.285 -23.001 -16.272  0.00  0.00    +0.310 C 
ATOM     10  H   UNL     1      37.514 -22.000 -17.582  0.00  0.00    +0.158 HD
ATOM     11  H   UNL     1      38.297 -22.922 -15.954  0.00  0.00    +0.156 HD
ENDROOT
BRANCH   5  12
ATOM     12  C   UNL     1      37.611 -24.022 -14.370  0.00  0.00    +0.052 C 
ATOM     13  C   UNL     1      36.935 -24.473 -12.095  0.00  0.00    +0.073 C 
ATOM     14  C   UNL     1      36.793 -23.744 -13.275  0.00  0.00    +0.019 C 
ATOM     15  C   UNL     1      38.570 -25.031 -14.285  0.00  0.00    +0.015 C 
ATOM     16  C   UNL     1      37.894 -25.482 -12.010  0.00  0.00    +0.004 C 
ATOM     17  C   UNL     1      38.712 -25.761 -13.105  0.00  0.00    +0.001 C 
BRANCH  13  21
ATOM     18  F   UNL     1      35.604 -25.291 -10.283  0.00  0.00    -0.166 F 
ATOM     19  F   UNL     1      36.681 -23.438  -9.954  0.00  0.00    -0.166 F 
ATOM     20  F   UNL     1      34.947 -23.466 -11.266  0.00  0.00    -0.166 F 
ATOM     21  C   UNL     1      36.061 -24.175 -10.923  0.00  0.00    +0.419 C 
ENDBRANCH  13  21
ENDBRANCH   5  12
BRANCH   6  22
ATOM     22  C   UNL     1      34.699 -19.845 -21.637  0.00  0.00    +0.056 C 
BRANCH  22  23
ATOM     23  C   UNL     1      35.742 -18.742 -21.810  0.00  0.00    +0.093 C 
BRANCH  23  25
ATOM     24  S   UNL     1      34.227 -15.534 -24.800  0.00  0.00    -0.101 S 
ATOM     25  N   UNL     1      35.260 -17.712 -22.679  0.00  0.00    -0.320 N 
ATOM     26  N   UNL     1      34.694 -16.260 -20.880  0.00  0.00    -0.233 NA
ATOM     27  N   UNL     1      33.724 -14.072 -21.237  0.00  0.00    -0.247 NA
ATOM     28  C   UNL     1      34.744 -16.491 -22.207  0.00  0.00    +0.118 C 
ATOM     29  C   UNL     1      34.285 -15.516 -23.085  0.00  0.00    +0.145 C 
ATOM     30  C   UNL     1      33.782 -14.321 -22.572  0.00  0.00    +0.073 C 
ATOM     31  C   UNL     1      33.356 -13.435 -23.607  0.00  0.00    +0.022 C 
ATOM     32  C   UNL     1      33.542 -13.970 -24.861  0.00  0.00    +0.033 C 
ATOM     33  C   UNL     1      34.193 -15.077 -20.479  0.00  0.00    +0.251 C 
ATOM     34  H   UNL     1      35.288 -17.866 -23.651  0.00  0.00    +0.148 HD
ENDBRANCH  23  25
ENDBRANCH  22  23
ENDBRANCH   6  22
TORSDOF 5
ENDMDL
MODEL 3
REMARK VINA RESULT:     -11.6      5.347     11.645
REMARK  Name = 24880024
REMARK  5 active torsions:
REMARK  status: ('A' for Active; 'I' for Inactive)
REMARK    1  A    between atoms: N_5  and  C_12
REMARK    2  A    between atoms: C_6  and  C_22
REMARK    3  A    between atoms: C_13  and  C_21
REMARK    4  A    between atoms: C_22  and  C_23
REMARK    5  A    between atoms: C_23  and  N_25
REMARK                            x       y       z     vdW  Elec       q    Type
REMARK                         _______ _______ _______ _____ _____    ______ ____
ROOT
ATOM      1  S   UNL     1      34.119 -23.186 -16.349  0.00  0.00    -0.056 S 
ATOM      2  O   UNL     1      32.518 -20.656 -19.932  0.00  0.00    -0.252 OA
ATOM      3  N   UNL     1      31.970 -22.370 -17.533  0.00  0.00    -0.223 NA
ATOM      4  N   UNL     1      34.068 -21.670 -18.487  0.00  0.00    -0.248 N 
ATOM      5  N   UNL     1      34.814 -20.381 -20.285  0.00  0.00    -0.268 N 
ATOM      6  C   UNL     1      32.609 -23.665 -15.691  0.00  0.00    +0.031 C 
ATOM      7  C   UNL     1      31.586 -23.139 -16.452  0.00  0.00    +0.103 C 
ATOM      8  C   UNL     1      33.283 -22.326 -17.577  0.00  0.00    +0.166 C 
ATOM      9  C   UNL     1      33.683 -20.872 -19.613  0.00  0.00    +0.310 C 
ATOM     10  H   UNL     1      35.039 -21.759 -18.347  0.00  0.00    +0.158 HD
ATOM     11  H   UNL     1      35.686 -20.639 -19.908  0.00  0.00    +0.156 HD
ENDROOT
BRANCH   5  12
ATOM     12  C   UNL     1      34.854 -19.559 -21.436  0.00  0.00    +0.052 C 
ATOM     13  C   UNL     1      34.835 -17.362 -22.440  0.00  0.00    +0.073 C 
ATOM     14  C   UNL     1      34.795 -18.172 -21.306  0.00  0.00    +0.019 C 
ATOM     15  C   UNL     1      34.953 -20.137 -22.701  0.00  0.00    +0.015 C 
ATOM     16  C   UNL     1      34.934 -17.940 -23.706  0.00  0.00    +0.004 C 
ATOM     17  C   UNL     1      34.993 -19.327 -23.837  0.00  0.00    +0.001 C 
BRANCH  13  21
ATOM     18  F   UNL     1      33.556 -15.349 -22.630  0.00  0.00    -0.166 F 
ATOM     19  F   UNL     1      35.021 -15.437 -21.033  0.00  0.00    -0.166 F 
ATOM     20  F   UNL     1      35.677 -15.238 -23.097  0.00  0.00    -0.166 F 
ATOM     21  C   UNL     1      34.771 -15.878 -22.302  0.00  0.00    +0.419 C 
ENDBRANCH  13  21
ENDBRANCH   5  12
BRANCH   6  22
ATOM     22  C   UNL     1      32.550 -24.535 -14.459  0.00  0.00    +0.056 C 
BRANCH  22  23
ATOM     23  C   UNL     1      33.600 -24.165 -13.413  0.00  0.00    +0.093 C 
BRANCH  23  25
ATOM     24  S   UNL     1      37.570 -26.296 -14.518  0.00  0.00    -0.101 S 
ATOM     25  N   UNL     1      34.857 -24.784 -13.707  0.00  0.00    -0.320 N 
ATOM     26  N   UNL     1      36.041 -23.469 -12.115  0.00  0.00    -0.233 NA
ATOM     27  N   UNL     1      38.421 -23.706 -11.752  0.00  0.00    -0.247 NA
ATOM     28  C   UNL     1      36.055 -24.430 -13.059  0.00  0.00    +0.118 C 
ATOM     29  C   UNL     1      37.256 -25.056 -13.374  0.00  0.00    +0.145 C 
ATOM     30  C   UNL     1      38.419 -24.673 -12.707  0.00  0.00    +0.073 C 
ATOM     31  C   UNL     1      39.556 -25.413 -13.151  0.00  0.00    +0.022 C 
ATOM     32  C   UNL     1      39.234 -26.325 -14.130  0.00  0.00    +0.033 C 
ATOM     33  C   UNL     1      37.212 -23.168 -11.524  0.00  0.00    +0.251 C 
ATOM     34  H   UNL     1      34.885 -25.487 -14.395  0.00  0.00    +0.148 HD
ENDBRANCH  23  25
ENDBRANCH  22  23
ENDBRANCH   6  22
TORSDOF 5
ENDMDL
MODEL 4
REMARK VINA RESULT:     -11.5      2.101      2.641
REMARK  Name = 24880024
REMARK  5 active torsions:
REMARK  status: ('A' for Active; 'I' for Inactive)
REMARK    1  A    between atoms: N_5  and  C_12
REMARK    2  A    between atoms: C_6  and  C_22
REMARK    3  A    between atoms: C_13  and  C_21
REMARK    4  A    between atoms: C_22  and  C_23
REMARK    5  A    between atoms: C_23  and  N_25
REMARK                            x       y       z     vdW  Elec       q    Type
REMARK                         _______ _______ _______ _____ _____    ______ ____
ROOT
ATOM      1  S   UNL     1      34.305 -20.883 -20.384  0.00  0.00    -0.056 S 
ATOM      2  O   UNL     1      37.092 -22.099 -16.841  0.00  0.00    -0.252 OA
ATOM      3  N   UNL     1      36.689 -20.618 -19.417  0.00  0.00    -0.223 NA
ATOM      4  N   UNL     1      35.152 -21.982 -18.160  0.00  0.00    -0.248 N 
ATOM      5  N   UNL     1      35.152 -23.230 -16.186  0.00  0.00    -0.268 N 
ATOM      6  C   UNL     1      35.421 -19.914 -21.254  0.00  0.00    +0.031 C 
ATOM      7  C   UNL     1      36.630 -19.893 -20.591  0.00  0.00    +0.103 C 
ATOM      8  C   UNL     1      35.520 -21.183 -19.209  0.00  0.00    +0.166 C 
ATOM      9  C   UNL     1      35.922 -22.412 -17.030  0.00  0.00    +0.310 C 
ATOM     10  H   UNL     1      34.223 -22.310 -18.185  0.00  0.00    +0.158 HD
ATOM     11  H   UNL     1      34.224 -23.392 -16.471  0.00  0.00    +0.156 HD
ENDROOT
BRANCH   5  12
ATOM     12  C   UNL     1      35.547 -23.848 -14.976  0.00  0.00    +0.052 C 
ATOM     13  C   UNL     1      37.056 -25.287 -13.757  0.00  0.00    +0.073 C 
ATOM     14  C   UNL     1      36.666 -24.679 -14.950  0.00  0.00    +0.019 C 
ATOM     15  C   UNL     1      34.817 -23.624 -13.809  0.00  0.00    +0.015 C 
ATOM     16  C   UNL     1      36.326 -25.064 -12.590  0.00  0.00    +0.004 C 
ATOM     17  C   UNL     1      35.207 -24.232 -12.615  0.00  0.00    +0.001 C 
BRANCH  13  21
ATOM     18  F   UNL     1      38.827 -26.283 -12.494  0.00  0.00    -0.166 F 
ATOM     19  F   UNL     1      37.987 -27.462 -14.109  0.00  0.00    -0.166 F 
ATOM     20  F   UNL     1      39.246 -25.747 -14.559  0.00  0.00    -0.166 F 
ATOM     21  C   UNL     1      38.253 -26.177 -13.728  0.00  0.00    +0.419 C 
ENDBRANCH  13  21
ENDBRANCH   5  12
BRANCH   6  22
ATOM     22  C   UNL     1      35.012 -19.243 -22.543  0.00  0.00    +0.056 C 
BRANCH  22  23
ATOM     23  C   UNL     1      35.710 -17.902 -22.767  0.00  0.00    +0.093 C 
BRANCH  23  25
ATOM     24  S   UNL     1      33.484 -14.558 -20.445  0.00  0.00    -0.101 S 
ATOM     25  N   UNL     1      35.006 -16.842 -22.111  0.00  0.00    -0.320 N 
ATOM     26  N   UNL     1      34.384 -15.795 -24.156  0.00  0.00    -0.233 NA
ATOM     27  N   UNL     1      33.072 -13.764 -24.225  0.00  0.00    -0.247 NA
ATOM     28  C   UNL     1      34.356 -15.807 -22.809  0.00  0.00    +0.118 C 
ATOM     29  C   UNL     1      33.683 -14.796 -22.134  0.00  0.00    +0.145 C 
ATOM     30  C   UNL     1      33.053 -13.790 -22.866  0.00  0.00    +0.073 C 
ATOM     31  C   UNL     1      32.412 -12.836 -22.019  0.00  0.00    +0.022 C 
ATOM     32  C   UNL     1      32.570 -13.134 -20.685  0.00  0.00    +0.033 C 
ATOM     33  C   UNL     1      33.746 -14.785 -24.776  0.00  0.00    +0.251 C 
ATOM     34  H   UNL     1      34.977 -16.836 -21.127  0.00  0.00    +0.148 HD
ENDBRANCH  23  25
ENDBRANCH  22  23
ENDBRANCH   6  22
TORSDOF 5
ENDMDL
MODEL 5
REMARK VINA RESULT:     -11.2      3.629      4.279
REMARK  Name = 24880024
REMARK  5 active torsions:
REMARK  status: ('A' for Active; 'I' for Inactive)
REMARK    1  A    between atoms: N_5  and  C_12
REMARK    2  A    between atoms: C_6  and  C_22
REMARK    3  A    between atoms: C_13  and  C_21
REMARK    4  A    between atoms: C_22  and  C_23
REMARK    5  A    between atoms: C_23  and  N_25
REMARK                            x       y       z     vdW  Elec       q    Type
REMARK                         _______ _______ _______ _____ _____    ______ ____
ROOT
ATOM      1  S   UNL     1      36.155 -20.773 -19.954  0.00  0.00    -0.056 S 
ATOM      2  O   UNL     1      32.190 -22.129 -17.894  0.00  0.00    -0.252 OA
ATOM      3  N   UNL     1      33.576 -20.637 -20.095  0.00  0.00    -0.223 NA
ATOM      4  N   UNL     1      34.499 -21.905 -18.266  0.00  0.00    -0.248 N 
ATOM      5  N   UNL     1      33.721 -23.144 -16.447  0.00  0.00    -0.268 N 
ATOM      6  C   UNL     1      35.468 -19.881 -21.248  0.00  0.00    +0.031 C 
ATOM      7  C   UNL     1      34.092 -19.920 -21.157  0.00  0.00    +0.103 C 
ATOM      8  C   UNL     1      34.572 -21.132 -19.394  0.00  0.00    +0.166 C 
ATOM      9  C   UNL     1      33.344 -22.375 -17.559  0.00  0.00    +0.310 C 
ATOM     10  H   UNL     1      35.365 -22.178 -17.885  0.00  0.00    +0.158 HD
ATOM     11  H   UNL     1      34.689 -23.254 -16.306  0.00  0.00    +0.156 HD
ENDROOT
BRANCH   5  12
ATOM     12  C   UNL     1      32.880 -23.782 -15.504  0.00  0.00    +0.052 C 
ATOM     13  C   UNL     1      30.676 -24.470 -14.794  0.00  0.00    +0.073 C 
ATOM     14  C   UNL     1      31.505 -23.841 -15.723  0.00  0.00    +0.019 C 
ATOM     15  C   UNL     1      33.428 -24.352 -14.355  0.00  0.00    +0.015 C 
ATOM     16  C   UNL     1      31.224 -25.040 -13.645  0.00  0.00    +0.004 C 
ATOM     17  C   UNL     1      32.600 -24.981 -13.425  0.00  0.00    +0.001 C 
BRANCH  13  21
ATOM     18  F   UNL     1      28.548 -25.365 -14.167  0.00  0.00    -0.166 F 
ATOM     19  F   UNL     1      28.579 -23.325 -14.904  0.00  0.00    -0.166 F 
ATOM     20  F   UNL     1      28.891 -24.981 -16.279  0.00  0.00    -0.166 F 
ATOM     21  C   UNL     1      29.204 -24.534 -15.028  0.00  0.00    +0.419 C 
ENDBRANCH  13  21
ENDBRANCH   5  12
BRANCH   6  22
ATOM     22  C   UNL     1      36.351 -19.202 -22.266  0.00  0.00    +0.056 C 
BRANCH  22  23
ATOM     23  C   UNL     1      35.583 -18.265 -23.197  0.00  0.00    +0.093 C 
BRANCH  23  25
ATOM     24  S   UNL     1      33.754 -14.853 -20.640  0.00  0.00    -0.101 S 
ATOM     25  N   UNL     1      35.000 -17.181 -22.466  0.00  0.00    -0.320 N 
ATOM     26  N   UNL     1      34.367 -16.004 -24.436  0.00  0.00    -0.233 NA
ATOM     27  N   UNL     1      33.224 -13.873 -24.361  0.00  0.00    -0.247 NA
ATOM     28  C   UNL     1      34.404 -16.069 -23.091  0.00  0.00    +0.118 C 
ATOM     29  C   UNL     1      33.850 -15.036 -22.344  0.00  0.00    +0.145 C 
ATOM     30  C   UNL     1      33.269 -13.954 -23.005  0.00  0.00    +0.073 C 
ATOM     31  C   UNL     1      32.751 -12.988 -22.092  0.00  0.00    +0.022 C 
ATOM     32  C   UNL     1      32.948 -13.352 -20.779  0.00  0.00    +0.033 C 
ATOM     33  C   UNL     1      33.786 -14.922 -24.984  0.00  0.00    +0.251 C 
ATOM     34  H   UNL     1      35.020 -17.212 -21.483  0.00  0.00    +0.148 HD
ENDBRANCH  23  25
ENDBRANCH  22  23
ENDBRANCH   6  22
TORSDOF 5
ENDMDL
MODEL 6
REMARK VINA RESULT:     -11.1      2.236      2.826
REMARK  Name = 24880024
REMARK  5 active torsions:
REMARK  status: ('A' for Active; 'I' for Inactive)
REMARK    1  A    between atoms: N_5  and  C_12
REMARK    2  A    between atoms: C_6  and  C_22
REMARK    3  A    between atoms: C_13  and  C_21
REMARK    4  A    between atoms: C_22  and  C_23
REMARK    5  A    between atoms: C_23  and  N_25
REMARK                            x       y       z     vdW  Elec       q    Type
REMARK                         _______ _______ _______ _____ _____    ______ ____
ROOT
ATOM      1  S   UNL     1      34.036 -21.071 -20.030  0.00  0.00    -0.056 S 
ATOM      2  O   UNL     1      36.921 -22.372 -16.597  0.00  0.00    -0.252 OA
ATOM      3  N   UNL     1      36.473 -20.915 -19.180  0.00  0.00    -0.223 NA
ATOM      4  N   UNL     1      34.929 -22.176 -17.827  0.00  0.00    -0.248 N 
ATOM      5  N   UNL     1      34.958 -23.389 -15.833  0.00  0.00    -0.268 N 
ATOM      6  C   UNL     1      35.158 -20.176 -20.969  0.00  0.00    +0.031 C 
ATOM      7  C   UNL     1      36.397 -20.207 -20.363  0.00  0.00    +0.103 C 
ATOM      8  C   UNL     1      35.288 -21.414 -18.907  0.00  0.00    +0.166 C 
ATOM      9  C   UNL     1      35.728 -22.627 -16.726  0.00  0.00    +0.310 C 
ATOM     10  H   UNL     1      33.984 -22.455 -17.803  0.00  0.00    +0.158 HD
ATOM     11  H   UNL     1      34.010 -23.507 -16.071  0.00  0.00    +0.156 HD
ENDROOT
BRANCH   5  12
ATOM     12  C   UNL     1      35.377 -24.006 -14.631  0.00  0.00    +0.052 C 
ATOM     13  C   UNL     1      36.998 -25.309 -13.402  0.00  0.00    +0.073 C 
ATOM     14  C   UNL     1      36.585 -24.701 -14.587  0.00  0.00    +0.019 C 
ATOM     15  C   UNL     1      34.582 -23.919 -13.488  0.00  0.00    +0.015 C 
ATOM     16  C   UNL     1      36.203 -25.222 -12.260  0.00  0.00    +0.004 C 
ATOM     17  C   UNL     1      34.994 -24.527 -12.302  0.00  0.00    +0.001 C 
BRANCH  13  21
ATOM     18  F   UNL     1      39.346 -25.349 -13.858  0.00  0.00    -0.166 F 
ATOM     19  F   UNL     1      38.670 -26.409 -12.091  0.00  0.00    -0.166 F 
ATOM     20  F   UNL     1      38.253 -27.216 -14.067  0.00  0.00    -0.166 F 
ATOM     21  C   UNL     1      38.291 -26.053 -13.355  0.00  0.00    +0.419 C 
ENDBRANCH  13  21
ENDBRANCH   5  12
BRANCH   6  22
ATOM     22  C   UNL     1      34.725 -19.506 -22.250  0.00  0.00    +0.056 C 
BRANCH  22  23
ATOM     23  C   UNL     1      35.812 -18.624 -22.863  0.00  0.00    +0.093 C 
BRANCH  23  25
ATOM     24  S   UNL     1      33.972 -15.310 -25.538  0.00  0.00    -0.101 S 
ATOM     25  N   UNL     1      35.237 -17.562 -23.633  0.00  0.00    -0.320 N 
ATOM     26  N   UNL     1      34.941 -16.155 -21.736  0.00  0.00    -0.233 NA
ATOM     27  N   UNL     1      33.973 -13.944 -21.902  0.00  0.00    -0.247 NA
ATOM     28  C   UNL     1      34.811 -16.348 -23.063  0.00  0.00    +0.118 C 
ATOM     29  C   UNL     1      34.257 -15.341 -23.846  0.00  0.00    +0.145 C 
ATOM     30  C   UNL     1      33.848 -14.154 -23.239  0.00  0.00    +0.073 C 
ATOM     31  C   UNL     1      33.305 -13.233 -24.184  0.00  0.00    +0.022 C 
ATOM     32  C   UNL     1      33.313 -13.735 -25.466  0.00  0.00    +0.033 C 
ATOM     33  C   UNL     1      34.519 -14.977 -21.241  0.00  0.00    +0.251 C 
ATOM     34  H   UNL     1      35.134 -17.688 -24.603  0.00  0.00    +0.148 HD
ENDBRANCH  23  25
ENDBRANCH  22  23
ENDBRANCH   6  22
TORSDOF 5
ENDMDL
MODEL 7
REMARK VINA RESULT:     -11.1      3.777      4.711
REMARK  Name = 24880024
REMARK  5 active torsions:
REMARK  status: ('A' for Active; 'I' for Inactive)
REMARK    1  A    between atoms: N_5  and  C_12
REMARK    2  A    between atoms: C_6  and  C_22
REMARK    3  A    between atoms: C_13  and  C_21
REMARK    4  A    between atoms: C_22  and  C_23
REMARK    5  A    between atoms: C_23  and  N_25
REMARK                            x       y       z     vdW  Elec       q    Type
REMARK                         _______ _______ _______ _____ _____    ______ ____
ROOT
ATOM      1  S   UNL     1      34.018 -20.174 -20.521  0.00  0.00    -0.056 S 
ATOM      2  O   UNL     1      33.405 -23.129 -16.958  0.00  0.00    -0.252 OA
ATOM      3  N   UNL     1      35.245 -21.766 -18.895  0.00  0.00    -0.223 NA
ATOM      4  N   UNL     1      32.854 -21.595 -18.650  0.00  0.00    -0.248 N 
ATOM      5  N   UNL     1      31.180 -22.489 -17.292  0.00  0.00    -0.268 N 
ATOM      6  C   UNL     1      35.721 -20.314 -20.667  0.00  0.00    +0.031 C 
ATOM      7  C   UNL     1      36.194 -21.202 -19.724  0.00  0.00    +0.103 C 
ATOM      8  C   UNL     1      34.062 -21.297 -19.224  0.00  0.00    +0.166 C 
ATOM      9  C   UNL     1      32.558 -22.478 -17.562  0.00  0.00    +0.310 C 
ATOM     10  H   UNL     1      32.077 -21.136 -19.043  0.00  0.00    +0.158 HD
ATOM     11  H   UNL     1      30.623 -21.912 -17.863  0.00  0.00    +0.156 HD
ENDROOT
BRANCH   5  12
ATOM     12  C   UNL     1      30.493 -23.228 -16.299  0.00  0.00    +0.052 C 
ATOM     13  C   UNL     1      30.421 -24.196 -14.087  0.00  0.00    +0.073 C 
ATOM     14  C   UNL     1      31.098 -23.469 -15.066  0.00  0.00    +0.019 C 
ATOM     15  C   UNL     1      29.211 -23.713 -16.554  0.00  0.00    +0.015 C 
ATOM     16  C   UNL     1      29.138 -24.681 -14.342  0.00  0.00    +0.004 C 
ATOM     17  C   UNL     1      28.533 -24.440 -15.575  0.00  0.00    +0.001 C 
BRANCH  13  21
ATOM     18  F   UNL     1      30.178 -24.684 -11.758  0.00  0.00    -0.166 F 
ATOM     19  F   UNL     1      31.893 -25.544 -12.769  0.00  0.00    -0.166 F 
ATOM     20  F   UNL     1      31.838 -23.411 -12.347  0.00  0.00    -0.166 F 
ATOM     21  C   UNL     1      31.067 -24.455 -12.768  0.00  0.00    +0.419 C 
ENDBRANCH  13  21
ENDBRANCH   5  12
BRANCH   6  22
ATOM     22  C   UNL     1      36.468 -19.528 -21.717  0.00  0.00    +0.056 C 
BRANCH  22  23
ATOM     23  C   UNL     1      36.413 -18.018 -21.487  0.00  0.00    +0.093 C 
BRANCH  23  25
ATOM     24  S   UNL     1      34.573 -16.005 -25.241  0.00  0.00    -0.101 S 
ATOM     25  N   UNL     1      35.814 -17.352 -22.604  0.00  0.00    -0.320 N 
ATOM     26  N   UNL     1      34.696 -15.756 -21.236  0.00  0.00    -0.233 NA
ATOM     27  N   UNL     1      33.288 -14.019 -22.160  0.00  0.00    -0.247 NA
ATOM     28  C   UNL     1      34.968 -16.236 -22.466  0.00  0.00    +0.118 C 
ATOM     29  C   UNL     1      34.406 -15.617 -23.577  0.00  0.00    +0.145 C 
ATOM     30  C   UNL     1      33.572 -14.515 -23.393  0.00  0.00    +0.073 C 
ATOM     31  C   UNL     1      33.083 -14.004 -24.633  0.00  0.00    +0.022 C 
ATOM     32  C   UNL     1      33.549 -14.720 -25.712  0.00  0.00    +0.033 C 
ATOM     33  C   UNL     1      33.882 -14.688 -21.158  0.00  0.00    +0.251 C 
ATOM     34  H   UNL     1      36.002 -17.690 -23.509  0.00  0.00    +0.148 HD
ENDBRANCH  23  25
ENDBRANCH  22  23
ENDBRANCH   6  22
TORSDOF 5
ENDMDL
MODEL 8
REMARK VINA RESULT:     -11.0      7.998     14.010
REMARK  Name = 24880024
REMARK  5 active torsions:
REMARK  status: ('A' for Active; 'I' for Inactive)
REMARK    1  A    between atoms: N_5  and  C_12
REMARK    2  A    between atoms: C_6  and  C_22
REMARK    3  A    between atoms: C_13  and  C_21
REMARK    4  A    between atoms: C_22  and  C_23
REMARK    5  A    between atoms: C_23  and  N_25
REMARK                            x       y       z     vdW  Elec       q    Type
REMARK                         _______ _______ _______ _____ _____    ______ ____
ROOT
ATOM      1  S   UNL     1      34.850 -15.533 -22.688  0.00  0.00    -0.056 S 
ATOM      2  O   UNL     1      33.900 -11.675 -25.142  0.00  0.00    -0.252 OA
ATOM      3  N   UNL     1      34.236 -14.654 -25.041  0.00  0.00    -0.223 NA
ATOM      4  N   UNL     1      34.454 -13.013 -23.291  0.00  0.00    -0.248 N 
ATOM      5  N   UNL     1      34.264 -10.699 -23.048  0.00  0.00    -0.268 N 
ATOM      6  C   UNL     1      34.683 -16.678 -23.954  0.00  0.00    +0.031 C 
ATOM      7  C   UNL     1      34.358 -16.027 -25.126  0.00  0.00    +0.103 C 
ATOM      8  C   UNL     1      34.474 -14.283 -23.803  0.00  0.00    +0.166 C 
ATOM      9  C   UNL     1      34.176 -11.771 -23.950  0.00  0.00    +0.310 C 
ATOM     10  H   UNL     1      34.661 -12.942 -22.331  0.00  0.00    +0.158 HD
ATOM     11  H   UNL     1      34.496 -10.932 -22.120  0.00  0.00    +0.156 HD
ENDROOT
BRANCH   5  12
ATOM     12  C   UNL     1      34.060  -9.323 -23.309  0.00  0.00    +0.052 C 
ATOM     13  C   UNL     1      32.631  -7.376 -23.272  0.00  0.00    +0.073 C 
ATOM     14  C   UNL     1      32.831  -8.732 -23.016  0.00  0.00    +0.019 C 
ATOM     15  C   UNL     1      35.089  -8.557 -23.857  0.00  0.00    +0.015 C 
ATOM     16  C   UNL     1      33.659  -6.610 -23.821  0.00  0.00    +0.004 C 
ATOM     17  C   UNL     1      34.889  -7.201 -24.113  0.00  0.00    +0.001 C 
BRANCH  13  21
ATOM     18  F   UNL     1      30.243  -7.480 -23.370  0.00  0.00    -0.166 F 
ATOM     19  F   UNL     1      31.115  -6.533 -21.625  0.00  0.00    -0.166 F 
ATOM     20  F   UNL     1      31.169  -5.521 -23.549  0.00  0.00    -0.166 F 
ATOM     21  C   UNL     1      31.316  -6.743 -22.960  0.00  0.00    +0.419 C 
ENDBRANCH  13  21
ENDBRANCH   5  12
BRANCH   6  22
ATOM     22  C   UNL     1      34.890 -18.149 -23.691  0.00  0.00    +0.056 C 
BRANCH  22  23
ATOM     23  C   UNL     1      35.625 -18.426 -22.379  0.00  0.00    +0.093 C 
BRANCH  23  25
ATOM     24  S   UNL     1      32.938 -21.130 -19.734  0.00  0.00    -0.101 S 
ATOM     25  N   UNL     1      34.852 -19.281 -21.530  0.00  0.00    -0.320 N 
ATOM     26  N   UNL     1      36.761 -20.068 -20.345  0.00  0.00    -0.233 NA
ATOM     27  N   UNL     1      36.596 -21.680 -18.548  0.00  0.00    -0.247 NA
ATOM     28  C   UNL     1      35.426 -20.088 -20.530  0.00  0.00    +0.118 C 
ATOM     29  C   UNL     1      34.640 -20.905 -19.726  0.00  0.00    +0.145 C 
ATOM     30  C   UNL     1      35.251 -21.688 -18.747  0.00  0.00    +0.073 C 
ATOM     31  C   UNL     1      34.302 -22.463 -18.015  0.00  0.00    +0.022 C 
ATOM     32  C   UNL     1      33.013 -22.255 -18.450  0.00  0.00    +0.033 C 
ATOM     33  C   UNL     1      37.260 -20.857 -19.376  0.00  0.00    +0.251 C 
ATOM     34  H   UNL     1      33.876 -19.307 -21.653  0.00  0.00    +0.148 HD
ENDBRANCH  23  25
ENDBRANCH  22  23
ENDBRANCH   6  22
TORSDOF 5
ENDMDL
MODEL 9
REMARK VINA RESULT:     -11.0      4.833      7.669
REMARK  Name = 24880024
REMARK  5 active torsions:
REMARK  status: ('A' for Active; 'I' for Inactive)
REMARK    1  A    between atoms: N_5  and  C_12
REMARK    2  A    between atoms: C_6  and  C_22
REMARK    3  A    between atoms: C_13  and  C_21
REMARK    4  A    between atoms: C_22  and  C_23
REMARK    5  A    between atoms: C_23  and  N_25
REMARK                            x       y       z     vdW  Elec       q    Type
REMARK                         _______ _______ _______ _____ _____    ______ ____
ROOT
ATOM      1  S   UNL     1      34.105 -15.547 -24.543  0.00  0.00    -0.056 S 
ATOM      2  O   UNL     1      35.250 -17.173 -20.319  0.00  0.00    -0.252 OA
ATOM      3  N   UNL     1      34.638 -14.848 -22.112  0.00  0.00    -0.223 NA
ATOM      4  N   UNL     1      34.705 -17.206 -22.604  0.00  0.00    -0.248 N 
ATOM      5  N   UNL     1      35.131 -19.204 -21.474  0.00  0.00    -0.268 N 
ATOM      6  C   UNL     1      34.061 -13.876 -24.161  0.00  0.00    +0.031 C 
ATOM      7  C   UNL     1      34.372 -13.699 -22.829  0.00  0.00    +0.103 C 
ATOM      8  C   UNL     1      34.527 -15.884 -22.914  0.00  0.00    +0.166 C 
ATOM      9  C   UNL     1      35.052 -17.807 -21.351  0.00  0.00    +0.310 C 
ATOM     10  H   UNL     1      34.575 -17.835 -23.350  0.00  0.00    +0.158 HD
ATOM     11  H   UNL     1      34.945 -19.570 -22.369  0.00  0.00    +0.156 HD
ENDROOT
BRANCH   5  12
ATOM     12  C   UNL     1      35.445 -20.150 -20.470  0.00  0.00    +0.052 C 
ATOM     13  C   UNL     1      34.734 -21.777 -18.832  0.00  0.00    +0.073 C 
ATOM     14  C   UNL     1      34.424 -20.844 -19.821  0.00  0.00    +0.019 C 
ATOM     15  C   UNL     1      36.776 -20.390 -20.130  0.00  0.00    +0.015 C 
ATOM     16  C   UNL     1      36.065 -22.017 -18.492  0.00  0.00    +0.004 C 
ATOM     17  C   UNL     1      37.087 -21.323 -19.141  0.00  0.00    +0.001 C 
BRANCH  13  21
ATOM     18  F   UNL     1      33.371 -23.737 -18.689  0.00  0.00    -0.166 F 
ATOM     19  F   UNL     1      33.907 -22.775 -16.822  0.00  0.00    -0.166 F 
ATOM     20  F   UNL     1      32.458 -21.841 -18.146  0.00  0.00    -0.166 F 
ATOM     21  C   UNL     1      33.642 -22.519 -18.137  0.00  0.00    +0.419 C 
ENDBRANCH  13  21
ENDBRANCH   5  12
BRANCH   6  22
ATOM     22  C   UNL     1      33.721 -12.855 -25.219  0.00  0.00    +0.056 C 
BRANCH  22  23
ATOM     23  C   UNL     1      34.374 -11.496 -24.973  0.00  0.00    +0.093 C 
BRANCH  23  25
ATOM     24  S   UNL     1      31.861  -9.232 -21.797  0.00  0.00    -0.101 S 
ATOM     25  N   UNL     1      33.643 -10.745 -23.997  0.00  0.00    -0.320 N 
ATOM     26  N   UNL     1      35.141  -8.897 -24.087  0.00  0.00    -0.233 NA
ATOM     27  N   UNL     1      34.833  -6.914 -22.735  0.00  0.00    -0.247 NA
ATOM     28  C   UNL     1      34.033  -9.463 -23.568  0.00  0.00    +0.118 C 
ATOM     29  C   UNL     1      33.295  -8.766 -22.618  0.00  0.00    +0.145 C 
ATOM     30  C   UNL     1      33.718  -7.499 -22.222  0.00  0.00    +0.073 C 
ATOM     31  C   UNL     1      32.849  -6.928 -21.244  0.00  0.00    +0.022 C 
ATOM     32  C   UNL     1      31.803  -7.763 -20.925  0.00  0.00    +0.033 C 
ATOM     33  C   UNL     1      35.470  -7.670 -23.644  0.00  0.00    +0.251 C 
ATOM     34  H   UNL     1      32.832 -11.144 -23.608  0.00  0.00    +0.148 HD
ENDBRANCH  23  25
ENDBRANCH  22  23
ENDBRANCH   6  22
TORSDOF 5
ENDMDL
