MODEL 1
REMARK VINA RESULT:     -11.1      0.000      0.000
REMARK  Name = 5287459
REMARK  5 active torsions:
REMARK  status: ('A' for Active; 'I' for Inactive)
REMARK    1  A    between atoms: C_1  and  C_7
REMARK    2  A    between atoms: C_4  and  C_21
REMARK    3  A    between atoms: C_5  and  C_25
REMARK    4  A    between atoms: C_8  and  C_13
REMARK    5  A    between atoms: C_25  and  O_26
REMARK                            x       y       z     vdW  Elec       q    Type
REMARK                         _______ _______ _______ _____ _____    ______ ____
ROOT
ATOM      1  C   UNL     1      37.391 -23.968 -14.760  0.00  0.00    +0.000 C 
ATOM      2  C   UNL     1      36.819 -23.920 -13.489  0.00  0.00    +0.005 C 
ATOM      3  C   UNL     1      38.570 -24.682 -14.968  0.00  0.00    +0.006 C 
ATOM      4  C   UNL     1      37.426 -24.589 -12.426  0.00  0.00    +0.053 C 
ATOM      5  C   UNL     1      39.178 -25.350 -13.905  0.00  0.00    +0.076 C 
ATOM      6  C   UNL     1      38.605 -25.303 -12.633  0.00  0.00    +0.011 C 
ENDROOT
BRANCH   1   7
ATOM      7  C   UNL     1      36.762 -23.274 -15.863  0.00  0.00    +0.000 C 
ATOM      8  C   UNL     1      35.547 -21.937 -17.989  0.00  0.00    +0.000 C 
ATOM      9  C   UNL     1      35.407 -23.474 -16.130  0.00  0.00    +0.000 C 
ATOM     10  C   UNL     1      37.509 -22.405 -16.658  0.00  0.00    +0.000 C 
ATOM     11  C   UNL     1      34.800 -22.806 -17.194  0.00  0.00    +0.000 C 
ATOM     12  C   UNL     1      36.902 -21.737 -17.721  0.00  0.00    +0.000 C 
BRANCH   8  13
ATOM     13  C   UNL     1      34.918 -21.244 -19.093  0.00  0.00    +0.000 C 
ATOM     14  C   UNL     1      33.528 -21.222 -19.203  0.00  0.00    +0.000 C 
ATOM     15  C   UNL     1      35.703 -20.598 -20.047  0.00  0.00    +0.000 C 
ATOM     16  C   UNL     1      32.923 -20.554 -20.266  0.00  0.00    +0.000 C 
ATOM     17  C   UNL     1      35.098 -19.930 -21.112  0.00  0.00    +0.000 C 
ATOM     18  C   UNL     1      33.708 -19.907 -21.222  0.00  0.00    +0.000 C 
ENDBRANCH   8  13
ENDBRANCH   1   7
BRANCH   4  21
ATOM     19  O   UNL     1      36.132 -25.474 -10.668  0.00  0.00    -0.270 OA
ATOM     20  N   UNL     1      37.079 -23.415 -10.318  0.00  0.00    -0.325 N 
ATOM     21  C   UNL     1      36.830 -24.539 -11.100  0.00  0.00    +0.243 C 
ATOM     22  H   UNL     1      36.691 -23.346  -9.416  0.00  0.00    +0.145 HD
ATOM     23  H   UNL     1      37.644 -22.688 -10.668  0.00  0.00    +0.145 HD
ENDBRANCH   4  21
BRANCH   5  25
ATOM     24  O   UNL     1      41.070 -26.657 -13.243  0.00  0.00    -0.245 OA
ATOM     25  C   UNL     1      40.408 -26.095 -14.122  0.00  0.00    +0.338 C 
BRANCH  25  26
ATOM     26  O   UNL     1      40.776 -26.120 -15.432  0.00  0.00    -0.477 OA
ATOM     27  H   UNL     1      41.067 -25.335 -15.853  0.00  0.00    +0.295 HD
ENDBRANCH  25  26
ENDBRANCH   5  25
TORSDOF 5
ENDMDL
MODEL 2
REMARK VINA RESULT:     -10.8      3.275      5.660
REMARK  Name = 5287459
REMARK  5 active torsions:
REMARK  status: ('A' for Active; 'I' for Inactive)
REMARK    1  A    between atoms: C_1  and  C_7
REMARK    2  A    between atoms: C_4  and  C_21
REMARK    3  A    between atoms: C_5  and  C_25
REMARK    4  A    between atoms: C_8  and  C_13
REMARK    5  A    between atoms: C_25  and  O_26
REMARK                            x       y       z     vdW  Elec       q    Type
REMARK                         _______ _______ _______ _____ _____    ______ ____
ROOT
ATOM      1  C   UNL     1      33.684 -22.724 -17.260  0.00  0.00    +0.000 C 
ATOM      2  C   UNL     1      34.741 -23.346 -16.597  0.00  0.00    +0.005 C 
ATOM      3  C   UNL     1      32.373 -22.930 -16.831  0.00  0.00    +0.006 C 
ATOM      4  C   UNL     1      34.487 -24.174 -15.503  0.00  0.00    +0.053 C 
ATOM      5  C   UNL     1      32.119 -23.759 -15.738  0.00  0.00    +0.076 C 
ATOM      6  C   UNL     1      33.177 -24.380 -15.075  0.00  0.00    +0.011 C 
ENDROOT
BRANCH   1   7
ATOM      7  C   UNL     1      33.946 -21.865 -18.395  0.00  0.00    +0.000 C 
ATOM      8  C   UNL     1      34.451 -20.209 -20.583  0.00  0.00    +0.000 C 
ATOM      9  C   UNL     1      32.890 -21.229 -19.047  0.00  0.00    +0.000 C 
ATOM     10  C   UNL     1      35.255 -21.673 -18.836  0.00  0.00    +0.000 C 
ATOM     11  C   UNL     1      33.142 -20.402 -20.142  0.00  0.00    +0.000 C 
ATOM     12  C   UNL     1      35.508 -20.846 -19.931  0.00  0.00    +0.000 C 
BRANCH   8  13
ATOM     13  C   UNL     1      34.714 -19.352 -21.718  0.00  0.00    +0.000 C 
ATOM     14  C   UNL     1      35.176 -18.051 -21.519  0.00  0.00    +0.000 C 
ATOM     15  C   UNL     1      34.506 -19.827 -23.013  0.00  0.00    +0.000 C 
ATOM     16  C   UNL     1      35.430 -17.225 -22.614  0.00  0.00    +0.000 C 
ATOM     17  C   UNL     1      34.760 -19.002 -24.108  0.00  0.00    +0.000 C 
ATOM     18  C   UNL     1      35.221 -17.701 -23.910  0.00  0.00    +0.000 C 
ENDBRANCH   8  13
ENDBRANCH   1   7
BRANCH   4  21
ATOM     19  O   UNL     1      36.314 -24.197 -14.017  0.00  0.00    -0.270 OA
ATOM     20  N   UNL     1      35.801 -26.177 -15.054  0.00  0.00    -0.325 N 
ATOM     21  C   UNL     1      35.590 -24.823 -14.812  0.00  0.00    +0.243 C 
ATOM     22  H   UNL     1      36.538 -26.649 -14.605  0.00  0.00    +0.145 HD
ATOM     23  H   UNL     1      35.212 -26.663 -15.676  0.00  0.00    +0.145 HD
ENDBRANCH   4  21
BRANCH   5  25
ATOM     24  O   UNL     1      30.141 -25.046 -15.345  0.00  0.00    -0.245 OA
ATOM     25  C   UNL     1      30.752 -23.974 -15.291  0.00  0.00    +0.338 C 
BRANCH  25  26
ATOM     26  O   UNL     1      30.186 -22.843 -14.786  0.00  0.00    -0.477 OA
ATOM     27  H   UNL     1      29.746 -22.244 -15.356  0.00  0.00    +0.295 HD
ENDBRANCH  25  26
ENDBRANCH   5  25
TORSDOF 5
ENDMDL
MODEL 3
REMARK VINA RESULT:     -10.7      3.220      5.032
REMARK  Name = 5287459
REMARK  5 active torsions:
REMARK  status: ('A' for Active; 'I' for Inactive)
REMARK    1  A    between atoms: C_1  and  C_7
REMARK    2  A    between atoms: C_4  and  C_21
REMARK    3  A    between atoms: C_5  and  C_25
REMARK    4  A    between atoms: C_8  and  C_13
REMARK    5  A    between atoms: C_25  and  O_26
REMARK                            x       y       z     vdW  Elec       q    Type
REMARK                         _______ _______ _______ _____ _____    ______ ____
ROOT
ATOM      1  C   UNL     1      33.759 -22.702 -17.221  0.00  0.00    +0.000 C 
ATOM      2  C   UNL     1      32.450 -23.005 -16.846  0.00  0.00    +0.005 C 
ATOM      3  C   UNL     1      34.830 -23.213 -16.490  0.00  0.00    +0.006 C 
ATOM      4  C   UNL     1      32.213 -23.821 -15.740  0.00  0.00    +0.053 C 
ATOM      5  C   UNL     1      34.594 -24.029 -15.383  0.00  0.00    +0.076 C 
ATOM      6  C   UNL     1      33.284 -24.332 -15.009  0.00  0.00    +0.011 C 
ENDROOT
BRANCH   1   7
ATOM      7  C   UNL     1      34.005 -21.855 -18.368  0.00  0.00    +0.000 C 
ATOM      8  C   UNL     1      34.481 -20.222 -20.580  0.00  0.00    +0.000 C 
ATOM      9  C   UNL     1      35.310 -21.648 -18.815  0.00  0.00    +0.000 C 
ATOM     10  C   UNL     1      32.937 -21.246 -19.028  0.00  0.00    +0.000 C 
ATOM     11  C   UNL     1      35.548 -20.831 -19.920  0.00  0.00    +0.000 C 
ATOM     12  C   UNL     1      33.175 -20.429 -20.133  0.00  0.00    +0.000 C 
BRANCH   8  13
ATOM     13  C   UNL     1      34.726 -19.374 -21.726  0.00  0.00    +0.000 C 
ATOM     14  C   UNL     1      34.533 -19.869 -23.015  0.00  0.00    +0.000 C 
ATOM     15  C   UNL     1      35.157 -18.061 -21.541  0.00  0.00    +0.000 C 
ATOM     16  C   UNL     1      34.769 -19.051 -24.120  0.00  0.00    +0.000 C 
ATOM     17  C   UNL     1      35.394 -17.242 -22.645  0.00  0.00    +0.000 C 
ATOM     18  C   UNL     1      35.200 -17.737 -23.935  0.00  0.00    +0.000 C 
ENDBRANCH   8  13
ENDBRANCH   1   7
BRANCH   4  21
ATOM     19  O   UNL     1      29.875 -23.582 -15.889  0.00  0.00    -0.270 OA
ATOM     20  N   UNL     1      30.663 -25.097 -14.358  0.00  0.00    -0.325 N 
ATOM     21  C   UNL     1      30.849 -24.137 -15.349  0.00  0.00    +0.243 C 
ATOM     22  H   UNL     1      29.754 -25.336 -14.068  0.00  0.00    +0.145 HD
ATOM     23  H   UNL     1      31.443 -25.538 -13.948  0.00  0.00    +0.145 HD
ENDBRANCH   4  21
BRANCH   5  25
ATOM     24  O   UNL     1      35.746 -24.686 -13.392  0.00  0.00    -0.245 OA
ATOM     25  C   UNL     1      35.711 -24.562 -14.620  0.00  0.00    +0.338 C 
BRANCH  25  26
ATOM     26  O   UNL     1      36.755 -24.927 -15.414  0.00  0.00    -0.477 OA
ATOM     27  H   UNL     1      37.630 -24.897 -15.082  0.00  0.00    +0.295 HD
ENDBRANCH  25  26
ENDBRANCH   5  25
TORSDOF 5
ENDMDL
MODEL 4
REMARK VINA RESULT:     -10.7      2.300      4.038
REMARK  Name = 5287459
REMARK  5 active torsions:
REMARK  status: ('A' for Active; 'I' for Inactive)
REMARK    1  A    between atoms: C_1  and  C_7
REMARK    2  A    between atoms: C_4  and  C_21
REMARK    3  A    between atoms: C_5  and  C_25
REMARK    4  A    between atoms: C_8  and  C_13
REMARK    5  A    between atoms: C_25  and  O_26
REMARK                            x       y       z     vdW  Elec       q    Type
REMARK                         _______ _______ _______ _____ _____    ______ ____
ROOT
ATOM      1  C   UNL     1      35.506 -23.319 -15.838  0.00  0.00    +0.000 C 
ATOM      2  C   UNL     1      36.657 -23.912 -15.321  0.00  0.00    +0.005 C 
ATOM      3  C   UNL     1      34.282 -23.497 -15.196  0.00  0.00    +0.006 C 
ATOM      4  C   UNL     1      36.584 -24.682 -14.160  0.00  0.00    +0.053 C 
ATOM      5  C   UNL     1      34.207 -24.267 -14.035  0.00  0.00    +0.076 C 
ATOM      6  C   UNL     1      35.359 -24.860 -13.518  0.00  0.00    +0.011 C 
ENDROOT
BRANCH   1   7
ATOM      7  C   UNL     1      35.582 -22.520 -17.042  0.00  0.00    +0.000 C 
ATOM      8  C   UNL     1      35.727 -20.981 -19.365  0.00  0.00    +0.000 C 
ATOM      9  C   UNL     1      34.471 -22.413 -17.879  0.00  0.00    +0.000 C 
ATOM     10  C   UNL     1      36.766 -21.857 -17.366  0.00  0.00    +0.000 C 
ATOM     11  C   UNL     1      34.544 -21.644 -19.041  0.00  0.00    +0.000 C 
ATOM     12  C   UNL     1      36.838 -21.088 -18.528  0.00  0.00    +0.000 C 
BRANCH   8  13
ATOM     13  C   UNL     1      35.804 -20.183 -20.569  0.00  0.00    +0.000 C 
ATOM     14  C   UNL     1      34.723 -20.141 -21.449  0.00  0.00    +0.000 C 
ATOM     15  C   UNL     1      36.960 -19.456 -20.850  0.00  0.00    +0.000 C 
ATOM     16  C   UNL     1      34.797 -19.371 -22.610  0.00  0.00    +0.000 C 
ATOM     17  C   UNL     1      37.035 -18.686 -22.011  0.00  0.00    +0.000 C 
ATOM     18  C   UNL     1      35.954 -18.643 -22.891  0.00  0.00    +0.000 C 
ENDBRANCH   8  13
ENDBRANCH   1   7
BRANCH   4  21
ATOM     19  O   UNL     1      38.765 -24.618 -13.273  0.00  0.00    -0.270 OA
ATOM     20  N   UNL     1      37.798 -26.687 -13.490  0.00  0.00    -0.325 N 
ATOM     21  C   UNL     1      37.785 -25.301 -13.622  0.00  0.00    +0.243 C 
ATOM     22  H   UNL     1      38.594 -27.140 -13.130  0.00  0.00    +0.145 HD
ATOM     23  H   UNL     1      37.010 -27.213 -13.758  0.00  0.00    +0.145 HD
ENDBRANCH   4  21
BRANCH   5  25
ATOM     24  O   UNL     1      32.334 -23.593 -12.709  0.00  0.00    -0.245 OA
ATOM     25  C   UNL     1      32.930 -24.453 -13.365  0.00  0.00    +0.338 C 
BRANCH  25  26
ATOM     26  O   UNL     1      32.431 -25.708 -13.535  0.00  0.00    -0.477 OA
ATOM     27  H   UNL     1      32.803 -26.277 -14.179  0.00  0.00    +0.295 HD
ENDBRANCH  25  26
ENDBRANCH   5  25
TORSDOF 5
ENDMDL
MODEL 5
REMARK VINA RESULT:     -10.4      2.569      3.811
REMARK  Name = 5287459
REMARK  5 active torsions:
REMARK  status: ('A' for Active; 'I' for Inactive)
REMARK    1  A    between atoms: C_1  and  C_7
REMARK    2  A    between atoms: C_4  and  C_21
REMARK    3  A    between atoms: C_5  and  C_25
REMARK    4  A    between atoms: C_8  and  C_13
REMARK    5  A    between atoms: C_25  and  O_26
REMARK                            x       y       z     vdW  Elec       q    Type
REMARK                         _______ _______ _______ _____ _____    ______ ____
ROOT
ATOM      1  C   UNL     1      34.807 -23.368 -16.002  0.00  0.00    +0.000 C 
ATOM      2  C   UNL     1      33.527 -23.500 -15.464  0.00  0.00    +0.005 C 
ATOM      3  C   UNL     1      35.886 -24.012 -15.398  0.00  0.00    +0.006 C 
ATOM      4  C   UNL     1      33.326 -24.277 -14.324  0.00  0.00    +0.053 C 
ATOM      5  C   UNL     1      35.686 -24.789 -14.256  0.00  0.00    +0.076 C 
ATOM      6  C   UNL     1      34.405 -24.921 -13.720  0.00  0.00    +0.011 C 
ENDROOT
BRANCH   1   7
ATOM      7  C   UNL     1      35.016 -22.562 -17.185  0.00  0.00    +0.000 C 
ATOM      8  C   UNL     1      35.420 -21.007 -19.466  0.00  0.00    +0.000 C 
ATOM      9  C   UNL     1      36.282 -22.044 -17.461  0.00  0.00    +0.000 C 
ATOM     10  C   UNL     1      33.953 -22.303 -18.049  0.00  0.00    +0.000 C 
ATOM     11  C   UNL     1      36.483 -21.266 -18.601  0.00  0.00    +0.000 C 
ATOM     12  C   UNL     1      34.154 -21.525 -19.189  0.00  0.00    +0.000 C 
BRANCH   8  13
ATOM     13  C   UNL     1      35.628 -20.200 -20.649  0.00  0.00    +0.000 C 
ATOM     14  C   UNL     1      36.823 -19.501 -20.815  0.00  0.00    +0.000 C 
ATOM     15  C   UNL     1      34.632 -20.121 -21.622  0.00  0.00    +0.000 C 
ATOM     16  C   UNL     1      37.024 -18.724 -21.956  0.00  0.00    +0.000 C 
ATOM     17  C   UNL     1      34.832 -19.343 -22.762  0.00  0.00    +0.000 C 
ATOM     18  C   UNL     1      36.027 -18.644 -22.930  0.00  0.00    +0.000 C 
ENDBRANCH   8  13
ENDBRANCH   1   7
BRANCH   4  21
ATOM     19  O   UNL     1      31.767 -25.171 -12.801  0.00  0.00    -0.270 OA
ATOM     20  N   UNL     1      30.969 -23.656 -14.328  0.00  0.00    -0.325 N 
ATOM     21  C   UNL     1      31.991 -24.414 -13.763  0.00  0.00    +0.243 C 
ATOM     22  H   UNL     1      30.053 -23.724 -13.975  0.00  0.00    +0.145 HD
ATOM     23  H   UNL     1      31.164 -23.052 -15.081  0.00  0.00    +0.145 HD
ENDBRANCH   4  21
BRANCH   5  25
ATOM     24  O   UNL     1      37.977 -25.445 -14.037  0.00  0.00    -0.245 OA
ATOM     25  C   UNL     1      36.812 -25.460 -13.627  0.00  0.00    +0.338 C 
BRANCH  25  26
ATOM     26  O   UNL     1      36.451 -26.132 -12.498  0.00  0.00    -0.477 OA
ATOM     27  H   UNL     1      35.581 -26.050 -12.162  0.00  0.00    +0.295 HD
ENDBRANCH  25  26
ENDBRANCH   5  25
TORSDOF 5
ENDMDL
MODEL 6
REMARK VINA RESULT:     -10.2      4.119      5.083
REMARK  Name = 5287459
REMARK  5 active torsions:
REMARK  status: ('A' for Active; 'I' for Inactive)
REMARK    1  A    between atoms: C_1  and  C_7
REMARK    2  A    between atoms: C_4  and  C_21
REMARK    3  A    between atoms: C_5  and  C_25
REMARK    4  A    between atoms: C_8  and  C_13
REMARK    5  A    between atoms: C_25  and  O_26
REMARK                            x       y       z     vdW  Elec       q    Type
REMARK                         _______ _______ _______ _____ _____    ______ ____
ROOT
ATOM      1  C   UNL     1      34.782 -24.368 -13.885  0.00  0.00    +0.000 C 
ATOM      2  C   UNL     1      35.386 -23.671 -12.839  0.00  0.00    +0.005 C 
ATOM      3  C   UNL     1      35.476 -25.383 -14.540  0.00  0.00    +0.006 C 
ATOM      4  C   UNL     1      36.686 -23.992 -12.448  0.00  0.00    +0.053 C 
ATOM      5  C   UNL     1      36.777 -25.704 -14.150  0.00  0.00    +0.076 C 
ATOM      6  C   UNL     1      37.381 -25.007 -13.103  0.00  0.00    +0.011 C 
ENDROOT
BRANCH   1   7
ATOM      7  C   UNL     1      33.433 -24.035 -14.291  0.00  0.00    +0.000 C 
ATOM      8  C   UNL     1      30.833 -23.394 -15.075  0.00  0.00    +0.000 C 
ATOM      9  C   UNL     1      33.207 -23.426 -15.526  0.00  0.00    +0.000 C 
ATOM     10  C   UNL     1      32.360 -24.324 -13.449  0.00  0.00    +0.000 C 
ATOM     11  C   UNL     1      31.907 -23.105 -15.917  0.00  0.00    +0.000 C 
ATOM     12  C   UNL     1      31.060 -24.003 -13.840  0.00  0.00    +0.000 C 
BRANCH   8  13
ATOM     13  C   UNL     1      29.485 -23.060 -15.480  0.00  0.00    +0.000 C 
ATOM     14  C   UNL     1      29.061 -23.328 -16.781  0.00  0.00    +0.000 C 
ATOM     15  C   UNL     1      28.610 -22.472 -14.568  0.00  0.00    +0.000 C 
ATOM     16  C   UNL     1      27.760 -23.007 -17.171  0.00  0.00    +0.000 C 
ATOM     17  C   UNL     1      27.309 -22.150 -14.957  0.00  0.00    +0.000 C 
ATOM     18  C   UNL     1      26.884 -22.417 -16.259  0.00  0.00    +0.000 C 
ENDBRANCH   8  13
ENDBRANCH   1   7
BRANCH   4  21
ATOM     19  O   UNL     1      38.232 -22.448 -11.567  0.00  0.00    -0.270 OA
ATOM     20  N   UNL     1      36.853 -23.500 -10.067  0.00  0.00    -0.325 N 
ATOM     21  C   UNL     1      37.317 -23.265 -11.357  0.00  0.00    +0.243 C 
ATOM     22  H   UNL     1      37.257 -23.027  -9.304  0.00  0.00    +0.145 HD
ATOM     23  H   UNL     1      36.120 -24.141  -9.917  0.00  0.00    +0.145 HD
ENDBRANCH   4  21
BRANCH   5  25
ATOM     24  O   UNL     1      38.593 -27.225 -14.485  0.00  0.00    -0.245 OA
ATOM     25  C   UNL     1      37.502 -26.763 -14.834  0.00  0.00    +0.338 C 
BRANCH  25  26
ATOM     26  O   UNL     1      36.842 -27.217 -15.935  0.00  0.00    -0.477 OA
ATOM     27  H   UNL     1      36.562 -26.614 -16.596  0.00  0.00    +0.295 HD
ENDBRANCH  25  26
ENDBRANCH   5  25
TORSDOF 5
ENDMDL
MODEL 7
REMARK VINA RESULT:     -10.1     10.640     14.386
REMARK  Name = 5287459
REMARK  5 active torsions:
REMARK  status: ('A' for Active; 'I' for Inactive)
REMARK    1  A    between atoms: C_1  and  C_7
REMARK    2  A    between atoms: C_4  and  C_21
REMARK    3  A    between atoms: C_5  and  C_25
REMARK    4  A    between atoms: C_8  and  C_13
REMARK    5  A    between atoms: C_25  and  O_26
REMARK                            x       y       z     vdW  Elec       q    Type
REMARK                         _______ _______ _______ _____ _____    ______ ____
ROOT
ATOM      1  C   UNL     1      33.556 -13.335 -22.802  0.00  0.00    +0.000 C 
ATOM      2  C   UNL     1      33.892 -14.110 -21.692  0.00  0.00    +0.005 C 
ATOM      3  C   UNL     1      33.661 -13.871 -24.084  0.00  0.00    +0.006 C 
ATOM      4  C   UNL     1      34.332 -15.422 -21.866  0.00  0.00    +0.053 C 
ATOM      5  C   UNL     1      34.101 -15.183 -24.259  0.00  0.00    +0.076 C 
ATOM      6  C   UNL     1      34.437 -15.958 -23.149  0.00  0.00    +0.011 C 
ENDROOT
BRANCH   1   7
ATOM      7  C   UNL     1      33.100 -11.973 -22.622  0.00  0.00    +0.000 C 
ATOM      8  C   UNL     1      32.222  -9.348 -22.276  0.00  0.00    +0.000 C 
ATOM      9  C   UNL     1      33.638 -10.949 -23.402  0.00  0.00    +0.000 C 
ATOM     10  C   UNL     1      32.123 -11.685 -21.669  0.00  0.00    +0.000 C 
ATOM     11  C   UNL     1      33.199  -9.636 -23.228  0.00  0.00    +0.000 C 
ATOM     12  C   UNL     1      31.684 -10.372 -21.496  0.00  0.00    +0.000 C 
BRANCH   8  13
ATOM     13  C   UNL     1      31.766  -7.986 -22.094  0.00  0.00    +0.000 C 
ATOM     14  C   UNL     1      31.961  -7.342 -20.874  0.00  0.00    +0.000 C 
ATOM     15  C   UNL     1      31.133  -7.319 -23.142  0.00  0.00    +0.000 C 
ATOM     16  C   UNL     1      31.523  -6.029 -20.700  0.00  0.00    +0.000 C 
ATOM     17  C   UNL     1      30.694  -6.007 -22.969  0.00  0.00    +0.000 C 
ATOM     18  C   UNL     1      30.888  -5.361 -21.748  0.00  0.00    +0.000 C 
ENDBRANCH   8  13
ENDBRANCH   1   7
BRANCH   4  21
ATOM     19  O   UNL     1      34.459 -15.835 -19.550  0.00  0.00    -0.270 OA
ATOM     20  N   UNL     1      35.265 -17.474 -20.938  0.00  0.00    -0.325 N 
ATOM     21  C   UNL     1      34.683 -16.230 -20.709  0.00  0.00    +0.243 C 
ATOM     22  H   UNL     1      35.516 -18.048 -20.179  0.00  0.00    +0.145 HD
ATOM     23  H   UNL     1      35.425 -17.779 -21.860  0.00  0.00    +0.145 HD
ENDBRANCH   4  21
BRANCH   5  25
ATOM     24  O   UNL     1      33.843 -15.187 -26.637  0.00  0.00    -0.245 OA
ATOM     25  C   UNL     1      34.210 -15.742 -25.597  0.00  0.00    +0.338 C 
BRANCH  25  26
ATOM     26  O   UNL     1      34.777 -16.980 -25.598  0.00  0.00    -0.477 OA
ATOM     27  H   UNL     1      35.161 -17.319 -26.382  0.00  0.00    +0.295 HD
ENDBRANCH  25  26
ENDBRANCH   5  25
TORSDOF 5
ENDMDL
MODEL 8
REMARK VINA RESULT:     -10.0      2.580      4.089
REMARK  Name = 5287459
REMARK  5 active torsions:
REMARK  status: ('A' for Active; 'I' for Inactive)
REMARK    1  A    between atoms: C_1  and  C_7
REMARK    2  A    between atoms: C_4  and  C_21
REMARK    3  A    between atoms: C_5  and  C_25
REMARK    4  A    between atoms: C_8  and  C_13
REMARK    5  A    between atoms: C_25  and  O_26
REMARK                            x       y       z     vdW  Elec       q    Type
REMARK                         _______ _______ _______ _____ _____    ______ ____
ROOT
ATOM      1  C   UNL     1      35.390 -22.388 -17.234  0.00  0.00    +0.000 C 
ATOM      2  C   UNL     1      34.232 -22.908 -16.658  0.00  0.00    +0.005 C 
ATOM      3  C   UNL     1      36.631 -22.633 -16.649  0.00  0.00    +0.006 C 
ATOM      4  C   UNL     1      34.316 -23.676 -15.496  0.00  0.00    +0.053 C 
ATOM      5  C   UNL     1      36.716 -23.400 -15.486  0.00  0.00    +0.076 C 
ATOM      6  C   UNL     1      35.557 -23.921 -14.910  0.00  0.00    +0.011 C 
ENDROOT
BRANCH   1   7
ATOM      7  C   UNL     1      35.303 -21.592 -18.439  0.00  0.00    +0.000 C 
ATOM      8  C   UNL     1      35.135 -20.057 -20.763  0.00  0.00    +0.000 C 
ATOM      9  C   UNL     1      34.062 -21.352 -19.029  0.00  0.00    +0.000 C 
ATOM     10  C   UNL     1      36.461 -21.063 -19.011  0.00  0.00    +0.000 C 
ATOM     11  C   UNL     1      33.978 -20.585 -20.191  0.00  0.00    +0.000 C 
ATOM     12  C   UNL     1      36.377 -20.297 -20.173  0.00  0.00    +0.000 C 
BRANCH   8  13
ATOM     13  C   UNL     1      35.049 -19.261 -21.969  0.00  0.00    +0.000 C 
ATOM     14  C   UNL     1      35.241 -17.882 -21.910  0.00  0.00    +0.000 C 
ATOM     15  C   UNL     1      34.774 -19.876 -23.190  0.00  0.00    +0.000 C 
ATOM     16  C   UNL     1      35.159 -17.116 -23.073  0.00  0.00    +0.000 C 
ATOM     17  C   UNL     1      34.691 -19.111 -24.353  0.00  0.00    +0.000 C 
ATOM     18  C   UNL     1      34.883 -17.731 -24.295  0.00  0.00    +0.000 C 
ENDBRANCH   8  13
ENDBRANCH   1   7
BRANCH   4  21
ATOM     19  O   UNL     1      31.986 -24.006 -15.389  0.00  0.00    -0.270 OA
ATOM     20  N   UNL     1      33.247 -25.003 -13.753  0.00  0.00    -0.325 N 
ATOM     21  C   UNL     1      33.108 -24.219 -14.895  0.00  0.00    +0.243 C 
ATOM     22  H   UNL     1      32.451 -25.386 -13.319  0.00  0.00    +0.145 HD
ATOM     23  H   UNL     1      34.142 -25.174 -13.380  0.00  0.00    +0.145 HD
ENDBRANCH   4  21
BRANCH   5  25
ATOM     24  O   UNL     1      39.088 -23.712 -15.477  0.00  0.00    -0.245 OA
ATOM     25  C   UNL     1      38.010 -23.655 -14.875  0.00  0.00    +0.338 C 
BRANCH  25  26
ATOM     26  O   UNL     1      37.924 -23.832 -13.528  0.00  0.00    -0.477 OA
ATOM     27  H   UNL     1      38.553 -23.433 -12.961  0.00  0.00    +0.295 HD
ENDBRANCH  25  26
ENDBRANCH   5  25
TORSDOF 5
ENDMDL
MODEL 9
REMARK VINA RESULT:      -9.6     10.924     14.751
REMARK  Name = 5287459
REMARK  5 active torsions:
REMARK  status: ('A' for Active; 'I' for Inactive)
REMARK    1  A    between atoms: C_1  and  C_7
REMARK    2  A    between atoms: C_4  and  C_21
REMARK    3  A    between atoms: C_5  and  C_25
REMARK    4  A    between atoms: C_8  and  C_13
REMARK    5  A    between atoms: C_25  and  O_26
REMARK                            x       y       z     vdW  Elec       q    Type
REMARK                         _______ _______ _______ _____ _____    ______ ____
ROOT
ATOM      1  C   UNL     1      33.410 -13.134 -22.776  0.00  0.00    +0.000 C 
ATOM      2  C   UNL     1      33.486 -13.673 -24.060  0.00  0.00    +0.005 C 
ATOM      3  C   UNL     1      33.753 -13.912 -21.671  0.00  0.00    +0.006 C 
ATOM      4  C   UNL     1      33.909 -14.991 -24.239  0.00  0.00    +0.053 C 
ATOM      5  C   UNL     1      34.175 -15.230 -21.850  0.00  0.00    +0.076 C 
ATOM      6  C   UNL     1      34.252 -15.769 -23.134  0.00  0.00    +0.011 C 
ENDROOT
BRANCH   1   7
ATOM      7  C   UNL     1      32.972 -11.768 -22.590  0.00  0.00    +0.000 C 
ATOM      8  C   UNL     1      32.129  -9.132 -22.232  0.00  0.00    +0.000 C 
ATOM      9  C   UNL     1      33.520 -10.748 -23.369  0.00  0.00    +0.000 C 
ATOM     10  C   UNL     1      32.002 -11.470 -21.633  0.00  0.00    +0.000 C 
ATOM     11  C   UNL     1      33.099  -9.430 -23.189  0.00  0.00    +0.000 C 
ATOM     12  C   UNL     1      31.581 -10.152 -21.454  0.00  0.00    +0.000 C 
BRANCH   8  13
ATOM     13  C   UNL     1      31.692  -7.766 -22.045  0.00  0.00    +0.000 C 
ATOM     14  C   UNL     1      31.110  -7.068 -23.103  0.00  0.00    +0.000 C 
ATOM     15  C   UNL     1      31.852  -7.147 -20.806  0.00  0.00    +0.000 C 
ATOM     16  C   UNL     1      30.688  -5.751 -22.922  0.00  0.00    +0.000 C 
ATOM     17  C   UNL     1      31.431  -5.830 -20.624  0.00  0.00    +0.000 C 
ATOM     18  C   UNL     1      30.849  -5.131 -21.681  0.00  0.00    +0.000 C 
ENDBRANCH   8  13
ENDBRANCH   1   7
BRANCH   4  21
ATOM     19  O   UNL     1      34.886 -16.355 -25.891  0.00  0.00    -0.270 OA
ATOM     20  N   UNL     1      33.014 -15.177 -26.498  0.00  0.00    -0.325 N 
ATOM     21  C   UNL     1      33.988 -15.553 -25.578  0.00  0.00    +0.243 C 
ATOM     22  H   UNL     1      33.037 -15.537 -27.414  0.00  0.00    +0.145 HD
ATOM     23  H   UNL     1      32.302 -14.551 -26.233  0.00  0.00    +0.145 HD
ENDBRANCH   4  21
BRANCH   5  25
ATOM     24  O   UNL     1      35.257 -17.042 -20.723  0.00  0.00    -0.245 OA
ATOM     25  C   UNL     1      34.533 -16.042 -20.697  0.00  0.00    +0.338 C 
BRANCH  25  26
ATOM     26  O   UNL     1      33.978 -15.579 -19.543  0.00  0.00    -0.477 OA
ATOM     27  H   UNL     1      33.047 -15.519 -19.462  0.00  0.00    +0.295 HD
ENDBRANCH  25  26
ENDBRANCH   5  25
TORSDOF 5
ENDMDL
