MODEL 1
REMARK VINA RESULT:     -11.5      0.000      0.000
REMARK  Name = 24780387
REMARK  3 active torsions:
REMARK  status: ('A' for Active; 'I' for Inactive)
REMARK    1  A    between atoms: N_3  and  C_25
REMARK    2  A    between atoms: C_18  and  O_23
REMARK    3  A    between atoms: C_25  and  N_26
REMARK                            x       y       z     vdW  Elec       q    Type
REMARK                         _______ _______ _______ _____ _____    ______ ____
ROOT
ATOM      1  O   UNL     1      32.773 -22.324 -18.877  0.00  0.00    -0.270 OA
ATOM      2  O   UNL     1      36.840 -22.767 -16.729  0.00  0.00    -0.270 OA
ATOM      3  N   UNL     1      35.005 -22.453 -18.148  0.00  0.00    -0.244 N 
ATOM      4  N   UNL     1      33.701 -23.876 -12.668  0.00  0.00    -0.353 N 
ATOM      5  C   UNL     1      32.181 -23.035 -15.985  0.00  0.00    -0.020 A 
ATOM      6  C   UNL     1      32.203 -23.388 -14.628  0.00  0.00    -0.010 A 
ATOM      7  C   UNL     1      33.368 -22.854 -16.642  0.00  0.00    +0.054 A 
ATOM      8  C   UNL     1      30.779 -22.963 -16.496  0.00  0.00    +0.027 C 
ATOM      9  C   UNL     1      30.805 -23.590 -14.114  0.00  0.00    +0.028 C 
ATOM     10  C   UNL     1      33.432 -23.536 -13.968  0.00  0.00    +0.052 A 
ATOM     11  C   UNL     1      34.588 -22.995 -15.981  0.00  0.00    +0.059 A 
ATOM     12  C   UNL     1      29.987 -22.856 -15.185  0.00  0.00    +0.009 C 
ATOM     13  C   UNL     1      34.664 -23.341 -14.619  0.00  0.00    +0.024 A 
ATOM     14  C   UNL     1      33.635 -22.508 -18.037  0.00  0.00    +0.253 C 
ATOM     15  C   UNL     1      35.646 -22.733 -16.958  0.00  0.00    +0.253 C 
ATOM     16  C   UNL     1      35.691 -23.571 -13.640  0.00  0.00    +0.051 A 
ATOM     17  C   UNL     1      35.055 -23.901 -12.439  0.00  0.00    +0.060 A 
ATOM     18  C   UNL     1      37.102 -23.535 -13.642  0.00  0.00    +0.140 C 
ATOM     19  C   UNL     1      35.750 -24.193 -11.259  0.00  0.00    +0.017 C 
ATOM     20  C   UNL     1      37.813 -23.824 -12.470  0.00  0.00    +0.037 C 
ATOM     21  C   UNL     1      37.144 -24.148 -11.295  0.00  0.00    +0.005 C 
ATOM     22  H   UNL     1      33.016 -24.074 -11.988  0.00  0.00    +0.166 HD
ENDROOT
BRANCH  18  23
ATOM     23  O   UNL     1      37.880 -23.223 -14.722  0.00  0.00    -0.471 OA
ATOM     24  C   UNL     1      38.969 -24.096 -15.005  0.00  0.00    +0.252 C 
ENDBRANCH  18  23
BRANCH   3  25
ATOM     25  C   UNL     1      35.713 -22.139 -19.374  0.00  0.00    +0.028 C 
BRANCH  25  26
ATOM     26  N   UNL     1      35.546 -20.719 -19.672  0.00  0.00    +0.396 N 
ATOM     27  N   UNL     1      35.562 -18.441 -21.453  0.00  0.00    +0.383 N 
ATOM     28  C   UNL     1      36.805 -20.135 -20.153  0.00  0.00    -0.098 C 
ATOM     29  C   UNL     1      34.477 -20.515 -20.659  0.00  0.00    -0.098 C 
ATOM     30  C   UNL     1      36.630 -18.645 -20.468  0.00  0.00    -0.101 C 
ATOM     31  C   UNL     1      34.303 -19.025 -20.973  0.00  0.00    -0.101 C 
ATOM     32  C   UNL     1      35.395 -17.020 -21.749  0.00  0.00    -0.101 C 
ATOM     33  H   UNL     1      35.281 -20.245 -18.809  0.00  0.00    -0.077 HD
ATOM     34  H   UNL     1      35.827 -18.914 -22.317  0.00  0.00    -0.080 HD
ENDBRANCH  25  26
ENDBRANCH   3  25
TORSDOF 3
ENDMDL
MODEL 2
REMARK VINA RESULT:     -10.0      2.707      5.921
REMARK  Name = 24780387
REMARK  3 active torsions:
REMARK  status: ('A' for Active; 'I' for Inactive)
REMARK    1  A    between atoms: N_3  and  C_25
REMARK    2  A    between atoms: C_18  and  O_23
REMARK    3  A    between atoms: C_25  and  N_26
REMARK                            x       y       z     vdW  Elec       q    Type
REMARK                         _______ _______ _______ _____ _____    ______ ____
ROOT
ATOM      1  O   UNL     1      31.761 -22.693 -17.113  0.00  0.00    -0.270 OA
ATOM      2  O   UNL     1      33.817 -24.852 -13.583  0.00  0.00    -0.270 OA
ATOM      3  N   UNL     1      32.426 -23.881 -15.196  0.00  0.00    -0.244 N 
ATOM      4  N   UNL     1      38.124 -23.142 -16.053  0.00  0.00    -0.353 N 
ATOM      5  C   UNL     1      34.756 -22.386 -17.502  0.00  0.00    -0.020 A 
ATOM      6  C   UNL     1      36.156 -22.379 -17.419  0.00  0.00    -0.010 A 
ATOM      7  C   UNL     1      34.036 -23.013 -16.522  0.00  0.00    +0.054 A 
ATOM      8  C   UNL     1      34.289 -21.621 -18.697  0.00  0.00    +0.027 C 
ATOM      9  C   UNL     1      36.748 -21.597 -18.558  0.00  0.00    +0.028 C 
ATOM     10  C   UNL     1      36.791 -23.022 -16.346  0.00  0.00    +0.052 A 
ATOM     11  C   UNL     1      34.671 -23.657 -15.460  0.00  0.00    +0.059 A 
ATOM     12  C   UNL     1      35.571 -21.570 -19.542  0.00  0.00    +0.009 C 
ATOM     13  C   UNL     1      36.073 -23.686 -15.334  0.00  0.00    +0.024 A 
ATOM     14  C   UNL     1      32.591 -23.154 -16.351  0.00  0.00    +0.253 C 
ATOM     15  C   UNL     1      33.626 -24.220 -14.604  0.00  0.00    +0.253 C 
ATOM     16  C   UNL     1      37.043 -24.221 -14.420  0.00  0.00    +0.051 A 
ATOM     17  C   UNL     1      38.308 -23.864 -14.898  0.00  0.00    +0.060 A 
ATOM     18  C   UNL     1      36.986 -24.976 -13.228  0.00  0.00    +0.140 C 
ATOM     19  C   UNL     1      39.500 -24.218 -14.253  0.00  0.00    +0.017 C 
ATOM     20  C   UNL     1      38.169 -25.339 -12.571  0.00  0.00    +0.037 C 
ATOM     21  C   UNL     1      39.408 -24.965 -13.079  0.00  0.00    +0.005 C 
ATOM     22  H   UNL     1      38.854 -22.763 -16.596  0.00  0.00    +0.166 HD
ENDROOT
BRANCH  18  23
ATOM     23  O   UNL     1      35.839 -25.415 -12.629  0.00  0.00    -0.471 OA
ATOM     24  C   UNL     1      35.636 -25.038 -11.271  0.00  0.00    +0.252 C 
ENDBRANCH  18  23
BRANCH   3  25
ATOM     25  C   UNL     1      31.138 -24.257 -14.645  0.00  0.00    +0.028 C 
BRANCH  25  26
ATOM     26  N   UNL     1      30.087 -23.516 -15.339  0.00  0.00    +0.396 N 
ATOM     27  N   UNL     1      27.332 -22.761 -15.785  0.00  0.00    +0.383 N 
ATOM     28  C   UNL     1      29.139 -24.435 -15.982  0.00  0.00    -0.098 C 
ATOM     29  C   UNL     1      29.383 -22.618 -14.415  0.00  0.00    -0.098 C 
ATOM     30  C   UNL     1      28.034 -23.659 -16.709  0.00  0.00    -0.101 C 
ATOM     31  C   UNL     1      28.280 -21.842 -15.143  0.00  0.00    -0.101 C 
ATOM     32  C   UNL     1      26.282 -22.020 -16.481  0.00  0.00    -0.101 C 
ATOM     33  H   UNL     1      30.527 -22.950 -16.065  0.00  0.00    -0.077 HD
ATOM     34  H   UNL     1      26.891 -23.326 -15.061  0.00  0.00    -0.080 HD
ENDBRANCH  25  26
ENDBRANCH   3  25
TORSDOF 3
ENDMDL
