MODEL 1
REMARK VINA RESULT:     -12.6      0.000      0.000
REMARK  Name = 448605
REMARK  6 active torsions:
REMARK  status: ('A' for Active; 'I' for Inactive)
REMARK    1  A    between atoms: C_3  and  N_11
REMARK    2  A    between atoms: C_4  and  C_27
REMARK    3  A    between atoms: C_9  and  C_21
REMARK    4  A    between atoms: N_26  and  C_29
REMARK    5  A    between atoms: C_30  and  C_35
REMARK    6  A    between atoms: C_35  and  N_36
REMARK                            x       y       z     vdW  Elec       q    Type
REMARK                         _______ _______ _______ _____ _____    ______ ____
ROOT
ATOM      1  C   UNL     1      35.130 -23.179 -16.317  0.00  0.00    +0.014 C 
ATOM      2  C   UNL     1      36.109 -22.396 -16.976  0.00  0.00    +0.001 C 
ATOM      3  C   UNL     1      33.817 -23.196 -16.813  0.00  0.00    +0.057 C 
ATOM      4  C   UNL     1      34.433 -21.682 -18.589  0.00  0.00    +0.055 C 
ATOM      5  C   UNL     1      35.744 -21.653 -18.111  0.00  0.00    +0.005 C 
ATOM      6  C   UNL     1      33.472 -22.452 -17.942  0.00  0.00    +0.020 C 
ATOM      7  C   UNL     1      35.495 -23.922 -15.183  0.00  0.00    +0.004 C 
ATOM      8  C   UNL     1      37.422 -22.379 -16.480  0.00  0.00    +0.000 C 
ATOM      9  C   UNL     1      36.806 -23.893 -14.703  0.00  0.00    +0.031 C 
ATOM     10  C   UNL     1      37.768 -23.123 -15.351  0.00  0.00    +0.003 C 
ENDROOT
BRANCH   3  11
ATOM     11  N   UNL     1      32.799 -23.962 -16.193  0.00  0.00    -0.257 N 
ATOM     12  N   UNL     1      30.928 -22.575 -16.475  0.00  0.00    -0.180 NA
ATOM     13  N   UNL     1      30.736 -24.697 -15.350  0.00  0.00    -0.203 NA
ATOM     14  C   UNL     1      31.427 -23.735 -15.998  0.00  0.00    +0.091 C 
ATOM     15  C   UNL     1      29.608 -22.389 -16.271  0.00  0.00    +0.108 C 
ATOM     16  C   UNL     1      29.421 -24.446 -15.179  0.00  0.00    +0.165 C 
ATOM     17  C   UNL     1      28.797 -23.298 -15.623  0.00  0.00    +0.022 C 
ATOM     18  H   UNL     1      33.116 -24.820 -15.827  0.00  0.00    +0.164 HD
ENDBRANCH   3  11
BRANCH   9  21
ATOM     19  N   UNL     1      36.400 -25.754 -13.111  0.00  0.00    -0.343 N 
ATOM     20  N   UNL     1      38.241 -24.343 -12.830  0.00  0.00    -0.285 NA
ATOM     21  C   UNL     1      37.168 -24.668 -13.527  0.00  0.00    +0.117 C 
ATOM     22  H   UNL     1      36.663 -26.265 -12.312  0.00  0.00    +0.144 HD
ATOM     23  H   UNL     1      35.594 -26.011 -13.616  0.00  0.00    +0.144 HD
ATOM     24  H   UNL     1      38.488 -24.867 -12.033  0.00  0.00    +0.188 HD
ENDBRANCH   9  21
BRANCH   4  27
ATOM     25  O   UNL     1      32.912 -20.976 -20.201  0.00  0.00    -0.270 OA
ATOM     26  N   UNL     1      35.090 -20.110 -20.309  0.00  0.00    -0.280 N 
ATOM     27  C   UNL     1      34.073 -20.907 -19.766  0.00  0.00    +0.250 C 
ATOM     28  H   UNL     1      35.962 -20.161 -19.855  0.00  0.00    +0.155 HD
BRANCH  26  29
ATOM     29  C   UNL     1      35.028 -19.240 -21.425  0.00  0.00    +0.051 C 
ATOM     30  C   UNL     1      34.907 -17.541 -23.607  0.00  0.00    -0.044 C 
ATOM     31  C   UNL     1      35.145 -17.876 -21.227  0.00  0.00    +0.014 C 
ATOM     32  C   UNL     1      34.851 -19.775 -22.690  0.00  0.00    +0.014 C 
ATOM     33  C   UNL     1      35.084 -17.019 -22.326  0.00  0.00    -0.005 C 
ATOM     34  C   UNL     1      34.790 -18.919 -23.789  0.00  0.00    -0.005 C 
BRANCH  30  35
ATOM     35  C   UNL     1      34.842 -16.625 -24.782  0.00  0.00    -0.059 C 
BRANCH  35  36
ATOM     36  N   UNL     1      34.185 -15.381 -24.472  0.00  0.00    +0.383 N 
ATOM     37  H   UNL     1      33.178 -15.531 -24.421  0.00  0.00    -0.089 HD
ATOM     38  H   UNL     1      34.391 -14.697 -25.200  0.00  0.00    -0.089 HD
ATOM     39  H   UNL     1      34.523 -15.034 -23.574  0.00  0.00    -0.089 HD
ENDBRANCH  35  36
ENDBRANCH  30  35
ENDBRANCH  26  29
ENDBRANCH   4  27
TORSDOF 6
ENDMDL
MODEL 2
REMARK VINA RESULT:     -12.3      1.707      4.575
REMARK  Name = 448605
REMARK  6 active torsions:
REMARK  status: ('A' for Active; 'I' for Inactive)
REMARK    1  A    between atoms: C_3  and  N_11
REMARK    2  A    between atoms: C_4  and  C_27
REMARK    3  A    between atoms: C_9  and  C_21
REMARK    4  A    between atoms: N_26  and  C_29
REMARK    5  A    between atoms: C_30  and  C_35
REMARK    6  A    between atoms: C_35  and  N_36
REMARK                            x       y       z     vdW  Elec       q    Type
REMARK                         _______ _______ _______ _____ _____    ______ ____
ROOT
ATOM      1  C   UNL     1      34.376 -23.056 -16.097  0.00  0.00    +0.014 C 
ATOM      2  C   UNL     1      33.407 -22.785 -17.093  0.00  0.00    +0.001 C 
ATOM      3  C   UNL     1      35.710 -22.674 -16.316  0.00  0.00    +0.057 C 
ATOM      4  C   UNL     1      35.131 -21.770 -18.478  0.00  0.00    +0.055 C 
ATOM      5  C   UNL     1      33.801 -22.141 -18.278  0.00  0.00    +0.005 C 
ATOM      6  C   UNL     1      36.084 -22.035 -17.498  0.00  0.00    +0.020 C 
ATOM      7  C   UNL     1      33.983 -23.699 -14.913  0.00  0.00    +0.004 C 
ATOM      8  C   UNL     1      32.074 -23.166 -16.875  0.00  0.00    +0.000 C 
ATOM      9  C   UNL     1      32.652 -24.071 -14.713  0.00  0.00    +0.031 C 
ATOM     10  C   UNL     1      31.699 -23.804 -15.692  0.00  0.00    +0.003 C 
ENDROOT
BRANCH   3  11
ATOM     11  N   UNL     1      36.719 -22.920 -15.352  0.00  0.00    -0.257 N 
ATOM     12  N   UNL     1      36.658 -25.260 -15.195  0.00  0.00    -0.180 NA
ATOM     13  N   UNL     1      38.204 -23.971 -13.871  0.00  0.00    -0.203 NA
ATOM     14  C   UNL     1      37.216 -24.103 -14.781  0.00  0.00    +0.091 C 
ATOM     15  C   UNL     1      37.159 -26.376 -14.626  0.00  0.00    +0.108 C 
ATOM     16  C   UNL     1      38.658 -25.127 -13.341  0.00  0.00    +0.165 C 
ATOM     17  C   UNL     1      38.169 -26.370 -13.685  0.00  0.00    +0.022 C 
ATOM     18  H   UNL     1      37.156 -22.104 -15.019  0.00  0.00    +0.164 HD
ENDBRANCH   3  11
BRANCH   9  21
ATOM     19  N   UNL     1      30.930 -25.064 -13.226  0.00  0.00    -0.343 N 
ATOM     20  N   UNL     1      33.174 -25.035 -12.575  0.00  0.00    -0.285 NA
ATOM     21  C   UNL     1      32.260 -24.736 -13.480  0.00  0.00    +0.117 C 
ATOM     22  H   UNL     1      30.686 -25.514 -12.385  0.00  0.00    +0.144 HD
ATOM     23  H   UNL     1      30.233 -24.847 -13.887  0.00  0.00    +0.144 HD
ATOM     24  H   UNL     1      32.910 -25.486 -11.740  0.00  0.00    +0.188 HD
ENDBRANCH   9  21
BRANCH   4  27
ATOM     25  O   UNL     1      36.518 -21.513 -20.327  0.00  0.00    -0.270 OA
ATOM     26  N   UNL     1      34.703 -20.041 -20.117  0.00  0.00    -0.280 N 
ATOM     27  C   UNL     1      35.522 -21.104 -19.710  0.00  0.00    +0.250 C 
ATOM     28  H   UNL     1      33.948 -19.831 -19.522  0.00  0.00    +0.155 HD
BRANCH  26  29
ATOM     29  C   UNL     1      34.820 -19.231 -21.273  0.00  0.00    +0.051 C 
ATOM     30  C   UNL     1      35.048 -17.646 -23.532  0.00  0.00    -0.044 C 
ATOM     31  C   UNL     1      34.569 -19.785 -22.516  0.00  0.00    +0.014 C 
ATOM     32  C   UNL     1      35.184 -17.902 -21.134  0.00  0.00    +0.014 C 
ATOM     33  C   UNL     1      34.684 -18.987 -23.654  0.00  0.00    -0.005 C 
ATOM     34  C   UNL     1      35.298 -17.104 -22.271  0.00  0.00    -0.005 C 
BRANCH  30  35
ATOM     35  C   UNL     1      35.171 -16.794 -24.749  0.00  0.00    -0.059 C 
BRANCH  35  36
ATOM     36  N   UNL     1      34.280 -15.661 -24.716  0.00  0.00    +0.383 N 
ATOM     37  H   UNL     1      33.690 -15.716 -23.887  0.00  0.00    -0.089 HD
ATOM     38  H   UNL     1      33.695 -15.665 -25.552  0.00  0.00    -0.089 HD
ATOM     39  H   UNL     1      34.827 -14.800 -24.689  0.00  0.00    -0.089 HD
ENDBRANCH  35  36
ENDBRANCH  30  35
ENDBRANCH  26  29
ENDBRANCH   4  27
TORSDOF 6
ENDMDL
MODEL 3
REMARK VINA RESULT:     -11.1      1.284      1.658
REMARK  Name = 448605
REMARK  6 active torsions:
REMARK  status: ('A' for Active; 'I' for Inactive)
REMARK    1  A    between atoms: C_3  and  N_11
REMARK    2  A    between atoms: C_4  and  C_27
REMARK    3  A    between atoms: C_9  and  C_21
REMARK    4  A    between atoms: N_26  and  C_29
REMARK    5  A    between atoms: C_30  and  C_35
REMARK    6  A    between atoms: C_35  and  N_36
REMARK                            x       y       z     vdW  Elec       q    Type
REMARK                         _______ _______ _______ _____ _____    ______ ____
ROOT
ATOM      1  C   UNL     1      35.022 -23.692 -14.912  0.00  0.00    +0.014 C 
ATOM      2  C   UNL     1      36.108 -23.090 -15.593  0.00  0.00    +0.001 C 
ATOM      3  C   UNL     1      33.759 -23.719 -15.523  0.00  0.00    +0.057 C 
ATOM      4  C   UNL     1      34.634 -22.567 -17.456  0.00  0.00    +0.055 C 
ATOM      5  C   UNL     1      35.897 -22.532 -16.865  0.00  0.00    +0.005 C 
ATOM      6  C   UNL     1      33.567 -23.160 -16.787  0.00  0.00    +0.020 C 
ATOM      7  C   UNL     1      35.233 -24.251 -13.641  0.00  0.00    +0.004 C 
ATOM      8  C   UNL     1      37.372 -23.063 -14.981  0.00  0.00    +0.000 C 
ATOM      9  C   UNL     1      36.497 -24.215 -13.049  0.00  0.00    +0.031 C 
ATOM     10  C   UNL     1      37.564 -23.623 -13.718  0.00  0.00    +0.003 C 
ENDROOT
BRANCH   3  11
ATOM     11  N   UNL     1      32.639 -24.309 -14.887  0.00  0.00    -0.257 N 
ATOM     12  N   UNL     1      30.860 -23.233 -15.974  0.00  0.00    -0.180 NA
ATOM     13  N   UNL     1      30.450 -24.872 -14.257  0.00  0.00    -0.203 NA
ATOM     14  C   UNL     1      31.255 -24.130 -15.047  0.00  0.00    +0.091 C 
ATOM     15  C   UNL     1      29.525 -23.086 -16.101  0.00  0.00    +0.108 C 
ATOM     16  C   UNL     1      29.127 -24.675 -14.436  0.00  0.00    +0.165 C 
ATOM     17  C   UNL     1      28.602 -23.787 -15.352  0.00  0.00    +0.022 C 
ATOM     18  H   UNL     1      32.877 -24.972 -14.200  0.00  0.00    +0.164 HD
ENDBRANCH   3  11
BRANCH   9  21
ATOM     19  N   UNL     1      36.812 -24.000 -10.595  0.00  0.00    -0.343 N 
ATOM     20  N   UNL     1      36.783 -26.110 -11.599  0.00  0.00    -0.285 NA
ATOM     21  C   UNL     1      36.699 -24.799 -11.732  0.00  0.00    +0.117 C 
ATOM     22  H   UNL     1      36.949 -24.415  -9.714  0.00  0.00    +0.144 HD
ATOM     23  H   UNL     1      36.755 -23.020 -10.674  0.00  0.00    +0.144 HD
ATOM     24  H   UNL     1      36.920 -26.507 -10.708  0.00  0.00    +0.188 HD
ENDBRANCH   9  21
BRANCH   4  27
ATOM     25  O   UNL     1      33.508 -22.408 -19.485  0.00  0.00    -0.270 OA
ATOM     26  N   UNL     1      35.311 -20.951 -19.125  0.00  0.00    -0.280 N 
ATOM     27  C   UNL     1      34.432 -21.984 -18.774  0.00  0.00    +0.250 C 
ATOM     28  H   UNL     1      35.996 -20.725 -18.456  0.00  0.00    +0.155 HD
BRANCH  26  29
ATOM     29  C   UNL     1      35.342 -20.187 -20.319  0.00  0.00    +0.051 C 
ATOM     30  C   UNL     1      35.402 -18.697 -22.651  0.00  0.00    -0.044 C 
ATOM     31  C   UNL     1      36.501 -19.513 -20.660  0.00  0.00    +0.014 C 
ATOM     32  C   UNL     1      34.211 -20.134 -21.117  0.00  0.00    +0.014 C 
ATOM     33  C   UNL     1      36.531 -18.761 -21.835  0.00  0.00    -0.005 C 
ATOM     34  C   UNL     1      34.242 -19.384 -22.292  0.00  0.00    -0.005 C 
BRANCH  30  35
ATOM     35  C   UNL     1      35.435 -17.895 -23.907  0.00  0.00    -0.059 C 
BRANCH  35  36
ATOM     36  N   UNL     1      35.680 -16.497 -23.658  0.00  0.00    +0.383 N 
ATOM     37  H   UNL     1      34.800 -16.031 -23.438  0.00  0.00    -0.089 HD
ATOM     38  H   UNL     1      36.092 -16.071 -24.489  0.00  0.00    -0.089 HD
ATOM     39  H   UNL     1      36.322 -16.400 -22.872  0.00  0.00    -0.089 HD
ENDBRANCH  35  36
ENDBRANCH  30  35
ENDBRANCH  26  29
ENDBRANCH   4  27
TORSDOF 6
ENDMDL
MODEL 4
REMARK VINA RESULT:     -10.8      1.707      4.369
REMARK  Name = 448605
REMARK  6 active torsions:
REMARK  status: ('A' for Active; 'I' for Inactive)
REMARK    1  A    between atoms: C_3  and  N_11
REMARK    2  A    between atoms: C_4  and  C_27
REMARK    3  A    between atoms: C_9  and  C_21
REMARK    4  A    between atoms: N_26  and  C_29
REMARK    5  A    between atoms: C_30  and  C_35
REMARK    6  A    between atoms: C_35  and  N_36
REMARK                            x       y       z     vdW  Elec       q    Type
REMARK                         _______ _______ _______ _____ _____    ______ ____
ROOT
ATOM      1  C   UNL     1      34.538 -23.197 -16.344  0.00  0.00    +0.014 C 
ATOM      2  C   UNL     1      33.553 -22.618 -17.181  0.00  0.00    +0.001 C 
ATOM      3  C   UNL     1      35.895 -23.000 -16.643  0.00  0.00    +0.057 C 
ATOM      4  C   UNL     1      35.311 -21.677 -18.576  0.00  0.00    +0.055 C 
ATOM      5  C   UNL     1      33.957 -21.861 -18.293  0.00  0.00    +0.005 C 
ATOM      6  C   UNL     1      36.279 -22.245 -17.752  0.00  0.00    +0.020 C 
ATOM      7  C   UNL     1      34.134 -23.953 -15.232  0.00  0.00    +0.004 C 
ATOM      8  C   UNL     1      32.196 -22.814 -16.882  0.00  0.00    +0.000 C 
ATOM      9  C   UNL     1      32.780 -24.137 -14.949  0.00  0.00    +0.031 C 
ATOM     10  C   UNL     1      31.813 -23.569 -15.773  0.00  0.00    +0.003 C 
ENDROOT
BRANCH   3  11
ATOM     11  N   UNL     1      36.920 -23.556 -15.838  0.00  0.00    -0.257 N 
ATOM     12  N   UNL     1      36.138 -23.074 -13.680  0.00  0.00    -0.180 NA
ATOM     13  N   UNL     1      38.220 -24.241 -14.008  0.00  0.00    -0.203 NA
ATOM     14  C   UNL     1      37.100 -23.627 -14.447  0.00  0.00    +0.091 C 
ATOM     15  C   UNL     1      36.342 -23.160 -12.349  0.00  0.00    +0.108 C 
ATOM     16  C   UNL     1      38.361 -24.291 -12.667  0.00  0.00    +0.165 C 
ATOM     17  C   UNL     1      37.446 -23.762 -11.780  0.00  0.00    +0.022 C 
ATOM     18  H   UNL     1      37.648 -23.972 -16.354  0.00  0.00    +0.164 HD
ENDBRANCH   3  11
BRANCH   9  21
ATOM     19  N   UNL     1      33.233 -25.106 -12.708  0.00  0.00    -0.343 N 
ATOM     20  N   UNL     1      31.182 -25.484 -13.762  0.00  0.00    -0.285 NA
ATOM     21  C   UNL     1      32.378 -24.923 -13.793  0.00  0.00    +0.117 C 
ATOM     22  H   UNL     1      32.942 -25.642 -11.936  0.00  0.00    +0.144 HD
ATOM     23  H   UNL     1      34.130 -24.699 -12.714  0.00  0.00    +0.144 HD
ATOM     24  H   UNL     1      30.909 -26.016 -12.980  0.00  0.00    +0.188 HD
ENDBRANCH   9  21
BRANCH   4  27
ATOM     25  O   UNL     1      36.844 -21.058 -20.212  0.00  0.00    -0.270 OA
ATOM     26  N   UNL     1      34.749 -20.001 -20.229  0.00  0.00    -0.280 N 
ATOM     27  C   UNL     1      35.712 -20.890 -19.731  0.00  0.00    +0.250 C 
ATOM     28  H   UNL     1      33.896 -19.977 -19.740  0.00  0.00    +0.155 HD
BRANCH  26  29
ATOM     29  C   UNL     1      34.844 -19.132 -21.344  0.00  0.00    +0.051 C 
ATOM     30  C   UNL     1      35.030 -17.435 -23.523  0.00  0.00    -0.044 C 
ATOM     31  C   UNL     1      35.068 -17.783 -21.133  0.00  0.00    +0.014 C 
ATOM     32  C   UNL     1      34.711 -19.653 -22.620  0.00  0.00    +0.014 C 
ATOM     33  C   UNL     1      35.162 -16.928 -22.231  0.00  0.00    -0.005 C 
ATOM     34  C   UNL     1      34.805 -18.798 -23.717  0.00  0.00    -0.005 C 
BRANCH  30  35
ATOM     35  C   UNL     1      35.131 -16.521 -24.697  0.00  0.00    -0.059 C 
BRANCH  35  36
ATOM     36  N   UNL     1      34.127 -15.487 -24.674  0.00  0.00    +0.383 N 
ATOM     37  H   UNL     1      33.645 -15.460 -25.572  0.00  0.00    -0.089 HD
ATOM     38  H   UNL     1      34.572 -14.586 -24.499  0.00  0.00    -0.089 HD
ATOM     39  H   UNL     1      33.455 -15.684 -23.932  0.00  0.00    -0.089 HD
ENDBRANCH  35  36
ENDBRANCH  30  35
ENDBRANCH  26  29
ENDBRANCH   4  27
TORSDOF 6
ENDMDL
MODEL 5
REMARK VINA RESULT:      -9.7      9.596     17.006
REMARK  Name = 448605
REMARK  6 active torsions:
REMARK  status: ('A' for Active; 'I' for Inactive)
REMARK    1  A    between atoms: C_3  and  N_11
REMARK    2  A    between atoms: C_4  and  C_27
REMARK    3  A    between atoms: C_9  and  C_21
REMARK    4  A    between atoms: N_26  and  C_29
REMARK    5  A    between atoms: C_30  and  C_35
REMARK    6  A    between atoms: C_35  and  N_36
REMARK                            x       y       z     vdW  Elec       q    Type
REMARK                         _______ _______ _______ _____ _____    ______ ____
ROOT
ATOM      1  C   UNL     1      32.527  -6.305 -23.116  0.00  0.00    +0.014 C 
ATOM      2  C   UNL     1      31.492  -7.006 -22.453  0.00  0.00    +0.001 C 
ATOM      3  C   UNL     1      33.632  -7.017 -23.610  0.00  0.00    +0.057 C 
ATOM      4  C   UNL     1      32.698  -9.091 -22.800  0.00  0.00    +0.055 C 
ATOM      5  C   UNL     1      31.592  -8.400 -22.303  0.00  0.00    +0.005 C 
ATOM      6  C   UNL     1      33.716  -8.401 -23.453  0.00  0.00    +0.020 C 
ATOM      7  C   UNL     1      32.426  -4.913 -23.266  0.00  0.00    +0.004 C 
ATOM      8  C   UNL     1      30.387  -6.295 -21.958  0.00  0.00    +0.000 C 
ATOM      9  C   UNL     1      31.320  -4.221 -22.768  0.00  0.00    +0.031 C 
ATOM     10  C   UNL     1      30.303  -4.911 -22.117  0.00  0.00    +0.003 C 
ENDROOT
BRANCH   3  11
ATOM     11  N   UNL     1      34.695  -6.365 -24.282  0.00  0.00    -0.257 N 
ATOM     12  N   UNL     1      33.596  -5.483 -26.158  0.00  0.00    -0.180 NA
ATOM     13  N   UNL     1      35.958  -5.137 -25.832  0.00  0.00    -0.203 NA
ATOM     14  C   UNL     1      34.752  -5.629 -25.477  0.00  0.00    +0.091 C 
ATOM     15  C   UNL     1      33.687  -4.771 -27.300  0.00  0.00    +0.108 C 
ATOM     16  C   UNL     1      35.977  -4.436 -26.985  0.00  0.00    +0.165 C 
ATOM     17  C   UNL     1      34.861  -4.218 -27.768  0.00  0.00    +0.022 C 
ATOM     18  H   UNL     1      35.562  -6.443 -23.822  0.00  0.00    +0.164 HD
ENDBRANCH   3  11
BRANCH   9  21
ATOM     19  N   UNL     1      30.326  -2.020 -22.191  0.00  0.00    -0.343 N 
ATOM     20  N   UNL     1      32.014  -2.165 -23.800  0.00  0.00    -0.285 NA
ATOM     21  C   UNL     1      31.230  -2.779 -22.932  0.00  0.00    +0.117 C 
ATOM     22  H   UNL     1      30.281  -1.045 -22.318  0.00  0.00    +0.144 HD
ATOM     23  H   UNL     1      29.731  -2.460 -21.541  0.00  0.00    +0.144 HD
ATOM     24  H   UNL     1      31.955  -1.188 -23.912  0.00  0.00    +0.188 HD
ENDBRANCH   9  21
BRANCH   4  27
ATOM     25  O   UNL     1      32.134 -11.079 -21.734  0.00  0.00    -0.270 OA
ATOM     26  N   UNL     1      33.608 -11.202 -23.555  0.00  0.00    -0.280 N 
ATOM     27  C   UNL     1      32.787 -10.533 -22.637  0.00  0.00    +0.250 C 
ATOM     28  H   UNL     1      34.065 -10.633 -24.216  0.00  0.00    +0.155 HD
BRANCH  26  29
ATOM     29  C   UNL     1      33.867 -12.592 -23.657  0.00  0.00    +0.051 C 
ATOM     30  C   UNL     1      34.374 -15.306 -23.856  0.00  0.00    -0.044 C 
ATOM     31  C   UNL     1      33.605 -13.243 -24.850  0.00  0.00    +0.014 C 
ATOM     32  C   UNL     1      34.376 -13.267 -22.560  0.00  0.00    +0.014 C 
ATOM     33  C   UNL     1      33.860 -14.611 -24.950  0.00  0.00    -0.005 C 
ATOM     34  C   UNL     1      34.632 -14.634 -22.661  0.00  0.00    -0.005 C 
BRANCH  30  35
ATOM     35  C   UNL     1      34.646 -16.768 -23.963  0.00  0.00    -0.059 C 
BRANCH  35  36
ATOM     36  N   UNL     1      35.773 -17.176 -23.163  0.00  0.00    +0.383 N 
ATOM     37  H   UNL     1      36.629 -16.784 -23.554  0.00  0.00    -0.089 HD
ATOM     38  H   UNL     1      35.836 -18.194 -23.159  0.00  0.00    -0.089 HD
ATOM     39  H   UNL     1      35.650 -16.839 -22.208  0.00  0.00    -0.089 HD
ENDBRANCH  35  36
ENDBRANCH  30  35
ENDBRANCH  26  29
ENDBRANCH   4  27
TORSDOF 6
ENDMDL
