MODEL 1
REMARK VINA RESULT:     -11.7      0.000      0.000
REMARK  Name = 66000
REMARK  8 active torsions:
REMARK  status: ('A' for Active; 'I' for Inactive)
REMARK    1  A    between atoms: C_1  and  O_19
REMARK    2  A    between atoms: C_4  and  C_7
REMARK    3  A    between atoms: C_10  and  C_15
REMARK    4  A    between atoms: O_19  and  C_20
REMARK    5  A    between atoms: C_20  and  C_24
REMARK    6  A    between atoms: C_23  and  C_28
REMARK    7  A    between atoms: C_28  and  C_30
REMARK    8  A    between atoms: C_30  and  O_31
REMARK                            x       y       z     vdW  Elec       q    Type
REMARK                         _______ _______ _______ _____ _____    ______ ____
ROOT
ATOM      1  C   UNL     1      34.592 -22.316 -18.574  0.00  0.00    +0.139 C 
ATOM      2  C   UNL     1      33.417 -21.716 -19.013  0.00  0.00    +0.037 C 
ATOM      3  C   UNL     1      35.826 -21.901 -19.058  0.00  0.00    +0.037 C 
ATOM      4  C   UNL     1      34.714 -20.264 -20.442  0.00  0.00    +0.000 C 
ATOM      5  C   UNL     1      33.479 -20.687 -19.951  0.00  0.00    +0.003 C 
ATOM      6  C   UNL     1      35.888 -20.872 -19.997  0.00  0.00    +0.003 C 
ENDROOT
BRANCH   4   7
ATOM      7  C   UNL     1      34.778 -19.196 -21.416  0.00  0.00    +0.000 C 
ATOM      8  C   UNL     1      34.890 -17.871 -20.992  0.00  0.00    +0.000 C 
ATOM      9  C   UNL     1      34.730 -19.490 -22.779  0.00  0.00    +0.000 C 
ATOM     10  C   UNL     1      34.905 -17.136 -23.293  0.00  0.00    +0.031 C 
ATOM     11  C   UNL     1      34.953 -16.841 -21.931  0.00  0.00    +0.003 C 
ATOM     12  C   UNL     1      34.793 -18.459 -23.718  0.00  0.00    +0.003 C 
BRANCH  10  15
ATOM     13  N   UNL     1      34.949 -14.723 -23.883  0.00  0.00    -0.343 N 
ATOM     14  N   UNL     1      35.047 -16.348 -25.560  0.00  0.00    -0.285 NA
ATOM     15  C   UNL     1      34.970 -16.061 -24.272  0.00  0.00    +0.117 C 
ATOM     16  H   UNL     1      34.993 -14.013 -24.563  0.00  0.00    +0.144 HD
ATOM     17  H   UNL     1      34.888 -14.490 -22.929  0.00  0.00    +0.144 HD
ATOM     18  H   UNL     1      35.091 -15.623 -26.224  0.00  0.00    +0.188 HD
ENDBRANCH  10  15
ENDBRANCH   4   7
BRANCH   1  19
ATOM     19  O   UNL     1      34.531 -23.331 -17.651  0.00  0.00    -0.474 OA
BRANCH  19  20
ATOM     20  C   UNL     1      33.778 -23.087 -16.476  0.00  0.00    +0.225 C 
BRANCH  20  24
ATOM     21  O   UNL     1      34.228 -24.686 -12.413  0.00  0.00    -0.275 OA
ATOM     22  N   UNL     1      34.139 -23.021 -14.056  0.00  0.00    -0.302 N 
ATOM     23  C   UNL     1      35.543 -24.847 -14.466  0.00  0.00    +0.089 C 
ATOM     24  C   UNL     1      34.738 -22.756 -15.342  0.00  0.00    +0.116 C 
ATOM     25  C   UNL     1      35.971 -23.653 -15.326  0.00  0.00    +0.033 C 
ATOM     26  C   UNL     1      34.577 -24.213 -13.484  0.00  0.00    +0.223 C 
ATOM     27  H   UNL     1      33.488 -22.421 -13.627  0.00  0.00    +0.149 HD
BRANCH  23  28
ATOM     28  C   UNL     1      36.708 -25.540 -13.784  0.00  0.00    +0.118 C 
BRANCH  28  30
ATOM     29  O   UNL     1      38.195 -27.392 -14.331  0.00  0.00    -0.250 OA
ATOM     30  C   UNL     1      37.191 -26.737 -14.563  0.00  0.00    +0.314 C 
BRANCH  30  31
ATOM     31  O   UNL     1      36.338 -27.001 -15.587  0.00  0.00    -0.480 OA
ATOM     32  H   UNL     1      35.974 -26.298 -16.087  0.00  0.00    +0.295 HD
ENDBRANCH  30  31
ENDBRANCH  28  30
ENDBRANCH  23  28
ENDBRANCH  20  24
ENDBRANCH  19  20
ENDBRANCH   1  19
TORSDOF 8
ENDMDL
MODEL 2
REMARK VINA RESULT:     -11.4      1.455      2.063
REMARK  Name = 66000
REMARK  8 active torsions:
REMARK  status: ('A' for Active; 'I' for Inactive)
REMARK    1  A    between atoms: C_1  and  O_19
REMARK    2  A    between atoms: C_4  and  C_7
REMARK    3  A    between atoms: C_10  and  C_15
REMARK    4  A    between atoms: O_19  and  C_20
REMARK    5  A    between atoms: C_20  and  C_24
REMARK    6  A    between atoms: C_23  and  C_28
REMARK    7  A    between atoms: C_28  and  C_30
REMARK    8  A    between atoms: C_30  and  O_31
REMARK                            x       y       z     vdW  Elec       q    Type
REMARK                         _______ _______ _______ _____ _____    ______ ____
ROOT
ATOM      1  C   UNL     1      34.891 -22.231 -18.425  0.00  0.00    +0.139 C 
ATOM      2  C   UNL     1      33.684 -21.738 -18.906  0.00  0.00    +0.037 C 
ATOM      3  C   UNL     1      36.100 -21.747 -18.907  0.00  0.00    +0.037 C 
ATOM      4  C   UNL     1      34.897 -20.255 -20.378  0.00  0.00    +0.000 C 
ATOM      5  C   UNL     1      33.687 -20.746 -19.887  0.00  0.00    +0.003 C 
ATOM      6  C   UNL     1      36.103 -20.756 -19.889  0.00  0.00    +0.003 C 
ENDROOT
BRANCH   4   7
ATOM      7  C   UNL     1      34.901 -19.227 -21.396  0.00  0.00    +0.000 C 
ATOM      8  C   UNL     1      35.008 -17.885 -21.032  0.00  0.00    +0.000 C 
ATOM      9  C   UNL     1      34.798 -19.578 -22.743  0.00  0.00    +0.000 C 
ATOM     10  C   UNL     1      34.911 -17.245 -23.359  0.00  0.00    +0.031 C 
ATOM     11  C   UNL     1      35.013 -16.893 -22.013  0.00  0.00    +0.003 C 
ATOM     12  C   UNL     1      34.803 -18.586 -23.724  0.00  0.00    +0.003 C 
BRANCH  10  15
ATOM     13  N   UNL     1      34.977 -14.859 -24.048  0.00  0.00    -0.343 N 
ATOM     14  N   UNL     1      34.855 -16.548 -25.659  0.00  0.00    -0.285 NA
ATOM     15  C   UNL     1      34.915 -16.211 -24.382  0.00  0.00    +0.117 C 
ATOM     16  H   UNL     1      34.978 -14.177 -24.757  0.00  0.00    +0.144 HD
ATOM     17  H   UNL     1      35.019 -14.588 -23.103  0.00  0.00    +0.144 HD
ATOM     18  H   UNL     1      34.858 -15.851 -26.353  0.00  0.00    +0.188 HD
ENDBRANCH  10  15
ENDBRANCH   4   7
BRANCH   1  19
ATOM     19  O   UNL     1      34.887 -23.207 -17.460  0.00  0.00    -0.474 OA
BRANCH  19  20
ATOM     20  C   UNL     1      35.251 -22.815 -16.148  0.00  0.00    +0.225 C 
BRANCH  20  24
ATOM     21  O   UNL     1      38.718 -24.334 -13.925  0.00  0.00    -0.275 OA
ATOM     22  N   UNL     1      36.849 -24.478 -15.326  0.00  0.00    -0.302 N 
ATOM     23  C   UNL     1      36.563 -23.378 -13.281  0.00  0.00    +0.089 C 
ATOM     24  C   UNL     1      35.466 -24.067 -15.307  0.00  0.00    +0.116 C 
ATOM     25  C   UNL     1      35.206 -23.839 -13.823  0.00  0.00    +0.033 C 
ATOM     26  C   UNL     1      37.540 -24.124 -14.170  0.00  0.00    +0.223 C 
ATOM     27  H   UNL     1      37.262 -24.960 -16.078  0.00  0.00    +0.149 HD
BRANCH  23  28
ATOM     28  C   UNL     1      36.754 -23.685 -11.807  0.00  0.00    +0.118 C 
BRANCH  28  30
ATOM     29  O   UNL     1      36.888 -26.110 -11.598  0.00  0.00    -0.250 OA
ATOM     30  C   UNL     1      36.269 -25.067 -11.449  0.00  0.00    +0.314 C 
BRANCH  30  31
ATOM     31  O   UNL     1      35.019 -25.001 -10.923  0.00  0.00    -0.480 OA
ATOM     32  H   UNL     1      34.724 -24.211 -10.515  0.00  0.00    +0.295 HD
ENDBRANCH  30  31
ENDBRANCH  28  30
ENDBRANCH  23  28
ENDBRANCH  20  24
ENDBRANCH  19  20
ENDBRANCH   1  19
TORSDOF 8
ENDMDL
MODEL 3
REMARK VINA RESULT:     -11.4      2.049      3.644
REMARK  Name = 66000
REMARK  8 active torsions:
REMARK  status: ('A' for Active; 'I' for Inactive)
REMARK    1  A    between atoms: C_1  and  O_19
REMARK    2  A    between atoms: C_4  and  C_7
REMARK    3  A    between atoms: C_10  and  C_15
REMARK    4  A    between atoms: O_19  and  C_20
REMARK    5  A    between atoms: C_20  and  C_24
REMARK    6  A    between atoms: C_23  and  C_28
REMARK    7  A    between atoms: C_28  and  C_30
REMARK    8  A    between atoms: C_30  and  O_31
REMARK                            x       y       z     vdW  Elec       q    Type
REMARK                         _______ _______ _______ _____ _____    ______ ____
ROOT
ATOM      1  C   UNL     1      34.702 -23.586 -15.646  0.00  0.00    +0.139 C 
ATOM      2  C   UNL     1      35.880 -22.902 -15.922  0.00  0.00    +0.037 C 
ATOM      3  C   UNL     1      33.621 -23.521 -16.517  0.00  0.00    +0.037 C 
ATOM      4  C   UNL     1      34.898 -22.069 -17.965  0.00  0.00    +0.000 C 
ATOM      5  C   UNL     1      35.978 -22.141 -17.086  0.00  0.00    +0.003 C 
ATOM      6  C   UNL     1      33.719 -22.758 -17.680  0.00  0.00    +0.003 C 
ENDROOT
BRANCH   4   7
ATOM      7  C   UNL     1      34.999 -21.278 -19.172  0.00  0.00    +0.000 C 
ATOM      8  C   UNL     1      33.842 -20.873 -19.840  0.00  0.00    +0.000 C 
ATOM      9  C   UNL     1      36.252 -20.919 -19.669  0.00  0.00    +0.000 C 
ATOM     10  C   UNL     1      35.193 -19.750 -21.499  0.00  0.00    +0.031 C 
ATOM     11  C   UNL     1      33.939 -20.109 -21.003  0.00  0.00    +0.003 C 
ATOM     12  C   UNL     1      36.349 -20.155 -20.833  0.00  0.00    +0.003 C 
BRANCH  10  15
ATOM     13  N   UNL     1      36.125 -17.839 -22.782  0.00  0.00    -0.343 N 
ATOM     14  N   UNL     1      34.583 -19.285 -23.777  0.00  0.00    -0.285 NA
ATOM     15  C   UNL     1      35.294 -18.955 -22.712  0.00  0.00    +0.117 C 
ATOM     16  H   UNL     1      36.177 -17.314 -23.613  0.00  0.00    +0.144 HD
ATOM     17  H   UNL     1      36.660 -17.575 -21.999  0.00  0.00    +0.144 HD
ATOM     18  H   UNL     1      34.649 -18.748 -24.599  0.00  0.00    +0.188 HD
ENDBRANCH  10  15
ENDBRANCH   4   7
BRANCH   1  19
ATOM     19  O   UNL     1      34.605 -24.336 -14.500  0.00  0.00    -0.474 OA
BRANCH  19  20
ATOM     20  C   UNL     1      35.403 -23.934 -13.400  0.00  0.00    +0.225 C 
BRANCH  20  24
ATOM     21  O   UNL     1      37.641 -27.260 -15.189  0.00  0.00    -0.275 OA
ATOM     22  N   UNL     1      36.093 -26.257 -13.748  0.00  0.00    -0.302 N 
ATOM     23  C   UNL     1      38.249 -25.348 -13.793  0.00  0.00    +0.089 C 
ATOM     24  C   UNL     1      36.065 -25.167 -12.802  0.00  0.00    +0.116 C 
ATOM     25  C   UNL     1      37.543 -24.957 -12.490  0.00  0.00    +0.033 C 
ATOM     26  C   UNL     1      37.339 -26.427 -14.348  0.00  0.00    +0.223 C 
ATOM     27  H   UNL     1      35.313 -26.822 -13.948  0.00  0.00    +0.149 HD
BRANCH  23  28
ATOM     28  C   UNL     1      39.672 -25.829 -13.580  0.00  0.00    +0.118 C 
BRANCH  28  30
ATOM     29  O   UNL     1      41.354 -24.379 -14.583  0.00  0.00    -0.250 OA
ATOM     30  C   UNL     1      40.603 -25.339 -14.660  0.00  0.00    +0.314 C 
BRANCH  30  31
ATOM     31  O   UNL     1      40.498 -26.129 -15.760  0.00  0.00    -0.480 OA
ATOM     32  H   UNL     1      41.046 -26.883 -15.851  0.00  0.00    +0.295 HD
ENDBRANCH  30  31
ENDBRANCH  28  30
ENDBRANCH  23  28
ENDBRANCH  20  24
ENDBRANCH  19  20
ENDBRANCH   1  19
TORSDOF 8
ENDMDL
MODEL 4
REMARK VINA RESULT:     -11.3      2.253      3.931
REMARK  Name = 66000
REMARK  8 active torsions:
REMARK  status: ('A' for Active; 'I' for Inactive)
REMARK    1  A    between atoms: C_1  and  O_19
REMARK    2  A    between atoms: C_4  and  C_7
REMARK    3  A    between atoms: C_10  and  C_15
REMARK    4  A    between atoms: O_19  and  C_20
REMARK    5  A    between atoms: C_20  and  C_24
REMARK    6  A    between atoms: C_23  and  C_28
REMARK    7  A    between atoms: C_28  and  C_30
REMARK    8  A    between atoms: C_30  and  O_31
REMARK                            x       y       z     vdW  Elec       q    Type
REMARK                         _______ _______ _______ _____ _____    ______ ____
ROOT
ATOM      1  C   UNL     1      34.901 -22.228 -18.484  0.00  0.00    +0.139 C 
ATOM      2  C   UNL     1      36.109 -21.727 -18.955  0.00  0.00    +0.037 C 
ATOM      3  C   UNL     1      33.693 -21.740 -18.965  0.00  0.00    +0.037 C 
ATOM      4  C   UNL     1      34.900 -20.225 -20.408  0.00  0.00    +0.000 C 
ATOM      5  C   UNL     1      36.108 -20.722 -19.921  0.00  0.00    +0.003 C 
ATOM      6  C   UNL     1      33.692 -20.733 -19.930  0.00  0.00    +0.003 C 
ENDROOT
BRANCH   4   7
ATOM      7  C   UNL     1      34.898 -19.180 -21.410  0.00  0.00    +0.000 C 
ATOM      8  C   UNL     1      34.816 -19.511 -22.763  0.00  0.00    +0.000 C 
ATOM      9  C   UNL     1      34.977 -17.842 -21.023  0.00  0.00    +0.000 C 
ATOM     10  C   UNL     1      34.892 -17.167 -23.341  0.00  0.00    +0.031 C 
ATOM     11  C   UNL     1      34.814 -18.504 -23.729  0.00  0.00    +0.003 C 
ATOM     12  C   UNL     1      34.974 -16.835 -21.989  0.00  0.00    +0.003 C 
BRANCH  10  15
ATOM     13  N   UNL     1      34.918 -14.770 -23.993  0.00  0.00    -0.343 N 
ATOM     14  N   UNL     1      34.856 -16.436 -25.631  0.00  0.00    -0.285 NA
ATOM     15  C   UNL     1      34.890 -16.118 -24.348  0.00  0.00    +0.117 C 
ATOM     16  H   UNL     1      34.915 -14.077 -24.692  0.00  0.00    +0.144 HD
ATOM     17  H   UNL     1      34.939 -14.513 -23.044  0.00  0.00    +0.144 HD
ATOM     18  H   UNL     1      34.855 -15.728 -26.314  0.00  0.00    +0.188 HD
ENDBRANCH  10  15
ENDBRANCH   4   7
BRANCH   1  19
ATOM     19  O   UNL     1      34.903 -23.218 -17.533  0.00  0.00    -0.474 OA
BRANCH  19  20
ATOM     20  C   UNL     1      34.372 -22.889 -16.261  0.00  0.00    +0.225 C 
BRANCH  20  24
ATOM     21  O   UNL     1      32.077 -23.590 -12.585  0.00  0.00    -0.275 OA
ATOM     22  N   UNL     1      33.337 -24.190 -14.464  0.00  0.00    -0.302 N 
ATOM     23  C   UNL     1      31.517 -22.763 -14.816  0.00  0.00    +0.089 C 
ATOM     24  C   UNL     1      33.328 -23.931 -15.884  0.00  0.00    +0.116 C 
ATOM     25  C   UNL     1      31.900 -23.458 -16.127  0.00  0.00    +0.033 C 
ATOM     26  C   UNL     1      32.300 -23.554 -13.786  0.00  0.00    +0.223 C 
ATOM     27  H   UNL     1      34.007 -24.758 -14.020  0.00  0.00    +0.149 HD
BRANCH  23  28
ATOM     28  C   UNL     1      30.023 -22.767 -14.552  0.00  0.00    +0.118 C 
BRANCH  28  30
ATOM     29  O   UNL     1      28.970 -22.150 -16.661  0.00  0.00    -0.250 OA
ATOM     30  C   UNL     1      29.225 -22.989 -15.812  0.00  0.00    +0.314 C 
BRANCH  30  31
ATOM     31  O   UNL     1      28.816 -24.283 -15.883  0.00  0.00    -0.480 OA
ATOM     32  H   UNL     1      27.904 -24.489 -15.829  0.00  0.00    +0.295 HD
ENDBRANCH  30  31
ENDBRANCH  28  30
ENDBRANCH  23  28
ENDBRANCH  20  24
ENDBRANCH  19  20
ENDBRANCH   1  19
TORSDOF 8
ENDMDL
MODEL 5
REMARK VINA RESULT:     -11.2      2.071      3.737
REMARK  Name = 66000
REMARK  8 active torsions:
REMARK  status: ('A' for Active; 'I' for Inactive)
REMARK    1  A    between atoms: C_1  and  O_19
REMARK    2  A    between atoms: C_4  and  C_7
REMARK    3  A    between atoms: C_10  and  C_15
REMARK    4  A    between atoms: O_19  and  C_20
REMARK    5  A    between atoms: C_20  and  C_24
REMARK    6  A    between atoms: C_23  and  C_28
REMARK    7  A    between atoms: C_28  and  C_30
REMARK    8  A    between atoms: C_30  and  O_31
REMARK                            x       y       z     vdW  Elec       q    Type
REMARK                         _______ _______ _______ _____ _____    ______ ____
ROOT
ATOM      1  C   UNL     1      34.815 -23.637 -15.626  0.00  0.00    +0.139 C 
ATOM      2  C   UNL     1      35.994 -22.959 -15.911  0.00  0.00    +0.037 C 
ATOM      3  C   UNL     1      33.723 -23.555 -16.481  0.00  0.00    +0.037 C 
ATOM      4  C   UNL     1      34.989 -22.096 -17.931  0.00  0.00    +0.000 C 
ATOM      5  C   UNL     1      36.081 -22.186 -17.068  0.00  0.00    +0.003 C 
ATOM      6  C   UNL     1      33.809 -22.780 -17.637  0.00  0.00    +0.003 C 
ENDROOT
BRANCH   4   7
ATOM      7  C   UNL     1      35.079 -21.293 -19.132  0.00  0.00    +0.000 C 
ATOM      8  C   UNL     1      36.328 -20.939 -19.642  0.00  0.00    +0.000 C 
ATOM      9  C   UNL     1      33.917 -20.875 -19.780  0.00  0.00    +0.000 C 
ATOM     10  C   UNL     1      35.252 -19.748 -21.448  0.00  0.00    +0.031 C 
ATOM     11  C   UNL     1      36.415 -20.165 -20.800  0.00  0.00    +0.003 C 
ATOM     12  C   UNL     1      34.003 -20.102 -20.938  0.00  0.00    +0.003 C 
BRANCH  10  15
ATOM     13  N   UNL     1      34.613 -19.260 -23.798  0.00  0.00    -0.343 N 
ATOM     14  N   UNL     1      36.135 -17.883 -22.681  0.00  0.00    -0.285 NA
ATOM     15  C   UNL     1      35.343 -18.941 -22.655  0.00  0.00    +0.117 C 
ATOM     16  H   UNL     1      34.691 -18.701 -24.604  0.00  0.00    +0.144 HD
ATOM     17  H   UNL     1      34.021 -20.046 -23.799  0.00  0.00    +0.144 HD
ATOM     18  H   UNL     1      36.198 -17.335 -23.496  0.00  0.00    +0.188 HD
ENDBRANCH  10  15
ENDBRANCH   4   7
BRANCH   1  19
ATOM     19  O   UNL     1      34.729 -24.398 -14.487  0.00  0.00    -0.474 OA
BRANCH  19  20
ATOM     20  C   UNL     1      35.462 -23.952 -13.359  0.00  0.00    +0.225 C 
BRANCH  20  24
ATOM     21  O   UNL     1      37.730 -27.319 -15.030  0.00  0.00    -0.275 OA
ATOM     22  N   UNL     1      36.181 -26.279 -13.618  0.00  0.00    -0.302 N 
ATOM     23  C   UNL     1      38.324 -25.345 -13.717  0.00  0.00    +0.089 C 
ATOM     24  C   UNL     1      36.145 -25.152 -12.717  0.00  0.00    +0.116 C 
ATOM     25  C   UNL     1      37.622 -24.911 -12.426  0.00  0.00    +0.033 C 
ATOM     26  C   UNL     1      37.424 -26.457 -14.220  0.00  0.00    +0.223 C 
ATOM     27  H   UNL     1      35.406 -26.861 -13.789  0.00  0.00    +0.149 HD
BRANCH  23  28
ATOM     28  C   UNL     1      39.755 -25.799 -13.496  0.00  0.00    +0.118 C 
BRANCH  28  30
ATOM     29  O   UNL     1      40.709 -26.213 -15.700  0.00  0.00    -0.250 OA
ATOM     30  C   UNL     1      40.628 -25.525 -14.694  0.00  0.00    +0.314 C 
BRANCH  30  31
ATOM     31  O   UNL     1      41.331 -24.378 -14.506  0.00  0.00    -0.480 OA
ATOM     32  H   UNL     1      42.259 -24.371 -14.634  0.00  0.00    +0.295 HD
ENDBRANCH  30  31
ENDBRANCH  28  30
ENDBRANCH  23  28
ENDBRANCH  20  24
ENDBRANCH  19  20
ENDBRANCH   1  19
TORSDOF 8
ENDMDL
MODEL 6
REMARK VINA RESULT:     -10.9      1.016      1.517
REMARK  Name = 66000
REMARK  8 active torsions:
REMARK  status: ('A' for Active; 'I' for Inactive)
REMARK    1  A    between atoms: C_1  and  O_19
REMARK    2  A    between atoms: C_4  and  C_7
REMARK    3  A    between atoms: C_10  and  C_15
REMARK    4  A    between atoms: O_19  and  C_20
REMARK    5  A    between atoms: C_20  and  C_24
REMARK    6  A    between atoms: C_23  and  C_28
REMARK    7  A    between atoms: C_28  and  C_30
REMARK    8  A    between atoms: C_30  and  O_31
REMARK                            x       y       z     vdW  Elec       q    Type
REMARK                         _______ _______ _______ _____ _____    ______ ____
ROOT
ATOM      1  C   UNL     1      34.923 -22.233 -18.558  0.00  0.00    +0.139 C 
ATOM      2  C   UNL     1      36.129 -21.723 -19.024  0.00  0.00    +0.037 C 
ATOM      3  C   UNL     1      33.712 -21.746 -19.034  0.00  0.00    +0.037 C 
ATOM      4  C   UNL     1      34.912 -20.212 -20.464  0.00  0.00    +0.000 C 
ATOM      5  C   UNL     1      36.123 -20.709 -19.980  0.00  0.00    +0.003 C 
ATOM      6  C   UNL     1      33.707 -20.730 -19.990  0.00  0.00    +0.003 C 
ENDROOT
BRANCH   4   7
ATOM      7  C   UNL     1      34.906 -19.159 -21.456  0.00  0.00    +0.000 C 
ATOM      8  C   UNL     1      35.051 -17.829 -21.061  0.00  0.00    +0.000 C 
ATOM      9  C   UNL     1      34.757 -19.473 -22.807  0.00  0.00    +0.000 C 
ATOM     10  C   UNL     1      34.897 -17.128 -23.368  0.00  0.00    +0.031 C 
ATOM     11  C   UNL     1      35.046 -16.813 -22.018  0.00  0.00    +0.003 C 
ATOM     12  C   UNL     1      34.752 -18.458 -23.763  0.00  0.00    +0.003 C 
BRANCH  10  15
ATOM     13  N   UNL     1      34.866 -14.725 -23.997  0.00  0.00    -0.343 N 
ATOM     14  N   UNL     1      34.906 -16.375 -25.651  0.00  0.00    -0.285 NA
ATOM     15  C   UNL     1      34.891 -16.069 -24.365  0.00  0.00    +0.117 C 
ATOM     16  H   UNL     1      34.862 -14.025 -24.688  0.00  0.00    +0.144 HD
ATOM     17  H   UNL     1      34.852 -14.477 -23.044  0.00  0.00    +0.144 HD
ATOM     18  H   UNL     1      34.902 -15.660 -26.327  0.00  0.00    +0.188 HD
ENDBRANCH  10  15
ENDBRANCH   4   7
BRANCH   1  19
ATOM     19  O   UNL     1      34.929 -23.232 -17.615  0.00  0.00    -0.474 OA
BRANCH  19  20
ATOM     20  C   UNL     1      34.120 -23.038 -16.469  0.00  0.00    +0.225 C 
BRANCH  20  24
ATOM     21  O   UNL     1      34.371 -24.668 -12.400  0.00  0.00    -0.275 OA
ATOM     22  N   UNL     1      34.360 -22.991 -14.032  0.00  0.00    -0.302 N 
ATOM     23  C   UNL     1      35.788 -24.810 -14.386  0.00  0.00    +0.089 C 
ATOM     24  C   UNL     1      35.022 -22.715 -15.285  0.00  0.00    +0.116 C 
ATOM     25  C   UNL     1      36.255 -23.608 -15.215  0.00  0.00    +0.033 C 
ATOM     26  C   UNL     1      34.772 -24.186 -13.449  0.00  0.00    +0.223 C 
ATOM     27  H   UNL     1      33.687 -22.395 -13.632  0.00  0.00    +0.149 HD
BRANCH  23  28
ATOM     28  C   UNL     1      36.919 -25.506 -13.653  0.00  0.00    +0.118 C 
BRANCH  28  30
ATOM     29  O   UNL     1      39.112 -24.653 -14.286  0.00  0.00    -0.250 OA
ATOM     30  C   UNL     1      38.144 -24.633 -13.542  0.00  0.00    +0.314 C 
BRANCH  30  31
ATOM     31  O   UNL     1      38.026 -23.797 -12.479  0.00  0.00    -0.480 OA
ATOM     32  H   UNL     1      37.190 -23.438 -12.255  0.00  0.00    +0.295 HD
ENDBRANCH  30  31
ENDBRANCH  28  30
ENDBRANCH  23  28
ENDBRANCH  20  24
ENDBRANCH  19  20
ENDBRANCH   1  19
TORSDOF 8
ENDMDL
MODEL 7
REMARK VINA RESULT:     -10.9      3.963     10.431
REMARK  Name = 66000
REMARK  8 active torsions:
REMARK  status: ('A' for Active; 'I' for Inactive)
REMARK    1  A    between atoms: C_1  and  O_19
REMARK    2  A    between atoms: C_4  and  C_7
REMARK    3  A    between atoms: C_10  and  C_15
REMARK    4  A    between atoms: O_19  and  C_20
REMARK    5  A    between atoms: C_20  and  C_24
REMARK    6  A    between atoms: C_23  and  C_28
REMARK    7  A    between atoms: C_28  and  C_30
REMARK    8  A    between atoms: C_30  and  O_31
REMARK                            x       y       z     vdW  Elec       q    Type
REMARK                         _______ _______ _______ _____ _____    ______ ____
ROOT
ATOM      1  C   UNL     1      35.177 -20.665 -20.398  0.00  0.00    +0.139 C 
ATOM      2  C   UNL     1      33.804 -20.646 -20.183  0.00  0.00    +0.037 C 
ATOM      3  C   UNL     1      36.022 -21.358 -19.541  0.00  0.00    +0.037 C 
ATOM      4  C   UNL     1      34.110 -22.028 -18.226  0.00  0.00    +0.000 C 
ATOM      5  C   UNL     1      33.269 -21.330 -19.092  0.00  0.00    +0.003 C 
ATOM      6  C   UNL     1      35.486 -22.041 -18.449  0.00  0.00    +0.003 C 
ENDROOT
BRANCH   4   7
ATOM      7  C   UNL     1      33.554 -22.737 -17.093  0.00  0.00    +0.000 C 
ATOM      8  C   UNL     1      34.403 -23.327 -16.156  0.00  0.00    +0.000 C 
ATOM      9  C   UNL     1      32.171 -22.830 -16.938  0.00  0.00    +0.000 C 
ATOM     10  C   UNL     1      32.485 -24.102 -14.908  0.00  0.00    +0.031 C 
ATOM     11  C   UNL     1      33.867 -24.010 -15.063  0.00  0.00    +0.003 C 
ATOM     12  C   UNL     1      31.636 -23.513 -15.845  0.00  0.00    +0.003 C 
BRANCH  10  15
ATOM     13  N   UNL     1      30.585 -25.188 -13.732  0.00  0.00    -0.343 N 
ATOM     14  N   UNL     1      32.699 -25.118 -12.740  0.00  0.00    -0.285 NA
ATOM     15  C   UNL     1      31.927 -24.815 -13.769  0.00  0.00    +0.117 C 
ATOM     16  H   UNL     1      30.229 -25.669 -12.951  0.00  0.00    +0.144 HD
ATOM     17  H   UNL     1      29.993 -24.968 -14.488  0.00  0.00    +0.144 HD
ATOM     18  H   UNL     1      32.324 -25.599 -11.968  0.00  0.00    +0.188 HD
ENDBRANCH  10  15
ENDBRANCH   4   7
BRANCH   1  19
ATOM     19  O   UNL     1      35.704 -19.991 -21.472  0.00  0.00    -0.474 OA
BRANCH  19  20
ATOM     20  C   UNL     1      34.882 -19.012 -22.083  0.00  0.00    +0.225 C 
BRANCH  20  24
ATOM     21  O   UNL     1      34.271 -15.395 -24.495  0.00  0.00    -0.275 OA
ATOM     22  N   UNL     1      35.501 -17.138 -23.532  0.00  0.00    -0.302 N 
ATOM     23  C   UNL     1      34.113 -15.903 -22.110  0.00  0.00    +0.089 C 
ATOM     24  C   UNL     1      35.681 -17.724 -22.226  0.00  0.00    +0.116 C 
ATOM     25  C   UNL     1      35.197 -16.618 -21.295  0.00  0.00    +0.033 C 
ATOM     26  C   UNL     1      34.615 -16.064 -23.532  0.00  0.00    +0.223 C 
ATOM     27  H   UNL     1      35.958 -17.464 -24.340  0.00  0.00    +0.149 HD
BRANCH  23  28
ATOM     28  C   UNL     1      33.926 -14.451 -21.711  0.00  0.00    +0.118 C 
BRANCH  28  30
ATOM     29  O   UNL     1      32.282 -14.887 -19.966  0.00  0.00    -0.250 OA
ATOM     30  C   UNL     1      32.653 -14.238 -20.931  0.00  0.00    +0.314 C 
BRANCH  30  31
ATOM     31  O   UNL     1      31.954 -13.198 -21.455  0.00  0.00    -0.480 OA
ATOM     32  H   UNL     1      31.172 -12.899 -21.035  0.00  0.00    +0.295 HD
ENDBRANCH  30  31
ENDBRANCH  28  30
ENDBRANCH  23  28
ENDBRANCH  20  24
ENDBRANCH  19  20
ENDBRANCH   1  19
TORSDOF 8
ENDMDL
MODEL 8
REMARK VINA RESULT:     -10.5      4.013     10.821
REMARK  Name = 66000
REMARK  8 active torsions:
REMARK  status: ('A' for Active; 'I' for Inactive)
REMARK    1  A    between atoms: C_1  and  O_19
REMARK    2  A    between atoms: C_4  and  C_7
REMARK    3  A    between atoms: C_10  and  C_15
REMARK    4  A    between atoms: O_19  and  C_20
REMARK    5  A    between atoms: C_20  and  C_24
REMARK    6  A    between atoms: C_23  and  C_28
REMARK    7  A    between atoms: C_28  and  C_30
REMARK    8  A    between atoms: C_30  and  O_31
REMARK                            x       y       z     vdW  Elec       q    Type
REMARK                         _______ _______ _______ _____ _____    ______ ____
ROOT
ATOM      1  C   UNL     1      35.105 -21.098 -19.879  0.00  0.00    +0.139 C 
ATOM      2  C   UNL     1      33.993 -21.702 -19.304  0.00  0.00    +0.037 C 
ATOM      3  C   UNL     1      36.340 -21.129 -19.244  0.00  0.00    +0.037 C 
ATOM      4  C   UNL     1      35.355 -22.382 -17.428  0.00  0.00    +0.000 C 
ATOM      5  C   UNL     1      34.119 -22.346 -18.074  0.00  0.00    +0.003 C 
ATOM      6  C   UNL     1      36.465 -21.772 -18.013  0.00  0.00    +0.003 C 
ENDROOT
BRANCH   4   7
ATOM      7  C   UNL     1      35.485 -23.050 -16.151  0.00  0.00    +0.000 C 
ATOM      8  C   UNL     1      34.365 -23.613 -15.541  0.00  0.00    +0.000 C 
ATOM      9  C   UNL     1      36.732 -23.131 -15.531  0.00  0.00    +0.000 C 
ATOM     10  C   UNL     1      35.738 -24.339 -13.691  0.00  0.00    +0.031 C 
ATOM     11  C   UNL     1      34.491 -24.258 -14.310  0.00  0.00    +0.003 C 
ATOM     12  C   UNL     1      36.858 -23.776 -14.300  0.00  0.00    +0.003 C 
BRANCH  10  15
ATOM     13  N   UNL     1      37.011 -25.739 -12.082  0.00  0.00    -0.343 N 
ATOM     14  N   UNL     1      34.887 -24.941 -11.524  0.00  0.00    -0.285 NA
ATOM     15  C   UNL     1      35.869 -25.011 -12.407  0.00  0.00    +0.117 C 
ATOM     16  H   UNL     1      37.078 -26.186 -11.208  0.00  0.00    +0.144 HD
ATOM     17  H   UNL     1      37.751 -25.807 -12.727  0.00  0.00    +0.144 HD
ATOM     18  H   UNL     1      34.973 -25.395 -10.655  0.00  0.00    +0.188 HD
ENDBRANCH  10  15
ENDBRANCH   4   7
BRANCH   1  19
ATOM     19  O   UNL     1      34.980 -20.463 -21.090  0.00  0.00    -0.474 OA
BRANCH  19  20
ATOM     20  C   UNL     1      34.585 -19.103 -21.066  0.00  0.00    +0.225 C 
BRANCH  20  24
ATOM     21  O   UNL     1      34.818 -17.167 -24.999  0.00  0.00    -0.275 OA
ATOM     22  N   UNL     1      35.611 -18.401 -23.175  0.00  0.00    -0.302 N 
ATOM     23  C   UNL     1      34.582 -16.352 -22.707  0.00  0.00    +0.089 C 
ATOM     24  C   UNL     1      35.667 -18.269 -21.739  0.00  0.00    +0.116 C 
ATOM     25  C   UNL     1      35.476 -16.770 -21.534  0.00  0.00    +0.033 C 
ATOM     26  C   UNL     1      35.008 -17.313 -23.801  0.00  0.00    +0.223 C 
ATOM     27  H   UNL     1      35.964 -19.180 -23.662  0.00  0.00    +0.149 HD
BRANCH  23  28
ATOM     28  C   UNL     1      34.753 -14.897 -23.100  0.00  0.00    +0.118 C 
BRANCH  28  30
ATOM     29  O   UNL     1      32.737 -13.563 -22.794  0.00  0.00    -0.250 OA
ATOM     30  C   UNL     1      33.446 -14.262 -23.502  0.00  0.00    +0.314 C 
BRANCH  30  31
ATOM     31  O   UNL     1      33.153 -14.574 -24.791  0.00  0.00    -0.480 OA
ATOM     32  H   UNL     1      32.267 -14.750 -25.040  0.00  0.00    +0.295 HD
ENDBRANCH  30  31
ENDBRANCH  28  30
ENDBRANCH  23  28
ENDBRANCH  20  24
ENDBRANCH  19  20
ENDBRANCH   1  19
TORSDOF 8
ENDMDL
MODEL 9
REMARK VINA RESULT:     -10.4      5.730     11.572
REMARK  Name = 66000
REMARK  8 active torsions:
REMARK  status: ('A' for Active; 'I' for Inactive)
REMARK    1  A    between atoms: C_1  and  O_19
REMARK    2  A    between atoms: C_4  and  C_7
REMARK    3  A    between atoms: C_10  and  C_15
REMARK    4  A    between atoms: O_19  and  C_20
REMARK    5  A    between atoms: C_20  and  C_24
REMARK    6  A    between atoms: C_23  and  C_28
REMARK    7  A    between atoms: C_28  and  C_30
REMARK    8  A    between atoms: C_30  and  O_31
REMARK                            x       y       z     vdW  Elec       q    Type
REMARK                         _______ _______ _______ _____ _____    ______ ____
ROOT
ATOM      1  C   UNL     1      34.988 -17.231 -23.654  0.00  0.00    +0.139 C 
ATOM      2  C   UNL     1      34.711 -18.552 -23.985  0.00  0.00    +0.037 C 
ATOM      3  C   UNL     1      35.186 -16.855 -22.331  0.00  0.00    +0.037 C 
ATOM      4  C   UNL     1      34.828 -19.144 -21.646  0.00  0.00    +0.000 C 
ATOM      5  C   UNL     1      34.631 -19.512 -22.977  0.00  0.00    +0.003 C 
ATOM      6  C   UNL     1      35.105 -17.816 -21.323  0.00  0.00    +0.003 C 
ENDROOT
BRANCH   4   7
ATOM      7  C   UNL     1      34.744 -20.140 -20.600  0.00  0.00    +0.000 C 
ATOM      8  C   UNL     1      33.497 -20.576 -20.151  0.00  0.00    +0.000 C 
ATOM      9  C   UNL     1      35.909 -20.665 -20.041  0.00  0.00    +0.000 C 
ATOM     10  C   UNL     1      34.581 -22.062 -18.584  0.00  0.00    +0.031 C 
ATOM     11  C   UNL     1      33.416 -21.537 -19.142  0.00  0.00    +0.003 C 
ATOM     12  C   UNL     1      35.828 -21.626 -19.033  0.00  0.00    +0.003 C 
BRANCH  10  15
ATOM     13  N   UNL     1      35.432 -23.115 -16.502  0.00  0.00    -0.343 N 
ATOM     14  N   UNL     1      33.517 -23.952 -17.548  0.00  0.00    -0.285 NA
ATOM     15  C   UNL     1      34.496 -23.064 -17.533  0.00  0.00    +0.117 C 
ATOM     16  H   UNL     1      35.355 -23.802 -15.801  0.00  0.00    +0.144 HD
ATOM     17  H   UNL     1      36.170 -22.464 -16.475  0.00  0.00    +0.144 HD
ATOM     18  H   UNL     1      33.458 -24.631 -16.838  0.00  0.00    +0.188 HD
ENDBRANCH  10  15
ENDBRANCH   4   7
BRANCH   1  19
ATOM     19  O   UNL     1      35.066 -16.286 -24.647  0.00  0.00    -0.474 OA
BRANCH  19  20
ATOM     20  C   UNL     1      35.149 -14.931 -24.239  0.00  0.00    +0.225 C 
BRANCH  20  24
ATOM     21  O   UNL     1      32.662 -12.485 -21.575  0.00  0.00    -0.275 OA
ATOM     22  N   UNL     1      33.096 -14.159 -23.151  0.00  0.00    -0.302 N 
ATOM     23  C   UNL     1      33.956 -12.029 -23.597  0.00  0.00    +0.089 C 
ATOM     24  C   UNL     1      33.782 -14.284 -24.415  0.00  0.00    +0.116 C 
ATOM     25  C   UNL     1      33.864 -12.840 -24.895  0.00  0.00    +0.033 C 
ATOM     26  C   UNL     1      33.145 -12.869 -22.629  0.00  0.00    +0.223 C 
ATOM     27  H   UNL     1      32.641 -14.908 -22.705  0.00  0.00    +0.149 HD
BRANCH  23  28
ATOM     28  C   UNL     1      33.427 -10.614 -23.737  0.00  0.00    +0.118 C 
BRANCH  28  30
ATOM     29  O   UNL     1      34.446  -8.470 -23.188  0.00  0.00    -0.250 OA
ATOM     30  C   UNL     1      34.529  -9.588 -23.673  0.00  0.00    +0.314 C 
BRANCH  30  31
ATOM     31  O   UNL     1      35.660 -10.082 -24.239  0.00  0.00    -0.480 OA
ATOM     32  H   UNL     1      35.868  -9.876 -25.129  0.00  0.00    +0.295 HD
ENDBRANCH  30  31
ENDBRANCH  28  30
ENDBRANCH  23  28
ENDBRANCH  20  24
ENDBRANCH  19  20
ENDBRANCH   1  19
TORSDOF 8
ENDMDL
