MODEL 1
REMARK VINA RESULT:     -11.7      0.000      0.000
REMARK  Name = 93184
REMARK  8 active torsions:
REMARK  status: ('A' for Active; 'I' for Inactive)
REMARK    1  A    between atoms: C_1  and  C_2
REMARK    2  A    between atoms: C_1  and  C_10
REMARK    3  A    between atoms: C_1  and  C_27
REMARK    4  A    between atoms: N_9  and  CA_18
REMARK    5  A    between atoms: CA_17  and  C_23
REMARK    6  A    between atoms: C_23  and  O_24
REMARK    7  A    between atoms: C_27  and  O_28
REMARK    8  A    between atoms: O_28  and  C_35
REMARK                            x       y       z     vdW  Elec       q    Type
REMARK                         _______ _______ _______ _____ _____    ______ ____
ROOT
ATOM      1  C   UNL     1      32.689 -23.458 -16.567  0.00  0.00    +0.198 C 
ENDROOT
BRANCH   1   2
ATOM      2  C   UNL     1      31.267 -23.580 -16.046  0.00  0.00    -0.003 C 
ATOM      3  C   UNL     1      30.908 -24.711 -15.338  0.00  0.00    -0.003 C 
ATOM      4  C   UNL     1      30.372 -22.557 -16.293  0.00  0.00    -0.003 C 
ATOM      5  C   UNL     1      29.602 -24.823 -14.860  0.00  0.00    -0.000 C 
ATOM      6  C   UNL     1      29.067 -22.669 -15.815  0.00  0.00    -0.000 C 
ATOM      7  C   UNL     1      28.682 -23.802 -15.098  0.00  0.00    -0.000 C 
ENDBRANCH   1   2
BRANCH   1  10
ATOM      8  O   UNL     1      33.201 -22.749 -14.306  0.00  0.00    -0.274 OA
ATOM      9  N   UNL     1      34.972 -23.102 -15.762  0.00  0.00    -0.296 N 
ATOM     10  C   UNL     1      33.619 -23.060 -15.421  0.00  0.00    +0.237 C 
ATOM     11  H   UNL     1      35.218 -23.362 -16.679  0.00  0.00    +0.150 HD
BRANCH   9  18
ATOM     12  S   UNL     1      35.614 -25.467 -13.911  0.00  0.00    -0.118 S 
ATOM     13  O   UNL     1      38.102 -22.748 -16.328  0.00  0.00    -0.273 OA
ATOM     14  N   UNL     1      37.685 -23.967 -14.350  0.00  0.00    -0.260 N 
ATOM     15  C   UNL     1      36.368 -23.810 -13.725  0.00  0.00    +0.151 C 
ATOM     16  C   UNL     1      37.285 -26.283 -13.798  0.00  0.00    +0.068 C 
ATOM     17  CA  UNL     1      38.222 -25.300 -14.534  0.00  0.00    +0.184 C 
ATOM     18  CA  UNL     1      36.046 -22.777 -14.813  0.00  0.00    +0.178 C 
ATOM     19  C   UNL     1      37.464 -23.064 -15.349  0.00  0.00    +0.247 C 
ATOM     20  C   UNL     1      37.613 -26.482 -12.311  0.00  0.00    +0.013 C 
ATOM     21  C   UNL     1      37.227 -27.636 -14.508  0.00  0.00    +0.013 C 
BRANCH  17  23
ATOM     22  OXT UNL     1      40.023 -24.697 -13.045  0.00  0.00    -0.248 OA
ATOM     23  C   UNL     1      39.635 -25.279 -14.047  0.00  0.00    +0.333 C 
BRANCH  23  24
ATOM     24  O   UNL     1      40.437 -25.994 -14.874  0.00  0.00    -0.479 OA
ATOM     25  H   UNL     1      41.155 -26.483 -14.522  0.00  0.00    +0.295 HD
ENDBRANCH  23  24
ENDBRANCH  17  23
ENDBRANCH   9  18
ENDBRANCH   1  10
BRANCH   1  27
ATOM     26  O   UNL     1      32.166 -21.483 -17.901  0.00  0.00    -0.249 OA
ATOM     27  C   UNL     1      32.785 -22.533 -17.773  0.00  0.00    +0.334 C 
BRANCH  27  28
ATOM     28  O   UNL     1      33.719 -23.049 -18.671  0.00  0.00    -0.424 OA
BRANCH  28  35
ATOM     29  C   UNL     1      36.105 -18.718 -21.993  0.00  0.00    +0.009 C 
ATOM     30  C   UNL     1      34.683 -19.109 -21.562  0.00  0.00    +0.026 C 
ATOM     31  C   UNL     1      37.030 -19.039 -20.810  0.00  0.00    +0.026 C 
ATOM     32  C   UNL     1      34.968 -20.218 -20.599  0.00  0.00    -0.023 C 
ATOM     33  C   UNL     1      36.300 -20.178 -20.172  0.00  0.00    -0.026 C 
ATOM     34  C   UNL     1      34.087 -21.166 -20.105  0.00  0.00    +0.033 C 
ATOM     35  C   UNL     1      34.566 -22.093 -19.177  0.00  0.00    +0.148 C 
ATOM     36  C   UNL     1      36.779 -21.085 -19.243  0.00  0.00    -0.001 C 
ATOM     37  C   UNL     1      35.902 -22.053 -18.748  0.00  0.00    +0.037 C 
ENDBRANCH  28  35
ENDBRANCH  27  28
ENDBRANCH   1  27
TORSDOF 8
ENDMDL
MODEL 2
REMARK VINA RESULT:      -9.9      1.303      5.248
REMARK  Name = 93184
REMARK  8 active torsions:
REMARK  status: ('A' for Active; 'I' for Inactive)
REMARK    1  A    between atoms: C_1  and  C_2
REMARK    2  A    between atoms: C_1  and  C_10
REMARK    3  A    between atoms: C_1  and  C_27
REMARK    4  A    between atoms: N_9  and  CA_18
REMARK    5  A    between atoms: CA_17  and  C_23
REMARK    6  A    between atoms: C_23  and  O_24
REMARK    7  A    between atoms: C_27  and  O_28
REMARK    8  A    between atoms: O_28  and  C_35
REMARK                            x       y       z     vdW  Elec       q    Type
REMARK                         _______ _______ _______ _____ _____    ______ ____
ROOT
ATOM      1  C   UNL     1      34.396 -22.162 -17.565  0.00  0.00    +0.198 C 
ENDROOT
BRANCH   1   2
ATOM      2  C   UNL     1      34.393 -21.410 -18.884  0.00  0.00    -0.003 C 
ATOM      3  C   UNL     1      35.593 -21.188 -19.531  0.00  0.00    -0.003 C 
ATOM      4  C   UNL     1      33.190 -20.968 -19.401  0.00  0.00    -0.003 C 
ATOM      5  C   UNL     1      35.590 -20.496 -20.743  0.00  0.00    -0.000 C 
ATOM      6  C   UNL     1      33.188 -20.276 -20.612  0.00  0.00    -0.000 C 
ATOM      7  C   UNL     1      34.388 -20.040 -21.283  0.00  0.00    -0.000 C 
ENDBRANCH   1   2
BRANCH   1  10
ATOM      8  O   UNL     1      36.728 -21.504 -17.470  0.00  0.00    -0.274 OA
ATOM      9  N   UNL     1      35.807 -22.510 -15.595  0.00  0.00    -0.296 N 
ATOM     10  C   UNL     1      35.767 -22.019 -16.901  0.00  0.00    +0.237 C 
ATOM     11  H   UNL     1      34.989 -22.907 -15.217  0.00  0.00    +0.150 HD
BRANCH   9  18
ATOM     12  S   UNL     1      35.930 -24.867 -13.631  0.00  0.00    -0.118 S 
ATOM     13  O   UNL     1      38.841 -23.096 -16.426  0.00  0.00    -0.273 OA
ATOM     14  N   UNL     1      38.288 -24.047 -14.338  0.00  0.00    -0.260 N 
ATOM     15  C   UNL     1      37.134 -23.489 -13.625  0.00  0.00    +0.151 C 
ATOM     16  C   UNL     1      37.307 -26.121 -13.587  0.00  0.00    +0.068 C 
ATOM     17  CA  UNL     1      38.408 -25.486 -14.464  0.00  0.00    +0.184 C 
ATOM     18  CA  UNL     1      37.014 -22.461 -14.759  0.00  0.00    +0.178 C 
ATOM     19  C   UNL     1      38.236 -23.168 -15.380  0.00  0.00    +0.247 C 
ATOM     20  C   UNL     1      37.705 -26.333 -12.119  0.00  0.00    +0.013 C 
ATOM     21  C   UNL     1      36.803 -27.434 -14.189  0.00  0.00    +0.013 C 
BRANCH  17  23
ATOM     22  OXT UNL     1      40.328 -26.937 -14.280  0.00  0.00    -0.248 OA
ATOM     23  C   UNL     1      39.810 -25.847 -14.090  0.00  0.00    +0.333 C 
BRANCH  23  24
ATOM     24  O   UNL     1      40.435 -24.796 -13.505  0.00  0.00    -0.479 OA
ATOM     25  H   UNL     1      40.656 -24.040 -14.013  0.00  0.00    +0.295 HD
ENDBRANCH  23  24
ENDBRANCH  17  23
ENDBRANCH   9  18
ENDBRANCH   1  10
BRANCH   1  27
ATOM     26  O   UNL     1      33.877 -24.207 -18.790  0.00  0.00    -0.249 OA
ATOM     27  C   UNL     1      33.951 -23.610 -17.723  0.00  0.00    +0.334 C 
BRANCH  27  28
ATOM     28  O   UNL     1      33.691 -24.148 -16.463  0.00  0.00    -0.424 OA
BRANCH  28  35
ATOM     29  C   UNL     1      28.054 -22.379 -15.699  0.00  0.00    +0.009 C 
ATOM     30  C   UNL     1      28.767 -23.407 -16.591  0.00  0.00    +0.026 C 
ATOM     31  C   UNL     1      28.790 -22.378 -14.350  0.00  0.00    +0.026 C 
ATOM     32  C   UNL     1      30.159 -23.347 -16.046  0.00  0.00    -0.023 C 
ATOM     33  C   UNL     1      30.171 -22.763 -14.774  0.00  0.00    -0.026 C 
ATOM     34  C   UNL     1      31.324 -23.821 -16.626  0.00  0.00    +0.033 C 
ATOM     35  C   UNL     1      32.518 -23.691 -15.914  0.00  0.00    +0.148 C 
ATOM     36  C   UNL     1      31.349 -22.642 -14.056  0.00  0.00    -0.001 C 
ATOM     37  C   UNL     1      32.530 -23.106 -14.637  0.00  0.00    +0.037 C 
ENDBRANCH  28  35
ENDBRANCH  27  28
ENDBRANCH   1  27
TORSDOF 8
ENDMDL
MODEL 3
REMARK VINA RESULT:      -9.4      2.427      3.884
REMARK  Name = 93184
REMARK  8 active torsions:
REMARK  status: ('A' for Active; 'I' for Inactive)
REMARK    1  A    between atoms: C_1  and  C_2
REMARK    2  A    between atoms: C_1  and  C_10
REMARK    3  A    between atoms: C_1  and  C_27
REMARK    4  A    between atoms: N_9  and  CA_18
REMARK    5  A    between atoms: CA_17  and  C_23
REMARK    6  A    between atoms: C_23  and  O_24
REMARK    7  A    between atoms: C_27  and  O_28
REMARK    8  A    between atoms: O_28  and  C_35
REMARK                            x       y       z     vdW  Elec       q    Type
REMARK                         _______ _______ _______ _____ _____    ______ ____
ROOT
ATOM      1  C   UNL     1      36.263 -21.738 -18.799  0.00  0.00    +0.198 C 
ENDROOT
BRANCH   1   2
ATOM      2  C   UNL     1      34.806 -21.981 -18.445  0.00  0.00    -0.003 C 
ATOM      3  C   UNL     1      34.500 -22.922 -17.482  0.00  0.00    -0.003 C 
ATOM      4  C   UNL     1      33.828 -21.254 -19.096  0.00  0.00    -0.003 C 
ATOM      5  C   UNL     1      33.162 -23.146 -17.157  0.00  0.00    -0.000 C 
ATOM      6  C   UNL     1      32.491 -21.478 -18.771  0.00  0.00    -0.000 C 
ATOM      7  C   UNL     1      32.157 -22.424 -17.801  0.00  0.00    -0.000 C 
ENDBRANCH   1   2
BRANCH   1  10
ATOM      8  O   UNL     1      37.483 -20.432 -17.160  0.00  0.00    -0.274 OA
ATOM      9  N   UNL     1      37.275 -22.713 -16.796  0.00  0.00    -0.296 N 
ATOM     10  C   UNL     1      37.072 -21.535 -17.517  0.00  0.00    +0.237 C 
ATOM     11  H   UNL     1      36.911 -23.553 -17.155  0.00  0.00    +0.150 HD
BRANCH   9  18
ATOM     12  S   UNL     1      35.376 -22.850 -14.387  0.00  0.00    -0.118 S 
ATOM     13  O   UNL     1      38.972 -25.120 -15.543  0.00  0.00    -0.273 OA
ATOM     14  N   UNL     1      37.638 -24.032 -13.927  0.00  0.00    -0.260 N 
ATOM     15  C   UNL     1      37.190 -22.669 -14.229  0.00  0.00    +0.151 C 
ATOM     16  C   UNL     1      35.365 -24.233 -13.140  0.00  0.00    +0.068 C 
ATOM     17  CA  UNL     1      36.677 -24.995 -13.429  0.00  0.00    +0.184 C 
ATOM     18  CA  UNL     1      38.009 -22.755 -15.524  0.00  0.00    +0.178 C 
ATOM     19  C   UNL     1      38.383 -24.178 -15.062  0.00  0.00    +0.247 C 
ATOM     20  C   UNL     1      35.288 -23.606 -11.741  0.00  0.00    +0.013 C 
ATOM     21  C   UNL     1      34.142 -25.117 -13.388  0.00  0.00    +0.013 C 
BRANCH  17  23
ATOM     22  OXT UNL     1      38.087 -25.144 -11.475  0.00  0.00    -0.248 OA
ATOM     23  C   UNL     1      37.299 -25.668 -12.247  0.00  0.00    +0.333 C 
BRANCH  23  24
ATOM     24  O   UNL     1      36.871 -26.951 -12.148  0.00  0.00    -0.479 OA
ATOM     25  H   UNL     1      36.701 -27.449 -12.923  0.00  0.00    +0.295 HD
ENDBRANCH  23  24
ENDBRANCH  17  23
ENDBRANCH   9  18
ENDBRANCH   1  10
BRANCH   1  27
ATOM     26  O   UNL     1      37.330 -19.773 -19.775  0.00  0.00    -0.249 OA
ATOM     27  C   UNL     1      36.433 -20.606 -19.805  0.00  0.00    +0.334 C 
BRANCH  27  28
ATOM     28  O   UNL     1      35.438 -20.708 -20.778  0.00  0.00    -0.424 OA
BRANCH  28  35
ATOM     29  C   UNL     1      34.210 -15.130 -22.470  0.00  0.00    +0.009 C 
ATOM     30  C   UNL     1      34.702 -15.797 -21.177  0.00  0.00    +0.026 C 
ATOM     31  C   UNL     1      34.845 -15.902 -23.636  0.00  0.00    +0.026 C 
ATOM     32  C   UNL     1      34.911 -17.205 -21.639  0.00  0.00    -0.023 C 
ATOM     33  C   UNL     1      34.992 -17.264 -23.036  0.00  0.00    -0.026 C 
ATOM     34  C   UNL     1      35.063 -18.344 -20.866  0.00  0.00    +0.033 C 
ATOM     35  C   UNL     1      35.288 -19.559 -21.516  0.00  0.00    +0.148 C 
ATOM     36  C   UNL     1      35.227 -18.463 -23.687  0.00  0.00    -0.001 C 
ATOM     37  C   UNL     1      35.370 -19.618 -22.916  0.00  0.00    +0.037 C 
ENDBRANCH  28  35
ENDBRANCH  27  28
ENDBRANCH   1  27
TORSDOF 8
ENDMDL
MODEL 4
REMARK VINA RESULT:      -8.9      1.853      2.507
REMARK  Name = 93184
REMARK  8 active torsions:
REMARK  status: ('A' for Active; 'I' for Inactive)
REMARK    1  A    between atoms: C_1  and  C_2
REMARK    2  A    between atoms: C_1  and  C_10
REMARK    3  A    between atoms: C_1  and  C_27
REMARK    4  A    between atoms: N_9  and  CA_18
REMARK    5  A    between atoms: CA_17  and  C_23
REMARK    6  A    between atoms: C_23  and  O_24
REMARK    7  A    between atoms: C_27  and  O_28
REMARK    8  A    between atoms: O_28  and  C_35
REMARK                            x       y       z     vdW  Elec       q    Type
REMARK                         _______ _______ _______ _____ _____    ______ ____
ROOT
ATOM      1  C   UNL     1      32.272 -23.741 -16.251  0.00  0.00    +0.198 C 
ENDROOT
BRANCH   1   2
ATOM      2  C   UNL     1      30.850 -23.406 -15.836  0.00  0.00    -0.003 C 
ATOM      3  C   UNL     1      30.646 -22.621 -14.717  0.00  0.00    -0.003 C 
ATOM      4  C   UNL     1      29.799 -23.895 -16.588  0.00  0.00    -0.003 C 
ATOM      5  C   UNL     1      29.340 -22.314 -14.335  0.00  0.00    -0.000 C 
ATOM      6  C   UNL     1      28.494 -23.588 -16.206  0.00  0.00    -0.000 C 
ATOM      7  C   UNL     1      28.264 -22.798 -15.080  0.00  0.00    -0.000 C 
ENDBRANCH   1   2
BRANCH   1  10
ATOM      8  O   UNL     1      33.781 -22.830 -14.586  0.00  0.00    -0.274 OA
ATOM      9  N   UNL     1      33.186 -25.064 -14.406  0.00  0.00    -0.296 N 
ATOM     10  C   UNL     1      33.163 -23.806 -15.009  0.00  0.00    +0.237 C 
ATOM     11  H   UNL     1      32.661 -25.791 -14.813  0.00  0.00    +0.150 HD
BRANCH   9  18
ATOM     12  S   UNL     1      36.206 -25.114 -14.960  0.00  0.00    -0.118 S 
ATOM     13  O   UNL     1      33.722 -23.177 -11.879  0.00  0.00    -0.273 OA
ATOM     14  N   UNL     1      35.659 -24.352 -12.542  0.00  0.00    -0.260 N 
ATOM     15  C   UNL     1      35.471 -25.564 -13.345  0.00  0.00    +0.151 C 
ATOM     16  C   UNL     1      37.440 -23.993 -14.131  0.00  0.00    +0.068 C 
ATOM     17  CA  UNL     1      36.643 -23.375 -12.961  0.00  0.00    +0.184 C 
ATOM     18  CA  UNL     1      33.959 -25.354 -13.191  0.00  0.00    +0.178 C 
ATOM     19  C   UNL     1      34.328 -24.103 -12.369  0.00  0.00    +0.247 C 
ATOM     20  C   UNL     1      38.641 -24.848 -13.703  0.00  0.00    +0.013 C 
ATOM     21  C   UNL     1      37.887 -22.922 -15.128  0.00  0.00    +0.013 C 
BRANCH  17  23
ATOM     22  OXT UNL     1      37.591 -23.725 -10.769  0.00  0.00    -0.248 OA
ATOM     23  C   UNL     1      37.453 -23.018 -11.755  0.00  0.00    +0.333 C 
BRANCH  23  24
ATOM     24  O   UNL     1      38.014 -21.793 -11.902  0.00  0.00    -0.479 OA
ATOM     25  H   UNL     1      38.746 -21.546 -11.371  0.00  0.00    +0.295 HD
ENDBRANCH  23  24
ENDBRANCH  17  23
ENDBRANCH   9  18
ENDBRANCH   1  10
BRANCH   1  27
ATOM     26  O   UNL     1      32.209 -21.805 -17.734  0.00  0.00    -0.249 OA
ATOM     27  C   UNL     1      32.799 -22.797 -17.324  0.00  0.00    +0.334 C 
BRANCH  27  28
ATOM     28  O   UNL     1      34.069 -23.218 -17.719  0.00  0.00    -0.424 OA
BRANCH  28  35
ATOM     29  C   UNL     1      35.568 -19.302 -21.949  0.00  0.00    +0.009 C 
ATOM     30  C   UNL     1      34.255 -19.755 -21.295  0.00  0.00    +0.026 C 
ATOM     31  C   UNL     1      36.640 -19.318 -20.849  0.00  0.00    +0.026 C 
ATOM     32  C   UNL     1      34.766 -20.648 -20.208  0.00  0.00    -0.023 C 
ATOM     33  C   UNL     1      36.120 -20.399 -19.955  0.00  0.00    -0.026 C 
ATOM     34  C   UNL     1      34.061 -21.582 -19.468  0.00  0.00    +0.033 C 
ATOM     35  C   UNL     1      34.739 -22.282 -18.468  0.00  0.00    +0.148 C 
ATOM     36  C   UNL     1      36.796 -21.080 -18.957  0.00  0.00    -0.001 C 
ATOM     37  C   UNL     1      36.097 -22.032 -18.214  0.00  0.00    +0.037 C 
ENDBRANCH  28  35
ENDBRANCH  27  28
ENDBRANCH   1  27
TORSDOF 8
ENDMDL
