MODEL 1
REMARK VINA RESULT:     -11.9      0.000      0.000
REMARK  Name = 657077
REMARK  7 active torsions:
REMARK  status: ('A' for Active; 'I' for Inactive)
REMARK    1  A    between atoms: C_3  and  C_23
REMARK    2  A    between atoms: C_8  and  C_10
REMARK    3  A    between atoms: C_12  and  C_15
REMARK    4  A    between atoms: C_15  and  C_16
REMARK    5  A    between atoms: C_16  and  C_17
REMARK    6  A    between atoms: C_26  and  C_29
REMARK    7  A    between atoms: C_29  and  N_30
REMARK                            x       y       z     vdW  Elec       q    Type
REMARK                         _______ _______ _______ _____ _____    ______ ____
ROOT
ATOM      1  O   UNL     1      33.430 -15.239 -25.305  0.00  0.00    -0.270 OA
ATOM      2  N   UNL     1      34.712 -15.964 -23.489  0.00  0.00    -0.276 N 
ATOM      3  C   UNL     1      35.307 -18.263 -21.835  0.00  0.00    +0.026 C 
ATOM      4  C   UNL     1      34.894 -16.910 -21.224  0.00  0.00    +0.026 C 
ATOM      5  C   UNL     1      34.736 -18.411 -23.259  0.00  0.00    +0.026 C 
ATOM      6  C   UNL     1      35.275 -15.754 -22.150  0.00  0.00    +0.094 C 
ATOM      7  C   UNL     1      35.116 -17.216 -24.132  0.00  0.00    +0.094 C 
ATOM      8  C   UNL     1      33.880 -15.074 -24.172  0.00  0.00    +0.251 C 
ENDROOT
BRANCH   8  10
ATOM      9  N   UNL     1      32.217 -12.762 -21.742  0.00  0.00    -0.242 NA
ATOM     10  C   UNL     1      33.486 -13.835 -23.491  0.00  0.00    +0.072 C 
ATOM     11  C   UNL     1      33.972 -12.606 -23.913  0.00  0.00    +0.003 C 
ATOM     12  C   UNL     1      33.580 -11.449 -23.248  0.00  0.00    -0.003 C 
ATOM     13  C   UNL     1      32.621 -13.864 -22.414  0.00  0.00    +0.103 C 
ATOM     14  C   UNL     1      32.709 -11.581 -22.177  0.00  0.00    +0.095 C 
BRANCH  12  15
ATOM     15  C   UNL     1      34.080 -10.114 -23.670  0.00  0.00    +0.033 C 
BRANCH  15  16
ATOM     16  C   UNL     1      33.470  -8.934 -22.886  0.00  0.00    +0.031 C 
BRANCH  16  17
ATOM     17  C   UNL     1      33.633  -7.607 -23.589  0.00  0.00    -0.022 C 
ATOM     18  C   UNL     1      34.889  -7.224 -24.033  0.00  0.00    -0.004 C 
ATOM     19  C   UNL     1      32.525  -6.798 -23.776  0.00  0.00    -0.004 C 
ATOM     20  C   UNL     1      35.040  -5.999 -24.682  0.00  0.00    -0.000 C 
ATOM     21  C   UNL     1      32.676  -5.572 -24.426  0.00  0.00    -0.000 C 
ATOM     22  C   UNL     1      33.934  -5.173 -24.878  0.00  0.00    -0.000 C 
ENDBRANCH  16  17
ENDBRANCH  15  16
ENDBRANCH  12  15
ENDBRANCH   8  10
BRANCH   3  23
ATOM     23  C   UNL     1      34.924 -19.430 -20.944  0.00  0.00    -0.023 C 
ATOM     24  C   UNL     1      35.905 -20.101 -20.218  0.00  0.00    -0.011 C 
ATOM     25  C   UNL     1      33.590 -19.826 -20.853  0.00  0.00    -0.004 C 
ATOM     26  C   UNL     1      35.553 -21.172 -19.398  0.00  0.00    -0.045 C 
ATOM     27  C   UNL     1      33.238 -20.898 -20.033  0.00  0.00    -0.001 C 
ATOM     28  C   UNL     1      34.220 -21.570 -19.305  0.00  0.00    -0.006 C 
BRANCH  26  29
ATOM     29  C   UNL     1      36.602 -21.892 -18.618  0.00  0.00    -0.059 C 
BRANCH  29  30
ATOM     30  N   UNL     1      36.101 -22.385 -17.334  0.00  0.00    +0.383 N 
ATOM     31  H   UNL     1      36.888 -22.641 -16.737  0.00  0.00    -0.089 HD
ATOM     32  H   UNL     1      35.511 -23.202 -17.489  0.00  0.00    -0.089 HD
ATOM     33  H   UNL     1      35.555 -21.653 -16.879  0.00  0.00    -0.089 HD
ENDBRANCH  29  30
ENDBRANCH  26  29
ENDBRANCH   3  23
TORSDOF 7
ENDMDL
MODEL 2
REMARK VINA RESULT:     -11.8      1.947      2.705
REMARK  Name = 657077
REMARK  7 active torsions:
REMARK  status: ('A' for Active; 'I' for Inactive)
REMARK    1  A    between atoms: C_3  and  C_23
REMARK    2  A    between atoms: C_8  and  C_10
REMARK    3  A    between atoms: C_12  and  C_15
REMARK    4  A    between atoms: C_15  and  C_16
REMARK    5  A    between atoms: C_16  and  C_17
REMARK    6  A    between atoms: C_26  and  C_29
REMARK    7  A    between atoms: C_29  and  N_30
REMARK                            x       y       z     vdW  Elec       q    Type
REMARK                         _______ _______ _______ _____ _____    ______ ____
ROOT
ATOM      1  O   UNL     1      33.477 -15.895 -25.659  0.00  0.00    -0.270 OA
ATOM      2  N   UNL     1      34.826 -16.559 -23.868  0.00  0.00    -0.276 N 
ATOM      3  C   UNL     1      35.328 -18.724 -22.014  0.00  0.00    +0.026 C 
ATOM      4  C   UNL     1      35.097 -17.279 -21.530  0.00  0.00    +0.026 C 
ATOM      5  C   UNL     1      34.633 -18.958 -23.369  0.00  0.00    +0.026 C 
ATOM      6  C   UNL     1      35.512 -16.271 -22.602  0.00  0.00    +0.094 C 
ATOM      7  C   UNL     1      35.054 -17.905 -24.394  0.00  0.00    +0.094 C 
ATOM      8  C   UNL     1      34.030 -15.662 -24.585  0.00  0.00    +0.251 C 
ENDROOT
BRANCH   8  10
ATOM      9  N   UNL     1      34.101 -11.938 -24.211  0.00  0.00    -0.242 NA
ATOM     10  C   UNL     1      33.813 -14.326 -24.020  0.00  0.00    +0.072 C 
ATOM     11  C   UNL     1      33.144 -14.163 -22.816  0.00  0.00    +0.003 C 
ATOM     12  C   UNL     1      32.952 -12.884 -22.304  0.00  0.00    -0.003 C 
ATOM     13  C   UNL     1      34.268 -13.197 -24.675  0.00  0.00    +0.103 C 
ATOM     14  C   UNL     1      33.445 -11.814 -23.035  0.00  0.00    +0.095 C 
BRANCH  12  15
ATOM     15  C   UNL     1      32.240 -12.671 -21.017  0.00  0.00    +0.033 C 
BRANCH  15  16
ATOM     16  C   UNL     1      31.064 -11.675 -21.104  0.00  0.00    +0.031 C 
BRANCH  16  17
ATOM     17  C   UNL     1      31.477 -10.245 -20.849  0.00  0.00    -0.022 C 
ATOM     18  C   UNL     1      31.556  -9.361 -21.914  0.00  0.00    -0.004 C 
ATOM     19  C   UNL     1      31.771  -9.844 -19.557  0.00  0.00    -0.004 C 
ATOM     20  C   UNL     1      31.938  -8.041 -21.679  0.00  0.00    -0.000 C 
ATOM     21  C   UNL     1      32.153  -8.522 -19.322  0.00  0.00    -0.000 C 
ATOM     22  C   UNL     1      32.237  -7.621 -20.383  0.00  0.00    -0.000 C 
ENDBRANCH  16  17
ENDBRANCH  15  16
ENDBRANCH  12  15
ENDBRANCH   8  10
BRANCH   3  23
ATOM     23  C   UNL     1      34.907 -19.745 -20.975  0.00  0.00    -0.023 C 
ATOM     24  C   UNL     1      35.872 -20.382 -20.197  0.00  0.00    -0.011 C 
ATOM     25  C   UNL     1      33.557 -20.043 -20.799  0.00  0.00    -0.004 C 
ATOM     26  C   UNL     1      35.486 -21.320 -19.240  0.00  0.00    -0.045 C 
ATOM     27  C   UNL     1      33.171 -20.982 -19.842  0.00  0.00    -0.001 C 
ATOM     28  C   UNL     1      34.135 -21.620 -19.063  0.00  0.00    -0.006 C 
BRANCH  26  29
ATOM     29  C   UNL     1      36.517 -22.003 -18.405  0.00  0.00    -0.059 C 
BRANCH  29  30
ATOM     30  N   UNL     1      35.983 -22.450 -17.117  0.00  0.00    +0.383 N 
ATOM     31  H   UNL     1      36.260 -21.793 -16.388  0.00  0.00    -0.089 HD
ATOM     32  H   UNL     1      36.351 -23.375 -16.899  0.00  0.00    -0.089 HD
ATOM     33  H   UNL     1      34.965 -22.492 -17.168  0.00  0.00    -0.089 HD
ENDBRANCH  29  30
ENDBRANCH  26  29
ENDBRANCH   3  23
TORSDOF 7
ENDMDL
MODEL 3
REMARK VINA RESULT:     -11.7      1.342      2.166
REMARK  Name = 657077
REMARK  7 active torsions:
REMARK  status: ('A' for Active; 'I' for Inactive)
REMARK    1  A    between atoms: C_3  and  C_23
REMARK    2  A    between atoms: C_8  and  C_10
REMARK    3  A    between atoms: C_12  and  C_15
REMARK    4  A    between atoms: C_15  and  C_16
REMARK    5  A    between atoms: C_16  and  C_17
REMARK    6  A    between atoms: C_26  and  C_29
REMARK    7  A    between atoms: C_29  and  N_30
REMARK                            x       y       z     vdW  Elec       q    Type
REMARK                         _______ _______ _______ _____ _____    ______ ____
ROOT
ATOM      1  O   UNL     1      32.779 -13.857 -24.434  0.00  0.00    -0.270 OA
ATOM      2  N   UNL     1      34.314 -14.636 -22.851  0.00  0.00    -0.276 N 
ATOM      3  C   UNL     1      35.527 -17.032 -21.773  0.00  0.00    +0.026 C 
ATOM      4  C   UNL     1      34.860 -15.981 -20.864  0.00  0.00    +0.026 C 
ATOM      5  C   UNL     1      34.909 -16.997 -23.184  0.00  0.00    +0.026 C 
ATOM      6  C   UNL     1      34.904 -14.595 -21.507  0.00  0.00    +0.094 C 
ATOM      7  C   UNL     1      34.947 -15.585 -23.767  0.00  0.00    +0.094 C 
ATOM      8  C   UNL     1      33.256 -13.842 -23.300  0.00  0.00    +0.251 C 
ENDROOT
BRANCH   8  10
ATOM      9  N   UNL     1      31.624 -12.544 -20.191  0.00  0.00    -0.242 NA
ATOM     10  C   UNL     1      32.638 -12.911 -22.349  0.00  0.00    +0.072 C 
ATOM     11  C   UNL     1      32.476 -11.571 -22.669  0.00  0.00    +0.003 C 
ATOM     12  C   UNL     1      31.886 -10.712 -21.748  0.00  0.00    -0.003 C 
ATOM     13  C   UNL     1      32.201 -13.347 -21.113  0.00  0.00    +0.103 C 
ATOM     14  C   UNL     1      31.482 -11.244 -20.534  0.00  0.00    +0.095 C 
BRANCH  12  15
ATOM     15  C   UNL     1      31.697  -9.269 -22.055  0.00  0.00    +0.033 C 
BRANCH  15  16
ATOM     16  C   UNL     1      32.844  -8.363 -21.559  0.00  0.00    +0.031 C 
BRANCH  16  17
ATOM     17  C   UNL     1      33.409  -7.476 -22.643  0.00  0.00    -0.022 C 
ATOM     18  C   UNL     1      32.586  -6.544 -23.256  0.00  0.00    -0.004 C 
ATOM     19  C   UNL     1      34.739  -7.610 -23.005  0.00  0.00    -0.004 C 
ATOM     20  C   UNL     1      33.108  -5.725 -24.257  0.00  0.00    -0.000 C 
ATOM     21  C   UNL     1      35.261  -6.790 -24.006  0.00  0.00    -0.000 C 
ATOM     22  C   UNL     1      34.445  -5.848 -24.632  0.00  0.00    -0.000 C 
ENDBRANCH  16  17
ENDBRANCH  15  16
ENDBRANCH  12  15
ENDBRANCH   8  10
BRANCH   3  23
ATOM     23  C   UNL     1      35.481 -18.421 -21.165  0.00  0.00    -0.023 C 
ATOM     24  C   UNL     1      34.253 -19.021 -20.897  0.00  0.00    -0.011 C 
ATOM     25  C   UNL     1      36.668 -19.093 -20.878  0.00  0.00    -0.004 C 
ATOM     26  C   UNL     1      34.210 -20.298 -20.340  0.00  0.00    -0.045 C 
ATOM     27  C   UNL     1      36.625 -20.371 -20.320  0.00  0.00    -0.001 C 
ATOM     28  C   UNL     1      35.397 -20.974 -20.051  0.00  0.00    -0.006 C 
BRANCH  26  29
ATOM     29  C   UNL     1      32.896 -20.945 -20.053  0.00  0.00    -0.059 C 
BRANCH  29  30
ATOM     30  N   UNL     1      32.983 -21.923 -18.966  0.00  0.00    +0.383 N 
ATOM     31  H   UNL     1      33.958 -22.037 -18.688  0.00  0.00    -0.089 HD
ATOM     32  H   UNL     1      32.613 -22.818 -19.285  0.00  0.00    -0.089 HD
ATOM     33  H   UNL     1      32.439 -21.594 -18.169  0.00  0.00    -0.089 HD
ENDBRANCH  29  30
ENDBRANCH  26  29
ENDBRANCH   3  23
TORSDOF 7
ENDMDL
MODEL 4
REMARK VINA RESULT:     -11.2      3.961      6.346
REMARK  Name = 657077
REMARK  7 active torsions:
REMARK  status: ('A' for Active; 'I' for Inactive)
REMARK    1  A    between atoms: C_3  and  C_23
REMARK    2  A    between atoms: C_8  and  C_10
REMARK    3  A    between atoms: C_12  and  C_15
REMARK    4  A    between atoms: C_15  and  C_16
REMARK    5  A    between atoms: C_16  and  C_17
REMARK    6  A    between atoms: C_26  and  C_29
REMARK    7  A    between atoms: C_29  and  N_30
REMARK                            x       y       z     vdW  Elec       q    Type
REMARK                         _______ _______ _______ _____ _____    ______ ____
ROOT
ATOM      1  O   UNL     1      32.041  -8.625 -18.751  0.00  0.00    -0.270 OA
ATOM      2  N   UNL     1      31.627 -10.158 -20.467  0.00  0.00    -0.276 N 
ATOM      3  C   UNL     1      32.177 -12.857 -21.355  0.00  0.00    +0.026 C 
ATOM      4  C   UNL     1      32.417 -11.638 -22.267  0.00  0.00    +0.026 C 
ATOM      5  C   UNL     1      32.280 -12.451 -19.872  0.00  0.00    +0.026 C 
ATOM      6  C   UNL     1      31.489 -10.483 -21.892  0.00  0.00    +0.094 C 
ATOM      7  C   UNL     1      31.360 -11.272 -19.557  0.00  0.00    +0.094 C 
ATOM      8  C   UNL     1      31.951  -8.903 -19.946  0.00  0.00    +0.251 C 
ENDROOT
BRANCH   8  10
ATOM      9  N   UNL     1      31.513  -5.747 -21.911  0.00  0.00    -0.242 NA
ATOM     10  C   UNL     1      32.226  -7.812 -20.888  0.00  0.00    +0.072 C 
ATOM     11  C   UNL     1      33.399  -7.791 -21.628  0.00  0.00    +0.003 C 
ATOM     12  C   UNL     1      33.632  -6.744 -22.514  0.00  0.00    -0.003 C 
ATOM     13  C   UNL     1      31.323  -6.781 -21.060  0.00  0.00    +0.103 C 
ATOM     14  C   UNL     1      32.666  -5.755 -22.616  0.00  0.00    +0.095 C 
BRANCH  12  15
ATOM     15  C   UNL     1      34.878  -6.686 -23.324  0.00  0.00    +0.033 C 
BRANCH  15  16
ATOM     16  C   UNL     1      34.659  -6.900 -24.836  0.00  0.00    +0.031 C 
BRANCH  16  17
ATOM     17  C   UNL     1      34.664  -5.611 -25.624  0.00  0.00    -0.022 C 
ATOM     18  C   UNL     1      33.497  -4.870 -25.721  0.00  0.00    -0.004 C 
ATOM     19  C   UNL     1      35.835  -5.195 -26.235  0.00  0.00    -0.004 C 
ATOM     20  C   UNL     1      33.502  -3.680 -26.449  0.00  0.00    -0.000 C 
ATOM     21  C   UNL     1      35.840  -4.004 -26.962  0.00  0.00    -0.000 C 
ATOM     22  C   UNL     1      34.672  -3.247 -27.069  0.00  0.00    -0.000 C 
ENDBRANCH  16  17
ENDBRANCH  15  16
ENDBRANCH  12  15
ENDBRANCH   8  10
BRANCH   3  23
ATOM     23  C   UNL     1      33.099 -14.012 -21.695  0.00  0.00    -0.023 C 
ATOM     24  C   UNL     1      33.381 -14.306 -23.027  0.00  0.00    -0.011 C 
ATOM     25  C   UNL     1      33.662 -14.775 -20.674  0.00  0.00    -0.004 C 
ATOM     26  C   UNL     1      34.230 -15.367 -23.340  0.00  0.00    -0.045 C 
ATOM     27  C   UNL     1      34.511 -15.837 -20.987  0.00  0.00    -0.001 C 
ATOM     28  C   UNL     1      34.795 -16.133 -22.320  0.00  0.00    -0.006 C 
BRANCH  26  29
ATOM     29  C   UNL     1      34.535 -15.684 -24.766  0.00  0.00    -0.059 C 
BRANCH  29  30
ATOM     30  N   UNL     1      33.544 -15.122 -25.686  0.00  0.00    +0.383 N 
ATOM     31  H   UNL     1      33.815 -14.172 -25.937  0.00  0.00    -0.089 HD
ATOM     32  H   UNL     1      32.630 -15.108 -25.234  0.00  0.00    -0.089 HD
ATOM     33  H   UNL     1      33.499 -15.696 -26.528  0.00  0.00    -0.089 HD
ENDBRANCH  29  30
ENDBRANCH  26  29
ENDBRANCH   3  23
TORSDOF 7
ENDMDL
MODEL 5
REMARK VINA RESULT:     -11.0      1.962     10.952
REMARK  Name = 657077
REMARK  7 active torsions:
REMARK  status: ('A' for Active; 'I' for Inactive)
REMARK    1  A    between atoms: C_3  and  C_23
REMARK    2  A    between atoms: C_8  and  C_10
REMARK    3  A    between atoms: C_12  and  C_15
REMARK    4  A    between atoms: C_15  and  C_16
REMARK    5  A    between atoms: C_16  and  C_17
REMARK    6  A    between atoms: C_26  and  C_29
REMARK    7  A    between atoms: C_29  and  N_30
REMARK                            x       y       z     vdW  Elec       q    Type
REMARK                         _______ _______ _______ _____ _____    ______ ____
ROOT
ATOM      1  O   UNL     1      35.188 -15.626 -25.299  0.00  0.00    -0.270 OA
ATOM      2  N   UNL     1      33.833 -14.058 -24.215  0.00  0.00    -0.276 N 
ATOM      3  C   UNL     1      33.404 -11.221 -23.842  0.00  0.00    +0.026 C 
ATOM      4  C   UNL     1      33.542 -12.184 -22.646  0.00  0.00    +0.026 C 
ATOM      5  C   UNL     1      34.145 -11.776 -25.073  0.00  0.00    +0.026 C 
ATOM      6  C   UNL     1      33.100 -13.596 -23.030  0.00  0.00    +0.094 C 
ATOM      7  C   UNL     1      33.692 -13.201 -25.392  0.00  0.00    +0.094 C 
ATOM      8  C   UNL     1      34.595 -15.226 -24.297  0.00  0.00    +0.251 C 
ENDROOT
BRANCH   8  10
ATOM      9  N   UNL     1      34.741 -16.196 -20.685  0.00  0.00    -0.242 NA
ATOM     10  C   UNL     1      34.725 -16.054 -23.093  0.00  0.00    +0.072 C 
ATOM     11  C   UNL     1      34.944 -17.420 -23.190  0.00  0.00    +0.003 C 
ATOM     12  C   UNL     1      35.062 -18.180 -22.031  0.00  0.00    -0.003 C 
ATOM     13  C   UNL     1      34.632 -15.492 -21.834  0.00  0.00    +0.103 C 
ATOM     14  C   UNL     1      34.954 -17.525 -20.814  0.00  0.00    +0.095 C 
BRANCH  12  15
ATOM     15  C   UNL     1      35.296 -19.647 -22.095  0.00  0.00    +0.033 C 
BRANCH  15  16
ATOM     16  C   UNL     1      36.114 -20.208 -20.913  0.00  0.00    +0.031 C 
BRANCH  16  17
ATOM     17  C   UNL     1      35.272 -20.975 -19.920  0.00  0.00    -0.022 C 
ATOM     18  C   UNL     1      33.891 -20.892 -19.994  0.00  0.00    -0.004 C 
ATOM     19  C   UNL     1      35.897 -21.747 -18.955  0.00  0.00    -0.004 C 
ATOM     20  C   UNL     1      33.114 -21.600 -19.078  0.00  0.00    -0.000 C 
ATOM     21  C   UNL     1      35.119 -22.456 -18.038  0.00  0.00    -0.000 C 
ATOM     22  C   UNL     1      33.727 -22.382 -18.100  0.00  0.00    -0.000 C 
ENDBRANCH  16  17
ENDBRANCH  15  16
ENDBRANCH  12  15
ENDBRANCH   8  10
BRANCH   3  23
ATOM     23  C   UNL     1      33.854  -9.814 -23.493  0.00  0.00    -0.023 C 
ATOM     24  C   UNL     1      33.147  -9.073 -22.548  0.00  0.00    -0.011 C 
ATOM     25  C   UNL     1      34.974  -9.268 -24.118  0.00  0.00    -0.004 C 
ATOM     26  C   UNL     1      33.560  -7.781 -22.227  0.00  0.00    -0.045 C 
ATOM     27  C   UNL     1      35.387  -7.975 -23.796  0.00  0.00    -0.001 C 
ATOM     28  C   UNL     1      34.681  -7.232 -22.851  0.00  0.00    -0.006 C 
BRANCH  26  29
ATOM     29  C   UNL     1      32.806  -6.985 -21.215  0.00  0.00    -0.059 C 
BRANCH  29  30
ATOM     30  N   UNL     1      33.104  -7.404 -19.843  0.00  0.00    +0.383 N 
ATOM     31  H   UNL     1      33.828  -6.800 -19.454  0.00  0.00    -0.089 HD
ATOM     32  H   UNL     1      33.430  -8.369 -19.846  0.00  0.00    -0.089 HD
ATOM     33  H   UNL     1      32.259  -7.331 -19.276  0.00  0.00    -0.089 HD
ENDBRANCH  29  30
ENDBRANCH  26  29
ENDBRANCH   3  23
TORSDOF 7
ENDMDL
MODEL 6
REMARK VINA RESULT:     -10.9      4.984     12.965
REMARK  Name = 657077
REMARK  7 active torsions:
REMARK  status: ('A' for Active; 'I' for Inactive)
REMARK    1  A    between atoms: C_3  and  C_23
REMARK    2  A    between atoms: C_8  and  C_10
REMARK    3  A    between atoms: C_12  and  C_15
REMARK    4  A    between atoms: C_15  and  C_16
REMARK    5  A    between atoms: C_16  and  C_17
REMARK    6  A    between atoms: C_26  and  C_29
REMARK    7  A    between atoms: C_29  and  N_30
REMARK                            x       y       z     vdW  Elec       q    Type
REMARK                         _______ _______ _______ _____ _____    ______ ____
ROOT
ATOM      1  O   UNL     1      37.196 -21.639 -17.669  0.00  0.00    -0.270 OA
ATOM      2  N   UNL     1      35.984 -21.133 -19.603  0.00  0.00    -0.276 N 
ATOM      3  C   UNL     1      35.472 -19.052 -21.548  0.00  0.00    +0.026 C 
ATOM      4  C   UNL     1      34.326 -19.771 -20.809  0.00  0.00    +0.026 C 
ATOM      5  C   UNL     1      36.761 -19.077 -20.703  0.00  0.00    +0.026 C 
ATOM      6  C   UNL     1      34.746 -21.180 -20.391  0.00  0.00    +0.094 C 
ATOM      7  C   UNL     1      37.116 -20.503 -20.283  0.00  0.00    +0.094 C 
ATOM      8  C   UNL     1      36.152 -21.655 -18.319  0.00  0.00    +0.251 C 
ENDROOT
BRANCH   8  10
ATOM      9  N   UNL     1      32.663 -22.897 -17.766  0.00  0.00    -0.242 NA
ATOM     10  C   UNL     1      34.990 -22.268 -17.664  0.00  0.00    +0.072 C 
ATOM     11  C   UNL     1      35.089 -22.785 -16.380  0.00  0.00    +0.003 C 
ATOM     12  C   UNL     1      33.971 -23.360 -15.785  0.00  0.00    -0.003 C 
ATOM     13  C   UNL     1      33.772 -22.346 -18.311  0.00  0.00    +0.103 C 
ATOM     14  C   UNL     1      32.793 -23.391 -16.514  0.00  0.00    +0.095 C 
BRANCH  12  15
ATOM     15  C   UNL     1      34.038 -23.924 -14.411  0.00  0.00    +0.033 C 
BRANCH  15  16
ATOM     16  C   UNL     1      35.061 -25.067 -14.247  0.00  0.00    +0.031 C 
BRANCH  16  17
ATOM     17  C   UNL     1      36.199 -24.716 -13.319  0.00  0.00    -0.022 C 
ATOM     18  C   UNL     1      36.145 -23.536 -12.594  0.00  0.00    -0.004 C 
ATOM     19  C   UNL     1      37.277 -25.580 -13.209  0.00  0.00    -0.004 C 
ATOM     20  C   UNL     1      37.197 -23.211 -11.737  0.00  0.00    -0.000 C 
ATOM     21  C   UNL     1      38.328 -25.256 -12.350  0.00  0.00    -0.000 C 
ATOM     22  C   UNL     1      38.288 -24.071 -11.615  0.00  0.00    -0.000 C 
ENDBRANCH  16  17
ENDBRANCH  15  16
ENDBRANCH  12  15
ENDBRANCH   8  10
BRANCH   3  23
ATOM     23  C   UNL     1      35.088 -17.643 -21.959  0.00  0.00    -0.023 C 
ATOM     24  C   UNL     1      34.917 -17.335 -23.307  0.00  0.00    -0.011 C 
ATOM     25  C   UNL     1      34.906 -16.661 -20.986  0.00  0.00    -0.004 C 
ATOM     26  C   UNL     1      34.563 -16.040 -23.684  0.00  0.00    -0.045 C 
ATOM     27  C   UNL     1      34.552 -15.366 -21.364  0.00  0.00    -0.001 C 
ATOM     28  C   UNL     1      34.380 -15.055 -22.713  0.00  0.00    -0.006 C 
BRANCH  26  29
ATOM     29  C   UNL     1      34.377 -15.707 -25.127  0.00  0.00    -0.059 C 
BRANCH  29  30
ATOM     30  N   UNL     1      33.202 -14.864 -25.357  0.00  0.00    +0.383 N 
ATOM     31  H   UNL     1      32.575 -14.929 -24.555  0.00  0.00    -0.089 HD
ATOM     32  H   UNL     1      32.716 -15.180 -26.196  0.00  0.00    -0.089 HD
ATOM     33  H   UNL     1      33.498 -13.895 -25.479  0.00  0.00    -0.089 HD
ENDBRANCH  29  30
ENDBRANCH  26  29
ENDBRANCH   3  23
TORSDOF 7
ENDMDL
MODEL 7
REMARK VINA RESULT:     -10.9      1.389      2.135
REMARK  Name = 657077
REMARK  7 active torsions:
REMARK  status: ('A' for Active; 'I' for Inactive)
REMARK    1  A    between atoms: C_3  and  C_23
REMARK    2  A    between atoms: C_8  and  C_10
REMARK    3  A    between atoms: C_12  and  C_15
REMARK    4  A    between atoms: C_15  and  C_16
REMARK    5  A    between atoms: C_16  and  C_17
REMARK    6  A    between atoms: C_26  and  C_29
REMARK    7  A    between atoms: C_29  and  N_30
REMARK                            x       y       z     vdW  Elec       q    Type
REMARK                         _______ _______ _______ _____ _____    ______ ____
ROOT
ATOM      1  O   UNL     1      33.227 -15.157 -25.012  0.00  0.00    -0.270 OA
ATOM      2  N   UNL     1      34.728 -15.806 -23.341  0.00  0.00    -0.276 N 
ATOM      3  C   UNL     1      35.695 -18.086 -21.843  0.00  0.00    +0.026 C 
ATOM      4  C   UNL     1      35.199 -16.806 -21.142  0.00  0.00    +0.026 C 
ATOM      5  C   UNL     1      35.022 -18.243 -23.220  0.00  0.00    +0.026 C 
ATOM      6  C   UNL     1      35.378 -15.585 -22.043  0.00  0.00    +0.094 C 
ATOM      7  C   UNL     1      35.201 -16.984 -24.068  0.00  0.00    +0.094 C 
ATOM      8  C   UNL     1      33.753 -14.986 -23.913  0.00  0.00    +0.251 C 
ENDROOT
BRANCH   8  10
ATOM      9  N   UNL     1      32.131 -12.951 -21.222  0.00  0.00    -0.242 NA
ATOM     10  C   UNL     1      33.293 -13.821 -23.149  0.00  0.00    +0.072 C 
ATOM     11  C   UNL     1      33.560 -12.532 -23.588  0.00  0.00    +0.003 C 
ATOM     12  C   UNL     1      33.111 -11.447 -22.842  0.00  0.00    -0.003 C 
ATOM     13  C   UNL     1      32.583 -13.980 -21.974  0.00  0.00    +0.103 C 
ATOM     14  C   UNL     1      32.408 -11.708 -21.677  0.00  0.00    +0.095 C 
BRANCH  12  15
ATOM     15  C   UNL     1      33.379 -10.051 -23.280  0.00  0.00    +0.033 C 
BRANCH  15  16
ATOM     16  C   UNL     1      32.122  -9.158 -23.345  0.00  0.00    +0.031 C 
BRANCH  16  17
ATOM     17  C   UNL     1      32.197  -7.961 -22.427  0.00  0.00    -0.022 C 
ATOM     18  C   UNL     1      32.260  -6.689 -22.973  0.00  0.00    -0.004 C 
ATOM     19  C   UNL     1      32.203  -8.158 -21.055  0.00  0.00    -0.004 C 
ATOM     20  C   UNL     1      32.330  -5.584 -22.125  0.00  0.00    -0.000 C 
ATOM     21  C   UNL     1      32.272  -7.052 -20.207  0.00  0.00    -0.000 C 
ATOM     22  C   UNL     1      32.336  -5.765 -20.742  0.00  0.00    -0.000 C 
ENDBRANCH  16  17
ENDBRANCH  15  16
ENDBRANCH  12  15
ENDBRANCH   8  10
BRANCH   3  23
ATOM     23  C   UNL     1      35.511 -19.317 -20.976  0.00  0.00    -0.023 C 
ATOM     24  C   UNL     1      34.228 -19.759 -20.660  0.00  0.00    -0.011 C 
ATOM     25  C   UNL     1      36.627 -20.003 -20.498  0.00  0.00    -0.004 C 
ATOM     26  C   UNL     1      34.059 -20.891 -19.864  0.00  0.00    -0.045 C 
ATOM     27  C   UNL     1      36.457 -21.135 -19.701  0.00  0.00    -0.001 C 
ATOM     28  C   UNL     1      35.174 -21.579 -19.385  0.00  0.00    -0.006 C 
BRANCH  26  29
ATOM     29  C   UNL     1      32.686 -21.368 -19.525  0.00  0.00    -0.059 C 
BRANCH  29  30
ATOM     30  N   UNL     1      32.684 -22.300 -18.396  0.00  0.00    +0.383 N 
ATOM     31  H   UNL     1      31.783 -22.777 -18.351  0.00  0.00    -0.089 HD
ATOM     32  H   UNL     1      32.839 -21.785 -17.530  0.00  0.00    -0.089 HD
ATOM     33  H   UNL     1      33.426 -22.988 -18.522  0.00  0.00    -0.089 HD
ENDBRANCH  29  30
ENDBRANCH  26  29
ENDBRANCH   3  23
TORSDOF 7
ENDMDL
MODEL 8
REMARK VINA RESULT:     -10.7      4.770     12.431
REMARK  Name = 657077
REMARK  7 active torsions:
REMARK  status: ('A' for Active; 'I' for Inactive)
REMARK    1  A    between atoms: C_3  and  C_23
REMARK    2  A    between atoms: C_8  and  C_10
REMARK    3  A    between atoms: C_12  and  C_15
REMARK    4  A    between atoms: C_15  and  C_16
REMARK    5  A    between atoms: C_16  and  C_17
REMARK    6  A    between atoms: C_26  and  C_29
REMARK    7  A    between atoms: C_29  and  N_30
REMARK                            x       y       z     vdW  Elec       q    Type
REMARK                         _______ _______ _______ _____ _____    ______ ____
ROOT
ATOM      1  O   UNL     1      37.313 -21.163 -17.897  0.00  0.00    -0.270 OA
ATOM      2  N   UNL     1      36.219 -20.701 -19.911  0.00  0.00    -0.276 N 
ATOM      3  C   UNL     1      35.612 -18.589 -21.795  0.00  0.00    +0.026 C 
ATOM      4  C   UNL     1      34.509 -19.489 -21.203  0.00  0.00    +0.026 C 
ATOM      5  C   UNL     1      36.813 -18.501 -20.834  0.00  0.00    +0.026 C 
ATOM      6  C   UNL     1      35.071 -20.857 -20.814  0.00  0.00    +0.094 C 
ATOM      7  C   UNL     1      37.314 -19.893 -20.449  0.00  0.00    +0.094 C 
ATOM      8  C   UNL     1      36.340 -21.272 -18.642  0.00  0.00    +0.251 C 
ENDROOT
BRANCH   8  10
ATOM      9  N   UNL     1      33.104 -23.153 -18.549  0.00  0.00    -0.242 NA
ATOM     10  C   UNL     1      35.216 -22.064 -18.130  0.00  0.00    +0.072 C 
ATOM     11  C   UNL     1      35.179 -22.470 -16.804  0.00  0.00    +0.003 C 
ATOM     12  C   UNL     1      34.100 -23.220 -16.347  0.00  0.00    -0.003 C 
ATOM     13  C   UNL     1      34.169 -22.425 -18.956  0.00  0.00    +0.103 C 
ATOM     14  C   UNL     1      33.098 -23.533 -17.252  0.00  0.00    +0.095 C 
BRANCH  12  15
ATOM     15  C   UNL     1      34.025 -23.674 -14.933  0.00  0.00    +0.033 C 
BRANCH  15  16
ATOM     16  C   UNL     1      32.888 -23.021 -14.119  0.00  0.00    +0.031 C 
BRANCH  16  17
ATOM     17  C   UNL     1      31.543 -23.665 -14.359  0.00  0.00    -0.022 C 
ATOM     18  C   UNL     1      30.492 -22.891 -14.824  0.00  0.00    -0.004 C 
ATOM     19  C   UNL     1      31.385 -25.019 -14.109  0.00  0.00    -0.004 C 
ATOM     20  C   UNL     1      29.250 -23.485 -15.045  0.00  0.00    -0.000 C 
ATOM     21  C   UNL     1      30.142 -25.614 -14.331  0.00  0.00    -0.000 C 
ATOM     22  C   UNL     1      29.075 -24.846 -14.798  0.00  0.00    -0.000 C 
ENDBRANCH  16  17
ENDBRANCH  15  16
ENDBRANCH  12  15
ENDBRANCH   8  10
BRANCH   3  23
ATOM     23  C   UNL     1      35.084 -17.219 -22.173  0.00  0.00    -0.023 C 
ATOM     24  C   UNL     1      34.853 -16.908 -23.512  0.00  0.00    -0.011 C 
ATOM     25  C   UNL     1      34.829 -16.274 -21.181  0.00  0.00    -0.004 C 
ATOM     26  C   UNL     1      34.367 -15.649 -23.860  0.00  0.00    -0.045 C 
ATOM     27  C   UNL     1      34.343 -15.014 -21.529  0.00  0.00    -0.001 C 
ATOM     28  C   UNL     1      34.112 -14.701 -22.868  0.00  0.00    -0.006 C 
BRANCH  26  29
ATOM     29  C   UNL     1      34.119 -15.313 -25.293  0.00  0.00    -0.059 C 
BRANCH  29  30
ATOM     30  N   UNL     1      32.858 -14.593 -25.485  0.00  0.00    +0.383 N 
ATOM     31  H   UNL     1      32.798 -13.828 -24.813  0.00  0.00    -0.089 HD
ATOM     32  H   UNL     1      32.076 -15.232 -25.344  0.00  0.00    -0.089 HD
ATOM     33  H   UNL     1      32.824 -14.217 -26.433  0.00  0.00    -0.089 HD
ENDBRANCH  29  30
ENDBRANCH  26  29
ENDBRANCH   3  23
TORSDOF 7
ENDMDL
MODEL 9
REMARK VINA RESULT:     -10.6      4.271      7.355
REMARK  Name = 657077
REMARK  7 active torsions:
REMARK  status: ('A' for Active; 'I' for Inactive)
REMARK    1  A    between atoms: C_3  and  C_23
REMARK    2  A    between atoms: C_8  and  C_10
REMARK    3  A    between atoms: C_12  and  C_15
REMARK    4  A    between atoms: C_15  and  C_16
REMARK    5  A    between atoms: C_16  and  C_17
REMARK    6  A    between atoms: C_26  and  C_29
REMARK    7  A    between atoms: C_29  and  N_30
REMARK                            x       y       z     vdW  Elec       q    Type
REMARK                         _______ _______ _______ _____ _____    ______ ____
ROOT
ATOM      1  O   UNL     1      32.647 -20.289 -20.255  0.00  0.00    -0.270 OA
ATOM      2  N   UNL     1      34.326 -21.699 -19.444  0.00  0.00    -0.276 N 
ATOM      3  C   UNL     1      35.234 -23.116 -17.090  0.00  0.00    +0.026 C 
ATOM      4  C   UNL     1      36.166 -22.177 -17.881  0.00  0.00    +0.026 C 
ATOM      5  C   UNL     1      33.763 -22.696 -17.269  0.00  0.00    +0.026 C 
ATOM      6  C   UNL     1      35.738 -22.090 -19.346  0.00  0.00    +0.094 C 
ATOM      7  C   UNL     1      33.396 -22.590 -18.749  0.00  0.00    +0.094 C 
ATOM      8  C   UNL     1      33.832 -20.601 -20.152  0.00  0.00    +0.251 C 
ENDROOT
BRANCH   8  10
ATOM      9  N   UNL     1      37.047 -18.869 -20.978  0.00  0.00    -0.242 NA
ATOM     10  C   UNL     1      34.795 -19.722 -20.825  0.00  0.00    +0.072 C 
ATOM     11  C   UNL     1      34.409 -18.937 -21.902  0.00  0.00    +0.003 C 
ATOM     12  C   UNL     1      35.344 -18.114 -22.520  0.00  0.00    -0.003 C 
ATOM     13  C   UNL     1      36.109 -19.656 -20.403  0.00  0.00    +0.103 C 
ATOM     14  C   UNL     1      36.639 -18.117 -22.025  0.00  0.00    +0.095 C 
BRANCH  12  15
ATOM     15  C   UNL     1      34.968 -17.259 -23.677  0.00  0.00    +0.033 C 
BRANCH  15  16
ATOM     16  C   UNL     1      35.287 -15.761 -23.486  0.00  0.00    +0.031 C 
BRANCH  16  17
ATOM     17  C   UNL     1      34.299 -15.054 -22.589  0.00  0.00    -0.022 C 
ATOM     18  C   UNL     1      34.263 -15.365 -21.239  0.00  0.00    -0.004 C 
ATOM     19  C   UNL     1      33.446 -14.108 -23.133  0.00  0.00    -0.004 C 
ATOM     20  C   UNL     1      33.351 -14.712 -20.412  0.00  0.00    -0.000 C 
ATOM     21  C   UNL     1      32.534 -13.454 -22.305  0.00  0.00    -0.000 C 
ATOM     22  C   UNL     1      32.486 -13.757 -20.944  0.00  0.00    -0.000 C 
ENDBRANCH  16  17
ENDBRANCH  15  16
ENDBRANCH  12  15
ENDBRANCH   8  10
BRANCH   3  23
ATOM     23  C   UNL     1      35.626 -23.206 -15.627  0.00  0.00    -0.023 C 
ATOM     24  C   UNL     1      34.729 -23.730 -14.699  0.00  0.00    -0.011 C 
ATOM     25  C   UNL     1      36.884 -22.767 -15.217  0.00  0.00    -0.004 C 
ATOM     26  C   UNL     1      35.090 -23.814 -13.354  0.00  0.00    -0.045 C 
ATOM     27  C   UNL     1      37.245 -22.851 -13.872  0.00  0.00    -0.001 C 
ATOM     28  C   UNL     1      36.348 -23.375 -12.941  0.00  0.00    -0.006 C 
BRANCH  26  29
ATOM     29  C   UNL     1      34.132 -24.375 -12.357  0.00  0.00    -0.059 C 
BRANCH  29  30
ATOM     30  N   UNL     1      33.034 -25.109 -12.991  0.00  0.00    +0.383 N 
ATOM     31  H   UNL     1      32.297 -25.276 -12.306  0.00  0.00    -0.089 HD
ATOM     32  H   UNL     1      33.380 -26.001 -13.344  0.00  0.00    -0.089 HD
ATOM     33  H   UNL     1      32.661 -24.558 -13.765  0.00  0.00    -0.089 HD
ENDBRANCH  29  30
ENDBRANCH  26  29
ENDBRANCH   3  23
TORSDOF 7
ENDMDL
