MODEL 1
REMARK VINA RESULT:     -11.6      0.000      0.000
REMARK  Name = 42627755
REMARK  2 active torsions:
REMARK  status: ('A' for Active; 'I' for Inactive)
REMARK    1  A    between atoms: N_5  and  C_20
REMARK    2  A    between atoms: C_7  and  C_28
REMARK                            x       y       z     vdW  Elec       q    Type
REMARK                         _______ _______ _______ _____ _____    ______ ____
ROOT
ATOM      1  N   UNL     1      35.489 -21.631 -19.039  0.00  0.00    -0.239 N 
ATOM      2  N   UNL     1      34.804 -22.231 -18.052  0.00  0.00    -0.166 NA
ATOM      3  N   UNL     1      32.404 -22.364 -17.625  0.00  0.00    -0.271 N 
ATOM      4  N   UNL     1      33.362 -23.594 -15.825  0.00  0.00    -0.322 NA
ATOM      5  N   UNL     1      34.261 -24.812 -14.038  0.00  0.00    -0.247 N 
ATOM      6  N   UNL     1      31.933 -24.592 -14.161  0.00  0.00    -0.170 NA
ATOM      7  C   UNL     1      34.700 -20.990 -19.948  0.00  0.00    +0.045 C 
ATOM      8  C   UNL     1      33.407 -21.186 -19.526  0.00  0.00    +0.048 C 
ATOM      9  C   UNL     1      33.532 -21.956 -18.354  0.00  0.00    +0.152 C 
ATOM     10  C   UNL     1      32.256 -23.126 -16.440  0.00  0.00    +0.199 C 
ATOM     11  C   UNL     1      30.973 -23.347 -15.983  0.00  0.00    +0.070 C 
ATOM     12  C   UNL     1      33.130 -24.309 -14.706  0.00  0.00    +0.150 C 
ATOM     13  C   UNL     1      30.870 -24.093 -14.827  0.00  0.00    +0.116 C 
ATOM     14  H   UNL     1      36.472 -21.651 -19.101  0.00  0.00    +0.174 HD
ATOM     15  H   UNL     1      31.551 -22.062 -18.011  0.00  0.00    +0.156 HD
ATOM     16  H   UNL     1      34.045 -25.327 -13.228  0.00  0.00    +0.165 HD
ENDROOT
BRANCH   5  20
ATOM     17  N   UNL     1      38.911 -26.484 -14.074  0.00  0.00    -0.315 N 
ATOM     18  N   UNL     1      39.737 -24.644 -15.007  0.00  0.00    -0.315 N 
ATOM     19  C   UNL     1      37.836 -25.654 -14.258  0.00  0.00    +0.060 C 
ATOM     20  C   UNL     1      35.647 -24.723 -14.304  0.00  0.00    +0.059 C 
ATOM     21  C   UNL     1      38.377 -24.512 -14.842  0.00  0.00    +0.059 C 
ATOM     22  C   UNL     1      36.478 -25.799 -13.973  0.00  0.00    +0.031 C 
ATOM     23  C   UNL     1      36.160 -23.565 -14.890  0.00  0.00    +0.017 C 
ATOM     24  C   UNL     1      37.527 -23.441 -15.168  0.00  0.00    +0.017 C 
ATOM     25  C   UNL     1      40.023 -25.837 -14.536  0.00  0.00    +0.182 C 
ATOM     26  H   UNL     1      38.887 -27.386 -13.679  0.00  0.00    +0.148 HD
ATOM     27  H   UNL     1      40.360 -23.987 -15.394  0.00  0.00    +0.148 HD
ENDBRANCH   5  20
BRANCH   7  28
ATOM     28  C   UNL     1      35.165 -20.218 -21.175  0.00  0.00    +0.037 C 
ATOM     29  C   UNL     1      36.344 -19.299 -21.045  0.00  0.00    +0.006 C 
ATOM     30  C   UNL     1      34.964 -18.731 -21.210  0.00  0.00    +0.006 C 
ENDBRANCH   7  28
TORSDOF 2
ENDMDL
MODEL 2
REMARK VINA RESULT:     -11.3      1.785      5.509
REMARK  Name = 42627755
REMARK  2 active torsions:
REMARK  status: ('A' for Active; 'I' for Inactive)
REMARK    1  A    between atoms: N_5  and  C_20
REMARK    2  A    between atoms: C_7  and  C_28
REMARK                            x       y       z     vdW  Elec       q    Type
REMARK                         _______ _______ _______ _____ _____    ______ ____
ROOT
ATOM      1  N   UNL     1      34.043 -21.933 -18.633  0.00  0.00    -0.239 N 
ATOM      2  N   UNL     1      34.419 -22.480 -17.465  0.00  0.00    -0.166 NA
ATOM      3  N   UNL     1      36.630 -22.740 -16.462  0.00  0.00    -0.271 N 
ATOM      4  N   UNL     1      35.167 -23.711 -14.853  0.00  0.00    -0.322 NA
ATOM      5  N   UNL     1      33.766 -24.675 -13.244  0.00  0.00    -0.247 N 
ATOM      6  N   UNL     1      36.068 -24.635 -12.818  0.00  0.00    -0.170 NA
ATOM      7  C   UNL     1      35.079 -21.447 -19.374  0.00  0.00    +0.045 C 
ATOM      8  C   UNL     1      36.213 -21.692 -18.638  0.00  0.00    +0.048 C 
ATOM      9  C   UNL     1      35.747 -22.330 -17.474  0.00  0.00    +0.152 C 
ATOM     10  C   UNL     1      36.425 -23.389 -15.220  0.00  0.00    +0.199 C 
ATOM     11  C   UNL     1      37.538 -23.653 -14.449  0.00  0.00    +0.070 C 
ATOM     12  C   UNL     1      35.063 -24.324 -13.658  0.00  0.00    +0.150 C 
ATOM     13  C   UNL     1      37.298 -24.285 -13.247  0.00  0.00    +0.116 C 
ATOM     14  H   UNL     1      33.104 -21.887 -18.927  0.00  0.00    +0.174 HD
ATOM     15  H   UNL     1      37.574 -22.539 -16.654  0.00  0.00    +0.156 HD
ATOM     16  H   UNL     1      33.737 -25.119 -12.366  0.00  0.00    +0.165 HD
ENDROOT
BRANCH   5  20
ATOM     17  N   UNL     1      30.537 -22.619 -16.369  0.00  0.00    -0.315 N 
ATOM     18  N   UNL     1      28.840 -23.895 -15.711  0.00  0.00    -0.315 N 
ATOM     19  C   UNL     1      31.050 -23.435 -15.395  0.00  0.00    +0.060 C 
ATOM     20  C   UNL     1      32.494 -24.514 -13.842  0.00  0.00    +0.059 C 
ATOM     21  C   UNL     1      29.972 -24.222 -15.000  0.00  0.00    +0.059 C 
ATOM     22  C   UNL     1      32.325 -23.549 -14.841  0.00  0.00    +0.031 C 
ATOM     23  C   UNL     1      31.433 -25.319 -13.425  0.00  0.00    +0.017 C 
ATOM     24  C   UNL     1      30.160 -25.187 -13.995  0.00  0.00    +0.017 C 
ATOM     25  C   UNL     1      29.214 -22.931 -16.522  0.00  0.00    +0.182 C 
ATOM     26  H   UNL     1      31.031 -21.930 -16.869  0.00  0.00    +0.148 HD
ATOM     27  H   UNL     1      27.945 -24.297 -15.630  0.00  0.00    +0.148 HD
ENDBRANCH   5  20
BRANCH   7  28
ATOM     28  C   UNL     1      34.988 -20.772 -20.736  0.00  0.00    +0.037 C 
ATOM     29  C   UNL     1      35.803 -19.538 -20.986  0.00  0.00    +0.006 C 
ATOM     30  C   UNL     1      34.314 -19.435 -20.834  0.00  0.00    +0.006 C 
ENDBRANCH   7  28
TORSDOF 2
ENDMDL
MODEL 3
REMARK VINA RESULT:     -10.3      1.815      6.910
REMARK  Name = 42627755
REMARK  2 active torsions:
REMARK  status: ('A' for Active; 'I' for Inactive)
REMARK    1  A    between atoms: N_5  and  C_20
REMARK    2  A    between atoms: C_7  and  C_28
REMARK                            x       y       z     vdW  Elec       q    Type
REMARK                         _______ _______ _______ _____ _____    ______ ____
ROOT
ATOM      1  N   UNL     1      36.299 -24.168 -13.917  0.00  0.00    -0.239 N 
ATOM      2  N   UNL     1      35.685 -23.635 -14.986  0.00  0.00    -0.166 NA
ATOM      3  N   UNL     1      36.593 -22.579 -16.991  0.00  0.00    -0.271 N 
ATOM      4  N   UNL     1      34.237 -22.476 -17.322  0.00  0.00    -0.322 NA
ATOM      5  N   UNL     1      31.927 -22.353 -17.689  0.00  0.00    -0.247 N 
ATOM      6  N   UNL     1      33.352 -21.472 -19.326  0.00  0.00    -0.170 NA
ATOM      7  C   UNL     1      37.661 -24.099 -13.973  0.00  0.00    +0.045 C 
ATOM      8  C   UNL     1      37.956 -23.479 -15.163  0.00  0.00    +0.048 C 
ATOM      9  C   UNL     1      36.702 -23.215 -15.744  0.00  0.00    +0.152 C 
ATOM     10  C   UNL     1      35.477 -22.205 -17.779  0.00  0.00    +0.199 C 
ATOM     11  C   UNL     1      35.731 -21.580 -18.982  0.00  0.00    +0.070 C 
ATOM     12  C   UNL     1      33.235 -22.087 -18.134  0.00  0.00    +0.150 C 
ATOM     13  C   UNL     1      34.619 -21.231 -19.721  0.00  0.00    +0.116 C 
ATOM     14  H   UNL     1      35.813 -24.571 -13.162  0.00  0.00    +0.174 HD
ATOM     15  H   UNL     1      37.460 -22.348 -17.395  0.00  0.00    +0.156 HD
ATOM     16  H   UNL     1      31.228 -22.053 -18.313  0.00  0.00    +0.165 HD
ENDROOT
BRANCH   5  20
ATOM     17  N   UNL     1      32.279 -25.033 -13.552  0.00  0.00    -0.315 N 
ATOM     18  N   UNL     1      30.122 -24.843 -13.053  0.00  0.00    -0.315 N 
ATOM     19  C   UNL     1      31.737 -24.275 -14.557  0.00  0.00    +0.060 C 
ATOM     20  C   UNL     1      31.422 -22.968 -16.520  0.00  0.00    +0.059 C 
ATOM     21  C   UNL     1      30.390 -24.170 -14.223  0.00  0.00    +0.059 C 
ATOM     22  C   UNL     1      32.292 -23.690 -15.695  0.00  0.00    +0.031 C 
ATOM     23  C   UNL     1      30.066 -22.845 -16.212  0.00  0.00    +0.017 C 
ATOM     24  C   UNL     1      29.530 -23.441 -15.063  0.00  0.00    +0.017 C 
ATOM     25  C   UNL     1      31.275 -25.348 -12.678  0.00  0.00    +0.182 C 
ATOM     26  H   UNL     1      33.223 -25.302 -13.473  0.00  0.00    +0.148 HD
ATOM     27  H   UNL     1      29.254 -24.927 -12.596  0.00  0.00    +0.148 HD
ENDBRANCH   5  20
BRANCH   7  28
ATOM     28  C   UNL     1      38.642 -24.609 -12.927  0.00  0.00    +0.037 C 
ATOM     29  C   UNL     1      39.581 -25.718 -13.298  0.00  0.00    +0.006 C 
ATOM     30  C   UNL     1      38.441 -25.983 -12.358  0.00  0.00    +0.006 C 
ENDBRANCH   7  28
TORSDOF 2
ENDMDL
MODEL 4
REMARK VINA RESULT:      -9.6      6.568     11.183
REMARK  Name = 42627755
REMARK  2 active torsions:
REMARK  status: ('A' for Active; 'I' for Inactive)
REMARK    1  A    between atoms: N_5  and  C_20
REMARK    2  A    between atoms: C_7  and  C_28
REMARK                            x       y       z     vdW  Elec       q    Type
REMARK                         _______ _______ _______ _____ _____    ______ ____
ROOT
ATOM      1  N   UNL     1      32.698 -13.608 -20.263  0.00  0.00    -0.239 N 
ATOM      2  N   UNL     1      33.017 -13.990 -21.511  0.00  0.00    -0.166 NA
ATOM      3  N   UNL     1      32.680 -12.877 -23.658  0.00  0.00    -0.271 N 
ATOM      4  N   UNL     1      33.762 -14.915 -24.247  0.00  0.00    -0.322 NA
ATOM      5  N   UNL     1      34.825 -16.906 -24.871  0.00  0.00    -0.247 N 
ATOM      6  N   UNL     1      34.240 -15.393 -26.560  0.00  0.00    -0.170 NA
ATOM      7  C   UNL     1      32.081 -12.393 -20.198  0.00  0.00    +0.045 C 
ATOM      8  C   UNL     1      31.991 -11.950 -21.495  0.00  0.00    +0.048 C 
ATOM      9  C   UNL     1      32.582 -12.972 -22.260  0.00  0.00    +0.152 C 
ATOM     10  C   UNL     1      33.216 -13.745 -24.640  0.00  0.00    +0.199 C 
ATOM     11  C   UNL     1      33.146 -13.337 -25.955  0.00  0.00    +0.070 C 
ATOM     12  C   UNL     1      34.248 -15.679 -25.244  0.00  0.00    +0.150 C 
ATOM     13  C   UNL     1      33.678 -14.209 -26.882  0.00  0.00    +0.116 C 
ATOM     14  H   UNL     1      32.892 -14.155 -19.467  0.00  0.00    +0.174 HD
ATOM     15  H   UNL     1      32.302 -12.047 -24.026  0.00  0.00    +0.156 HD
ATOM     16  H   UNL     1      35.167 -17.430 -25.631  0.00  0.00    +0.165 HD
ENDROOT
BRANCH   5  20
ATOM     17  N   UNL     1      34.942 -20.767 -21.790  0.00  0.00    -0.315 N 
ATOM     18  N   UNL     1      35.511 -19.546 -20.023  0.00  0.00    -0.315 N 
ATOM     19  C   UNL     1      35.029 -19.479 -22.249  0.00  0.00    +0.060 C 
ATOM     20  C   UNL     1      35.012 -17.533 -23.617  0.00  0.00    +0.059 C 
ATOM     21  C   UNL     1      35.386 -18.736 -21.128  0.00  0.00    +0.059 C 
ATOM     22  C   UNL     1      34.832 -18.916 -23.510  0.00  0.00    +0.031 C 
ATOM     23  C   UNL     1      35.369 -16.760 -22.511  0.00  0.00    +0.017 C 
ATOM     24  C   UNL     1      35.562 -17.347 -21.254  0.00  0.00    +0.017 C 
ATOM     25  C   UNL     1      35.238 -20.756 -20.455  0.00  0.00    +0.182 C 
ATOM     26  H   UNL     1      34.707 -21.560 -22.325  0.00  0.00    +0.148 HD
ATOM     27  H   UNL     1      35.754 -19.277 -19.107  0.00  0.00    +0.148 HD
ENDBRANCH   5  20
BRANCH   7  28
ATOM     28  C   UNL     1      31.595 -11.684 -18.942  0.00  0.00    +0.037 C 
ATOM     29  C   UNL     1      30.595 -10.574 -19.081  0.00  0.00    +0.006 C 
ATOM     30  C   UNL     1      32.015 -10.261 -18.710  0.00  0.00    +0.006 C 
ENDBRANCH   7  28
TORSDOF 2
ENDMDL
MODEL 5
REMARK VINA RESULT:      -9.5      1.556      6.165
REMARK  Name = 42627755
REMARK  2 active torsions:
REMARK  status: ('A' for Active; 'I' for Inactive)
REMARK    1  A    between atoms: N_5  and  C_20
REMARK    2  A    between atoms: C_7  and  C_28
REMARK                            x       y       z     vdW  Elec       q    Type
REMARK                         _______ _______ _______ _____ _____    ______ ____
ROOT
ATOM      1  N   UNL     1      37.275 -24.681 -15.218  0.00  0.00    -0.239 N 
ATOM      2  N   UNL     1      35.951 -24.458 -15.212  0.00  0.00    -0.166 NA
ATOM      3  N   UNL     1      34.209 -25.216 -13.678  0.00  0.00    -0.271 N 
ATOM      4  N   UNL     1      33.020 -23.909 -15.274  0.00  0.00    -0.322 NA
ATOM      5  N   UNL     1      31.809 -22.633 -16.820  0.00  0.00    -0.247 N 
ATOM      6  N   UNL     1      30.634 -23.642 -15.064  0.00  0.00    -0.170 NA
ATOM      7  C   UNL     1      37.707 -25.467 -14.190  0.00  0.00    +0.045 C 
ATOM      8  C   UNL     1      36.586 -25.778 -13.460  0.00  0.00    +0.048 C 
ATOM      9  C   UNL     1      35.534 -25.131 -14.136  0.00  0.00    +0.152 C 
ATOM     10  C   UNL     1      32.994 -24.673 -14.162  0.00  0.00    +0.199 C 
ATOM     11  C   UNL     1      31.844 -24.962 -13.457  0.00  0.00    +0.070 C 
ATOM     12  C   UNL     1      31.821 -23.433 -15.664  0.00  0.00    +0.150 C 
ATOM     13  C   UNL     1      30.682 -24.415 -13.959  0.00  0.00    +0.116 C 
ATOM     14  H   UNL     1      37.880 -24.311 -15.903  0.00  0.00    +0.174 HD
ATOM     15  H   UNL     1      34.105 -25.760 -12.865  0.00  0.00    +0.156 HD
ATOM     16  H   UNL     1      30.914 -22.307 -17.067  0.00  0.00    +0.165 HD
ENDROOT
BRANCH   5  20
ATOM     17  N   UNL     1      36.499 -22.153 -18.302  0.00  0.00    -0.315 N 
ATOM     18  N   UNL     1      35.972 -21.026 -20.144  0.00  0.00    -0.315 N 
ATOM     19  C   UNL     1      35.133 -22.048 -18.287  0.00  0.00    +0.060 C 
ATOM     20  C   UNL     1      32.833 -22.204 -17.696  0.00  0.00    +0.059 C 
ATOM     21  C   UNL     1      34.828 -21.341 -19.447  0.00  0.00    +0.059 C 
ATOM     22  C   UNL     1      34.166 -22.496 -17.387  0.00  0.00    +0.031 C 
ATOM     23  C   UNL     1      32.496 -21.497 -18.851  0.00  0.00    +0.017 C 
ATOM     24  C   UNL     1      33.483 -21.056 -19.742  0.00  0.00    +0.017 C 
ATOM     25  C   UNL     1      36.954 -21.527 -19.430  0.00  0.00    +0.182 C 
ATOM     26  H   UNL     1      37.055 -22.599 -17.622  0.00  0.00    +0.148 HD
ATOM     27  H   UNL     1      36.039 -20.533 -20.993  0.00  0.00    +0.148 HD
ENDBRANCH   5  20
BRANCH   7  28
ATOM     28  C   UNL     1      39.140 -25.903 -13.917  0.00  0.00    +0.037 C 
ATOM     29  C   UNL     1      40.139 -24.870 -13.488  0.00  0.00    +0.006 C 
ATOM     30  C   UNL     1      40.220 -25.465 -14.863  0.00  0.00    +0.006 C 
ENDBRANCH   7  28
TORSDOF 2
ENDMDL
MODEL 6
REMARK VINA RESULT:      -9.3     12.478     16.305
REMARK  Name = 42627755
REMARK  2 active torsions:
REMARK  status: ('A' for Active; 'I' for Inactive)
REMARK    1  A    between atoms: N_5  and  C_20
REMARK    2  A    between atoms: C_7  and  C_28
REMARK                            x       y       z     vdW  Elec       q    Type
REMARK                         _______ _______ _______ _____ _____    ______ ____
ROOT
ATOM      1  N   UNL     1      33.962 -12.037 -24.672  0.00  0.00    -0.239 N 
ATOM      2  N   UNL     1      33.514 -11.362 -23.601  0.00  0.00    -0.166 NA
ATOM      3  N   UNL     1      32.403 -12.140 -21.571  0.00  0.00    -0.271 N 
ATOM      4  N   UNL     1      32.549  -9.783 -21.261  0.00  0.00    -0.322 NA
ATOM      5  N   UNL     1      32.671  -7.470 -20.915  0.00  0.00    -0.247 N 
ATOM      6  N   UNL     1      31.675  -8.782 -19.251  0.00  0.00    -0.170 NA
ATOM      7  C   UNL     1      33.755 -13.384 -24.601  0.00  0.00    +0.045 C 
ATOM      8  C   UNL     1      33.127 -13.603 -23.399  0.00  0.00    +0.048 C 
ATOM      9  C   UNL     1      33.004 -12.324 -22.826  0.00  0.00    +0.152 C 
ATOM     10  C   UNL     1      32.159 -10.985 -20.788  0.00  0.00    +0.199 C 
ATOM     11  C   UNL     1      31.531 -11.162 -19.572  0.00  0.00    +0.070 C 
ATOM     12  C   UNL     1      32.280  -8.739 -20.453  0.00  0.00    +0.150 C 
ATOM     13  C   UNL     1      31.311 -10.015 -18.839  0.00  0.00    +0.116 C 
ATOM     14  H   UNL     1      34.401 -11.601 -25.438  0.00  0.00    +0.174 HD
ATOM     15  H   UNL     1      32.090 -12.975 -21.155  0.00  0.00    +0.156 HD
ATOM     16  H   UNL     1      32.455  -6.739 -20.293  0.00  0.00    +0.165 HD
ENDROOT
BRANCH   5  20
ATOM     17  N   UNL     1      32.966  -5.016 -25.194  0.00  0.00    -0.315 N 
ATOM     18  N   UNL     1      35.044  -5.681 -25.618  0.00  0.00    -0.315 N 
ATOM     19  C   UNL     1      33.318  -5.811 -24.135  0.00  0.00    +0.060 C 
ATOM     20  C   UNL     1      33.316  -7.041 -22.098  0.00  0.00    +0.059 C 
ATOM     21  C   UNL     1      34.619  -6.214 -24.423  0.00  0.00    +0.059 C 
ATOM     22  C   UNL     1      32.632  -6.202 -22.985  0.00  0.00    +0.031 C 
ATOM     23  C   UNL     1      34.621  -7.462 -22.359  0.00  0.00    +0.017 C 
ATOM     24  C   UNL     1      35.291  -7.057 -23.521  0.00  0.00    +0.017 C 
ATOM     25  C   UNL     1      34.029  -4.968 -26.053  0.00  0.00    +0.182 C 
ATOM     26  H   UNL     1      32.102  -4.559 -25.315  0.00  0.00    +0.148 HD
ATOM     27  H   UNL     1      35.918  -5.805 -26.053  0.00  0.00    +0.148 HD
ENDBRANCH   5  20
BRANCH   7  28
ATOM     28  C   UNL     1      34.142 -14.421 -25.646  0.00  0.00    +0.037 C 
ATOM     29  C   UNL     1      33.178 -15.527 -25.956  0.00  0.00    +0.006 C 
ATOM     30  C   UNL     1      34.437 -15.822 -25.195  0.00  0.00    +0.006 C 
ENDBRANCH   7  28
TORSDOF 2
ENDMDL
