MODEL 1
REMARK VINA RESULT:     -13.8      0.000      0.000
REMARK  Name = 67335295
REMARK  6 active torsions:
REMARK  status: ('A' for Active; 'I' for Inactive)
REMARK    1  A    between atoms: N_2  and  C_14
REMARK    2  A    between atoms: C_7  and  O_20
REMARK    3  A    between atoms: O_20  and  C_21
REMARK    4  A    between atoms: C_21  and  C_23
REMARK    5  A    between atoms: C_22  and  C_28
REMARK    6  A    between atoms: C_28  and  N_30
REMARK                            x       y       z     vdW  Elec       q    Type
REMARK                         _______ _______ _______ _____ _____    ______ ____
ROOT
ATOM      1  O   UNL     1      33.664 -24.664 -12.400  0.00  0.00    -0.270 OA
ATOM      2  N   UNL     1      34.855 -24.375 -14.420  0.00  0.00    -0.265 N 
ATOM      3  C   UNL     1      34.566 -23.860 -15.753  0.00  0.00    +0.124 C 
ATOM      4  C   UNL     1      33.133 -23.468 -15.629  0.00  0.00    +0.036 C 
ATOM      5  C   UNL     1      33.762 -24.320 -13.563  0.00  0.00    +0.249 C 
ATOM      6  C   UNL     1      32.663 -23.739 -14.343  0.00  0.00    +0.054 C 
ATOM      7  C   UNL     1      32.295 -22.911 -16.576  0.00  0.00    +0.137 C 
ATOM      8  C   UNL     1      31.365 -23.473 -13.952  0.00  0.00    +0.004 C 
ATOM      9  C   UNL     1      30.976 -22.632 -16.206  0.00  0.00    +0.037 C 
ATOM     10  C   UNL     1      30.515 -22.911 -14.905  0.00  0.00    +0.003 C 
ENDROOT
BRANCH   2  14
ATOM     11  O   UNL     1      36.984 -22.683 -14.550  0.00  0.00    -0.273 OA
ATOM     12  O   UNL     1      40.000 -26.149 -14.848  0.00  0.00    -0.275 OA
ATOM     13  N   UNL     1      38.455 -24.444 -14.719  0.00  0.00    -0.254 N 
ATOM     14  C   UNL     1      36.142 -24.888 -14.030  0.00  0.00    +0.153 C 
ATOM     15  C   UNL     1      36.390 -26.263 -14.630  0.00  0.00    +0.039 C 
ATOM     16  C   UNL     1      37.769 -26.749 -14.220  0.00  0.00    +0.088 C 
ATOM     17  C   UNL     1      37.197 -23.893 -14.479  0.00  0.00    +0.246 C 
ATOM     18  C   UNL     1      38.845 -25.778 -14.642  0.00  0.00    +0.228 C 
ATOM     19  H   UNL     1      39.158 -23.805 -14.978  0.00  0.00    +0.158 HD
ENDBRANCH   2  14
BRANCH   7  20
ATOM     20  O   UNL     1      32.730 -22.640 -17.833  0.00  0.00    -0.471 OA
BRANCH  20  21
ATOM     21  C   UNL     1      34.142 -22.621 -18.045  0.00  0.00    +0.232 C 
BRANCH  21  23
ATOM     22  C   UNL     1      35.048 -19.863 -21.205  0.00  0.00    -0.043 C 
ATOM     23  C   UNL     1      34.459 -21.655 -19.148  0.00  0.00    +0.021 C 
ATOM     24  C   UNL     1      33.720 -20.111 -20.853  0.00  0.00    -0.007 C 
ATOM     25  C   UNL     1      36.081 -20.512 -20.528  0.00  0.00    -0.007 C 
ATOM     26  C   UNL     1      33.426 -21.007 -19.825  0.00  0.00    -0.001 C 
ATOM     27  C   UNL     1      35.786 -21.407 -19.499  0.00  0.00    -0.001 C 
BRANCH  22  28
ATOM     28  C   UNL     1      35.362 -18.906 -22.304  0.00  0.00    -0.050 C 
BRANCH  28  30
ATOM     29  O   UNL     1      34.618 -14.795 -21.896  0.00  0.00    -0.358 OA
ATOM     30  N   UNL     1      34.665 -17.630 -22.145  0.00  0.00    +0.393 N 
ATOM     31  C   UNL     1      35.081 -16.961 -20.905  0.00  0.00    -0.044 C 
ATOM     32  C   UNL     1      34.914 -16.753 -23.298  0.00  0.00    -0.044 C 
ATOM     33  C   UNL     1      34.189 -15.425 -23.105  0.00  0.00    +0.119 C 
ATOM     34  C   UNL     1      34.350 -15.628 -20.768  0.00  0.00    +0.119 C 
ATOM     35  H   UNL     1      33.666 -17.824 -22.092  0.00  0.00    -0.079 HD
ENDBRANCH  28  30
ENDBRANCH  22  28
ENDBRANCH  21  23
ENDBRANCH  20  21
ENDBRANCH   7  20
TORSDOF 6
ENDMDL
MODEL 2
REMARK VINA RESULT:     -13.1      6.297     14.426
REMARK  Name = 67335295
REMARK  6 active torsions:
REMARK  status: ('A' for Active; 'I' for Inactive)
REMARK    1  A    between atoms: N_2  and  C_14
REMARK    2  A    between atoms: C_7  and  O_20
REMARK    3  A    between atoms: O_20  and  C_21
REMARK    4  A    between atoms: C_21  and  C_23
REMARK    5  A    between atoms: C_22  and  C_28
REMARK    6  A    between atoms: C_28  and  N_30
REMARK                            x       y       z     vdW  Elec       q    Type
REMARK                         _______ _______ _______ _____ _____    ______ ____
ROOT
ATOM      1  O   UNL     1      32.459  -7.030 -19.946  0.00  0.00    -0.270 OA
ATOM      2  N   UNL     1      32.912  -8.049 -22.029  0.00  0.00    -0.265 N 
ATOM      3  C   UNL     1      32.793  -9.385 -22.601  0.00  0.00    +0.124 C 
ATOM      4  C   UNL     1      32.238 -10.162 -21.456  0.00  0.00    +0.036 C 
ATOM      5  C   UNL     1      32.492  -7.980 -20.706  0.00  0.00    +0.249 C 
ATOM      6  C   UNL     1      32.062  -9.336 -20.345  0.00  0.00    +0.054 C 
ATOM      7  C   UNL     1      31.907 -11.502 -21.389  0.00  0.00    +0.137 C 
ATOM      8  C   UNL     1      31.560  -9.798 -19.144  0.00  0.00    +0.004 C 
ATOM      9  C   UNL     1      31.397 -11.996 -20.184  0.00  0.00    +0.037 C 
ATOM     10  C   UNL     1      31.225 -11.151 -19.072  0.00  0.00    +0.003 C 
ENDROOT
BRANCH   2  14
ATOM     11  O   UNL     1      31.096  -6.416 -23.233  0.00  0.00    -0.273 OA
ATOM     12  O   UNL     1      34.187  -4.849 -26.265  0.00  0.00    -0.275 OA
ATOM     13  N   UNL     1      32.667  -5.676 -24.743  0.00  0.00    -0.254 N 
ATOM     14  C   UNL     1      33.414  -6.915 -22.760  0.00  0.00    +0.153 C 
ATOM     15  C   UNL     1      34.592  -7.305 -23.639  0.00  0.00    +0.039 C 
ATOM     16  C   UNL     1      35.065  -6.089 -24.414  0.00  0.00    +0.088 C 
ATOM     17  C   UNL     1      32.273  -6.352 -23.589  0.00  0.00    +0.246 C 
ATOM     18  C   UNL     1      33.953  -5.495 -25.244  0.00  0.00    +0.228 C 
ATOM     19  H   UNL     1      31.940  -5.276 -25.272  0.00  0.00    +0.158 HD
ENDBRANCH   2  14
BRANCH   7  20
ATOM     20  O   UNL     1      32.072 -12.325 -22.456  0.00  0.00    -0.471 OA
BRANCH  20  21
ATOM     21  C   UNL     1      33.362 -12.349 -23.068  0.00  0.00    +0.232 C 
BRANCH  21  23
ATOM     22  C   UNL     1      34.759 -16.403 -23.245  0.00  0.00    -0.043 C 
ATOM     23  C   UNL     1      33.848 -13.767 -23.130  0.00  0.00    +0.021 C 
ATOM     24  C   UNL     1      34.818 -15.695 -22.043  0.00  0.00    -0.007 C 
ATOM     25  C   UNL     1      34.244 -15.792 -24.388  0.00  0.00    -0.007 C 
ATOM     26  C   UNL     1      34.363 -14.378 -21.986  0.00  0.00    -0.001 C 
ATOM     27  C   UNL     1      33.789 -14.474 -24.330  0.00  0.00    -0.001 C 
BRANCH  22  28
ATOM     28  C   UNL     1      35.245 -17.811 -23.305  0.00  0.00    -0.050 C 
BRANCH  28  30
ATOM     29  O   UNL     1      36.365 -20.445 -20.235  0.00  0.00    -0.358 OA
ATOM     30  N   UNL     1      35.476 -18.377 -21.977  0.00  0.00    +0.393 N 
ATOM     31  C   UNL     1      34.704 -19.614 -21.797  0.00  0.00    -0.044 C 
ATOM     32  C   UNL     1      36.907 -18.640 -21.764  0.00  0.00    -0.044 C 
ATOM     33  C   UNL     1      37.122 -19.242 -20.378  0.00  0.00    +0.119 C 
ATOM     34  C   UNL     1      34.971 -20.191 -20.410  0.00  0.00    +0.119 C 
ATOM     35  H   UNL     1      35.164 -17.693 -21.287  0.00  0.00    -0.079 HD
ENDBRANCH  28  30
ENDBRANCH  22  28
ENDBRANCH  21  23
ENDBRANCH  20  21
ENDBRANCH   7  20
TORSDOF 6
ENDMDL
MODEL 3
REMARK VINA RESULT:     -12.7      2.092      5.083
REMARK  Name = 67335295
REMARK  6 active torsions:
REMARK  status: ('A' for Active; 'I' for Inactive)
REMARK    1  A    between atoms: N_2  and  C_14
REMARK    2  A    between atoms: C_7  and  O_20
REMARK    3  A    between atoms: O_20  and  C_21
REMARK    4  A    between atoms: C_21  and  C_23
REMARK    5  A    between atoms: C_22  and  C_28
REMARK    6  A    between atoms: C_28  and  N_30
REMARK                            x       y       z     vdW  Elec       q    Type
REMARK                         _______ _______ _______ _____ _____    ______ ____
ROOT
ATOM      1  O   UNL     1      32.290 -25.206 -12.751  0.00  0.00    -0.270 OA
ATOM      2  N   UNL     1      31.875 -23.713 -14.534  0.00  0.00    -0.265 N 
ATOM      3  C   UNL     1      32.671 -23.019 -15.540  0.00  0.00    +0.124 C 
ATOM      4  C   UNL     1      34.050 -23.479 -15.211  0.00  0.00    +0.036 C 
ATOM      5  C   UNL     1      32.637 -24.505 -13.683  0.00  0.00    +0.249 C 
ATOM      6  C   UNL     1      34.029 -24.350 -14.122  0.00  0.00    +0.054 C 
ATOM      7  C   UNL     1      35.247 -23.157 -15.824  0.00  0.00    +0.137 C 
ATOM      8  C   UNL     1      35.172 -24.928 -13.606  0.00  0.00    +0.004 C 
ATOM      9  C   UNL     1      36.420 -23.728 -15.321  0.00  0.00    +0.037 C 
ATOM     10  C   UNL     1      36.382 -24.606 -14.221  0.00  0.00    +0.003 C 
ENDROOT
BRANCH   2  14
ATOM     11  O   UNL     1      30.354 -25.648 -15.699  0.00  0.00    -0.273 OA
ATOM     12  O   UNL     1      26.691 -22.878 -16.032  0.00  0.00    -0.275 OA
ATOM     13  N   UNL     1      28.555 -24.224 -15.866  0.00  0.00    -0.254 N 
ATOM     14  C   UNL     1      30.444 -23.591 -14.433  0.00  0.00    +0.153 C 
ATOM     15  C   UNL     1      29.991 -22.169 -14.728  0.00  0.00    +0.039 C 
ATOM     16  C   UNL     1      28.477 -22.096 -14.642  0.00  0.00    +0.088 C 
ATOM     17  C   UNL     1      29.821 -24.579 -15.403  0.00  0.00    +0.246 C 
ATOM     18  C   UNL     1      27.822 -23.074 -15.588  0.00  0.00    +0.228 C 
ATOM     19  H   UNL     1      28.124 -24.872 -16.469  0.00  0.00    +0.158 HD
ENDBRANCH   2  14
BRANCH   7  20
ATOM     20  O   UNL     1      35.293 -22.310 -16.884  0.00  0.00    -0.471 OA
BRANCH  20  21
ATOM     21  C   UNL     1      34.418 -22.587 -17.979  0.00  0.00    +0.232 C 
BRANCH  21  23
ATOM     22  C   UNL     1      35.258 -19.849 -21.175  0.00  0.00    -0.043 C 
ATOM     23  C   UNL     1      34.712 -21.628 -19.095  0.00  0.00    +0.021 C 
ATOM     24  C   UNL     1      33.936 -20.134 -20.829  0.00  0.00    -0.007 C 
ATOM     25  C   UNL     1      36.306 -20.454 -20.481  0.00  0.00    -0.007 C 
ATOM     26  C   UNL     1      33.664 -21.024 -19.789  0.00  0.00    -0.001 C 
ATOM     27  C   UNL     1      36.033 -21.343 -19.441  0.00  0.00    -0.001 C 
BRANCH  22  28
ATOM     28  C   UNL     1      35.549 -18.899 -22.286  0.00  0.00    -0.050 C 
BRANCH  28  30
ATOM     29  O   UNL     1      34.552 -14.829 -22.047  0.00  0.00    -0.358 OA
ATOM     30  N   UNL     1      34.775 -17.664 -22.178  0.00  0.00    +0.393 N 
ATOM     31  C   UNL     1      35.151 -16.918 -20.969  0.00  0.00    -0.044 C 
ATOM     32  C   UNL     1      34.966 -16.823 -23.368  0.00  0.00    -0.044 C 
ATOM     33  C   UNL     1      34.160 -15.534 -23.226  0.00  0.00    +0.119 C 
ATOM     34  C   UNL     1      34.340 -15.628 -20.884  0.00  0.00    +0.119 C 
ATOM     35  H   UNL     1      33.789 -17.916 -22.112  0.00  0.00    -0.079 HD
ENDBRANCH  28  30
ENDBRANCH  22  28
ENDBRANCH  21  23
ENDBRANCH  20  21
ENDBRANCH   7  20
TORSDOF 6
ENDMDL
MODEL 4
REMARK VINA RESULT:     -12.4      2.809     11.651
REMARK  Name = 67335295
REMARK  6 active torsions:
REMARK  status: ('A' for Active; 'I' for Inactive)
REMARK    1  A    between atoms: N_2  and  C_14
REMARK    2  A    between atoms: C_7  and  O_20
REMARK    3  A    between atoms: O_20  and  C_21
REMARK    4  A    between atoms: C_21  and  C_23
REMARK    5  A    between atoms: C_22  and  C_28
REMARK    6  A    between atoms: C_28  and  N_30
REMARK                            x       y       z     vdW  Elec       q    Type
REMARK                         _______ _______ _______ _____ _____    ______ ____
ROOT
ATOM      1  O   UNL     1      33.543 -13.910 -24.919  0.00  0.00    -0.270 OA
ATOM      2  N   UNL     1      34.095 -14.060 -22.627  0.00  0.00    -0.265 N 
ATOM      3  C   UNL     1      34.613 -15.086 -21.729  0.00  0.00    +0.124 C 
ATOM      4  C   UNL     1      34.771 -16.249 -22.648  0.00  0.00    +0.036 C 
ATOM      5  C   UNL     1      33.944 -14.504 -23.935  0.00  0.00    +0.249 C 
ATOM      6  C   UNL     1      34.378 -15.906 -23.942  0.00  0.00    +0.054 C 
ATOM      7  C   UNL     1      35.228 -17.524 -22.373  0.00  0.00    +0.137 C 
ATOM      8  C   UNL     1      34.422 -16.797 -24.996  0.00  0.00    +0.004 C 
ATOM      9  C   UNL     1      35.282 -18.446 -23.422  0.00  0.00    +0.037 C 
ATOM     10  C   UNL     1      34.883 -18.085 -24.723  0.00  0.00    +0.003 C 
ENDROOT
BRANCH   2  14
ATOM     11  O   UNL     1      32.042 -13.752 -20.866  0.00  0.00    -0.273 OA
ATOM     12  O   UNL     1      31.337  -9.377 -22.117  0.00  0.00    -0.275 OA
ATOM     13  N   UNL     1      31.709 -11.576 -21.537  0.00  0.00    -0.254 N 
ATOM     14  C   UNL     1      33.774 -12.723 -22.201  0.00  0.00    +0.153 C 
ATOM     15  C   UNL     1      33.744 -11.764 -23.381  0.00  0.00    +0.039 C 
ATOM     16  C   UNL     1      33.370 -10.377 -22.891  0.00  0.00    +0.088 C 
ATOM     17  C   UNL     1      32.431 -12.768 -21.495  0.00  0.00    +0.246 C 
ATOM     18  C   UNL     1      32.042 -10.384 -22.172  0.00  0.00    +0.228 C 
ATOM     19  H   UNL     1      30.851 -11.579 -21.053  0.00  0.00    +0.158 HD
ENDBRANCH   2  14
BRANCH   7  20
ATOM     20  O   UNL     1      35.614 -17.881 -21.121  0.00  0.00    -0.471 OA
BRANCH  20  21
ATOM     21  C   UNL     1      36.435 -19.044 -20.998  0.00  0.00    +0.232 C 
BRANCH  21  23
ATOM     22  C   UNL     1      34.249 -22.090 -18.910  0.00  0.00    -0.043 C 
ATOM     23  C   UNL     1      35.670 -20.108 -20.266  0.00  0.00    +0.021 C 
ATOM     24  C   UNL     1      35.640 -22.032 -18.806  0.00  0.00    -0.007 C 
ATOM     25  C   UNL     1      33.570 -21.157 -19.693  0.00  0.00    -0.007 C 
ATOM     26  C   UNL     1      36.350 -21.041 -19.484  0.00  0.00    -0.001 C 
ATOM     27  C   UNL     1      34.280 -20.165 -20.371  0.00  0.00    -0.001 C 
BRANCH  22  28
ATOM     28  C   UNL     1      33.491 -23.150 -18.186  0.00  0.00    -0.050 C 
BRANCH  28  30
ATOM     29  O   UNL     1      32.818 -23.650 -14.073  0.00  0.00    -0.358 OA
ATOM     30  N   UNL     1      33.386 -22.878 -16.753  0.00  0.00    +0.393 N 
ATOM     31  C   UNL     1      32.007 -23.073 -16.286  0.00  0.00    -0.044 C 
ATOM     32  C   UNL     1      34.303 -23.738 -15.991  0.00  0.00    -0.044 C 
ATOM     33  C   UNL     1      34.167 -23.445 -14.499  0.00  0.00    +0.119 C 
ATOM     34  C   UNL     1      31.925 -22.795 -14.787  0.00  0.00    +0.119 C 
ATOM     35  H   UNL     1      33.649 -21.904 -16.600  0.00  0.00    -0.079 HD
ENDBRANCH  28  30
ENDBRANCH  22  28
ENDBRANCH  21  23
ENDBRANCH  20  21
ENDBRANCH   7  20
TORSDOF 6
ENDMDL
MODEL 5
REMARK VINA RESULT:     -12.2      1.940      4.883
REMARK  Name = 67335295
REMARK  6 active torsions:
REMARK  status: ('A' for Active; 'I' for Inactive)
REMARK    1  A    between atoms: N_2  and  C_14
REMARK    2  A    between atoms: C_7  and  O_20
REMARK    3  A    between atoms: O_20  and  C_21
REMARK    4  A    between atoms: C_21  and  C_23
REMARK    5  A    between atoms: C_22  and  C_28
REMARK    6  A    between atoms: C_28  and  N_30
REMARK                            x       y       z     vdW  Elec       q    Type
REMARK                         _______ _______ _______ _____ _____    ______ ____
ROOT
ATOM      1  O   UNL     1      34.568 -24.897 -13.792  0.00  0.00    -0.270 OA
ATOM      2  N   UNL     1      33.755 -23.438 -15.463  0.00  0.00    -0.265 N 
ATOM      3  C   UNL     1      34.333 -22.529 -16.446  0.00  0.00    +0.124 C 
ATOM      4  C   UNL     1      35.793 -22.688 -16.190  0.00  0.00    +0.036 C 
ATOM      5  C   UNL     1      34.710 -24.086 -14.688  0.00  0.00    +0.249 C 
ATOM      6  C   UNL     1      36.013 -23.601 -15.159  0.00  0.00    +0.054 C 
ATOM      7  C   UNL     1      36.861 -22.074 -16.818  0.00  0.00    +0.137 C 
ATOM      8  C   UNL     1      37.277 -23.938 -14.716  0.00  0.00    +0.004 C 
ATOM      9  C   UNL     1      38.152 -22.397 -16.388  0.00  0.00    +0.037 C 
ATOM     10  C   UNL     1      38.358 -23.321 -15.346  0.00  0.00    +0.003 C 
ENDROOT
BRANCH   2  14
ATOM     11  O   UNL     1      32.179 -23.068 -17.652  0.00  0.00    -0.273 OA
ATOM     12  O   UNL     1      28.429 -22.296 -15.095  0.00  0.00    -0.275 OA
ATOM     13  N   UNL     1      30.335 -22.666 -16.336  0.00  0.00    -0.254 N 
ATOM     14  C   UNL     1      32.339 -23.643 -15.310  0.00  0.00    +0.153 C 
ATOM     15  C   UNL     1      31.821 -22.984 -14.041  0.00  0.00    +0.039 C 
ATOM     16  C   UNL     1      30.322 -23.197 -13.938  0.00  0.00    +0.088 C 
ATOM     17  C   UNL     1      31.650 -23.083 -16.541  0.00  0.00    +0.246 C 
ATOM     18  C   UNL     1      29.603 -22.661 -15.153  0.00  0.00    +0.228 C 
ATOM     19  H   UNL     1      29.864 -22.333 -17.134  0.00  0.00    +0.158 HD
ENDBRANCH   2  14
BRANCH   7  20
ATOM     20  O   UNL     1      36.672 -21.181 -17.822  0.00  0.00    -0.471 OA
BRANCH  20  21
ATOM     21  C   UNL     1      36.461 -21.708 -19.133  0.00  0.00    +0.232 C 
BRANCH  21  23
ATOM     22  C   UNL     1      35.716 -18.461 -21.838  0.00  0.00    -0.043 C 
ATOM     23  C   UNL     1      36.201 -20.574 -20.081  0.00  0.00    +0.021 C 
ATOM     24  C   UNL     1      36.987 -18.634 -21.287  0.00  0.00    -0.007 C 
ATOM     25  C   UNL     1      34.688 -19.344 -21.509  0.00  0.00    -0.007 C 
ATOM     26  C   UNL     1      37.229 -19.690 -20.409  0.00  0.00    -0.001 C 
ATOM     27  C   UNL     1      34.931 -20.401 -20.631  0.00  0.00    -0.001 C 
BRANCH  22  28
ATOM     28  C   UNL     1      35.458 -17.331 -22.777  0.00  0.00    -0.050 C 
BRANCH  28  30
ATOM     29  O   UNL     1      33.577 -13.921 -21.210  0.00  0.00    -0.358 OA
ATOM     30  N   UNL     1      34.431 -16.418 -22.278  0.00  0.00    +0.393 N 
ATOM     31  C   UNL     1      34.696 -16.049 -20.881  0.00  0.00    -0.044 C 
ATOM     32  C   UNL     1      34.358 -15.210 -23.113  0.00  0.00    -0.044 C 
ATOM     33  C   UNL     1      33.290 -14.267 -22.566  0.00  0.00    +0.119 C 
ATOM     34  C   UNL     1      33.619 -15.087 -20.387  0.00  0.00    +0.119 C 
ATOM     35  H   UNL     1      33.534 -16.901 -22.324  0.00  0.00    -0.079 HD
ENDBRANCH  28  30
ENDBRANCH  22  28
ENDBRANCH  21  23
ENDBRANCH  20  21
ENDBRANCH   7  20
TORSDOF 6
ENDMDL
MODEL 6
REMARK VINA RESULT:     -11.8      2.416     11.309
REMARK  Name = 67335295
REMARK  6 active torsions:
REMARK  status: ('A' for Active; 'I' for Inactive)
REMARK    1  A    between atoms: N_2  and  C_14
REMARK    2  A    between atoms: C_7  and  O_20
REMARK    3  A    between atoms: O_20  and  C_21
REMARK    4  A    between atoms: C_21  and  C_23
REMARK    5  A    between atoms: C_22  and  C_28
REMARK    6  A    between atoms: C_28  and  N_30
REMARK                            x       y       z     vdW  Elec       q    Type
REMARK                         _______ _______ _______ _____ _____    ______ ____
ROOT
ATOM      1  O   UNL     1      33.837 -15.220 -24.622  0.00  0.00    -0.270 OA
ATOM      2  N   UNL     1      34.344 -15.265 -22.315  0.00  0.00    -0.265 N 
ATOM      3  C   UNL     1      34.836 -16.250 -21.359  0.00  0.00    +0.124 C 
ATOM      4  C   UNL     1      35.002 -17.456 -22.219  0.00  0.00    +0.036 C 
ATOM      5  C   UNL     1      34.214 -15.769 -23.604  0.00  0.00    +0.249 C 
ATOM      6  C   UNL     1      34.636 -17.173 -23.535  0.00  0.00    +0.054 C 
ATOM      7  C   UNL     1      35.443 -18.720 -21.874  0.00  0.00    +0.137 C 
ATOM      8  C   UNL     1      34.694 -18.113 -24.545  0.00  0.00    +0.004 C 
ATOM      9  C   UNL     1      35.510 -19.692 -22.877  0.00  0.00    +0.037 C 
ATOM     10  C   UNL     1      35.138 -19.390 -24.202  0.00  0.00    +0.003 C 
ENDROOT
BRANCH   2  14
ATOM     11  O   UNL     1      32.413 -14.867 -20.437  0.00  0.00    -0.273 OA
ATOM     12  O   UNL     1      31.531 -10.602 -21.930  0.00  0.00    -0.275 OA
ATOM     13  N   UNL     1      31.989 -12.749 -21.229  0.00  0.00    -0.254 N 
ATOM     14  C   UNL     1      34.026 -13.906 -21.960  0.00  0.00    +0.153 C 
ATOM     15  C   UNL     1      33.893 -13.032 -23.197  0.00  0.00    +0.039 C 
ATOM     16  C   UNL     1      33.525 -11.620 -22.778  0.00  0.00    +0.088 C 
ATOM     17  C   UNL     1      32.737 -13.923 -21.158  0.00  0.00    +0.246 C 
ATOM     18  C   UNL     1      32.251 -11.598 -21.967  0.00  0.00    +0.228 C 
ATOM     19  H   UNL     1      31.168 -12.732 -20.686  0.00  0.00    +0.158 HD
ENDBRANCH   2  14
BRANCH   7  20
ATOM     20  O   UNL     1      35.802 -19.020 -20.599  0.00  0.00    -0.471 OA
BRANCH  20  21
ATOM     21  C   UNL     1      36.696 -20.118 -20.415  0.00  0.00    +0.232 C 
BRANCH  21  23
ATOM     22  C   UNL     1      35.233 -22.602 -17.236  0.00  0.00    -0.043 C 
ATOM     23  C   UNL     1      36.184 -20.985 -19.302  0.00  0.00    +0.021 C 
ATOM     24  C   UNL     1      36.521 -22.068 -17.168  0.00  0.00    -0.007 C 
ATOM     25  C   UNL     1      34.422 -22.328 -18.336  0.00  0.00    -0.007 C 
ATOM     26  C   UNL     1      36.996 -21.260 -18.202  0.00  0.00    -0.001 C 
ATOM     27  C   UNL     1      34.897 -21.519 -19.369  0.00  0.00    -0.001 C 
BRANCH  22  28
ATOM     28  C   UNL     1      34.726 -23.466 -16.132  0.00  0.00    -0.050 C 
BRANCH  28  30
ATOM     29  O   UNL     1      36.786 -25.219 -12.921  0.00  0.00    -0.358 OA
ATOM     30  N   UNL     1      35.805 -23.983 -15.291  0.00  0.00    +0.393 N 
ATOM     31  C   UNL     1      35.862 -23.259 -14.014  0.00  0.00    -0.044 C 
ATOM     32  C   UNL     1      35.631 -25.422 -15.047  0.00  0.00    -0.044 C 
ATOM     33  C   UNL     1      36.760 -25.936 -14.157  0.00  0.00    +0.119 C 
ATOM     34  C   UNL     1      36.986 -23.823 -13.149  0.00  0.00    +0.119 C 
ATOM     35  H   UNL     1      36.684 -23.840 -15.787  0.00  0.00    -0.079 HD
ENDBRANCH  28  30
ENDBRANCH  22  28
ENDBRANCH  21  23
ENDBRANCH  20  21
ENDBRANCH   7  20
TORSDOF 6
ENDMDL
MODEL 7
REMARK VINA RESULT:     -11.5      1.904      2.919
REMARK  Name = 67335295
REMARK  6 active torsions:
REMARK  status: ('A' for Active; 'I' for Inactive)
REMARK    1  A    between atoms: N_2  and  C_14
REMARK    2  A    between atoms: C_7  and  O_20
REMARK    3  A    between atoms: O_20  and  C_21
REMARK    4  A    between atoms: C_21  and  C_23
REMARK    5  A    between atoms: C_22  and  C_28
REMARK    6  A    between atoms: C_28  and  N_30
REMARK                            x       y       z     vdW  Elec       q    Type
REMARK                         _______ _______ _______ _____ _____    ______ ____
ROOT
ATOM      1  O   UNL     1      33.910 -24.639 -14.622  0.00  0.00    -0.270 OA
ATOM      2  N   UNL     1      36.011 -23.769 -15.263  0.00  0.00    -0.265 N 
ATOM      3  C   UNL     1      36.517 -22.895 -16.315  0.00  0.00    +0.124 C 
ATOM      4  C   UNL     1      35.275 -22.573 -17.072  0.00  0.00    +0.036 C 
ATOM      5  C   UNL     1      34.638 -23.975 -15.336  0.00  0.00    +0.249 C 
ATOM      6  C   UNL     1      34.173 -23.207 -16.497  0.00  0.00    +0.054 C 
ATOM      7  C   UNL     1      35.116 -21.777 -18.191  0.00  0.00    +0.137 C 
ATOM      8  C   UNL     1      32.893 -23.080 -16.998  0.00  0.00    +0.004 C 
ATOM      9  C   UNL     1      33.829 -21.632 -18.720  0.00  0.00    +0.037 C 
ATOM     10  C   UNL     1      32.727 -22.278 -18.128  0.00  0.00    +0.003 C 
ENDROOT
BRANCH   2  14
ATOM     11  O   UNL     1      36.581 -26.422 -15.477  0.00  0.00    -0.273 OA
ATOM     12  O   UNL     1      37.486 -26.815 -10.979  0.00  0.00    -0.275 OA
ATOM     13  N   UNL     1      37.002 -26.579 -13.220  0.00  0.00    -0.254 N 
ATOM     14  C   UNL     1      36.847 -24.357 -14.250  0.00  0.00    +0.153 C 
ATOM     15  C   UNL     1      36.421 -23.913 -12.859  0.00  0.00    +0.039 C 
ATOM     16  C   UNL     1      37.308 -24.582 -11.824  0.00  0.00    +0.088 C 
ATOM     17  C   UNL     1      36.765 -25.866 -14.395  0.00  0.00    +0.246 C 
ATOM     18  C   UNL     1      37.259 -26.086 -11.944  0.00  0.00    +0.228 C 
ATOM     19  H   UNL     1      36.987 -27.560 -13.306  0.00  0.00    +0.158 HD
ENDBRANCH   2  14
BRANCH   7  20
ATOM     20  O   UNL     1      36.173 -21.152 -18.770  0.00  0.00    -0.471 OA
BRANCH  20  21
ATOM     21  C   UNL     1      36.403 -21.407 -20.156  0.00  0.00    +0.232 C 
BRANCH  21  23
ATOM     22  C   UNL     1      35.551 -17.844 -22.390  0.00  0.00    -0.043 C 
ATOM     23  C   UNL     1      36.106 -20.162 -20.939  0.00  0.00    +0.021 C 
ATOM     24  C   UNL     1      36.694 -17.911 -21.591  0.00  0.00    -0.007 C 
ATOM     25  C   UNL     1      34.687 -18.936 -22.463  0.00  0.00    -0.007 C 
ATOM     26  C   UNL     1      36.971 -19.070 -20.866  0.00  0.00    -0.001 C 
ATOM     27  C   UNL     1      34.965 -20.095 -21.738  0.00  0.00    -0.001 C 
BRANCH  22  28
ATOM     28  C   UNL     1      35.256 -16.605 -23.165  0.00  0.00    -0.050 C 
BRANCH  28  30
ATOM     29  O   UNL     1      33.319 -13.472 -21.151  0.00  0.00    -0.358 OA
ATOM     30  N   UNL     1      34.216 -15.791 -22.537  0.00  0.00    +0.393 N 
ATOM     31  C   UNL     1      34.504 -15.589 -21.110  0.00  0.00    -0.044 C 
ATOM     32  C   UNL     1      34.089 -14.493 -23.214  0.00  0.00    -0.044 C 
ATOM     33  C   UNL     1      33.008 -13.657 -22.534  0.00  0.00    +0.119 C 
ATOM     34  C   UNL     1      33.413 -14.728 -20.480  0.00  0.00    +0.119 C 
ATOM     35  H   UNL     1      33.332 -16.292 -22.623  0.00  0.00    -0.079 HD
ENDBRANCH  28  30
ENDBRANCH  22  28
ENDBRANCH  21  23
ENDBRANCH  20  21
ENDBRANCH   7  20
TORSDOF 6
ENDMDL
MODEL 8
REMARK VINA RESULT:     -11.3     10.126     14.483
REMARK  Name = 67335295
REMARK  6 active torsions:
REMARK  status: ('A' for Active; 'I' for Inactive)
REMARK    1  A    between atoms: N_2  and  C_14
REMARK    2  A    between atoms: C_7  and  O_20
REMARK    3  A    between atoms: O_20  and  C_21
REMARK    4  A    between atoms: C_21  and  C_23
REMARK    5  A    between atoms: C_22  and  C_28
REMARK    6  A    between atoms: C_28  and  N_30
REMARK                            x       y       z     vdW  Elec       q    Type
REMARK                         _______ _______ _______ _____ _____    ______ ____
ROOT
ATOM      1  O   UNL     1      31.974 -14.003 -20.241  0.00  0.00    -0.270 OA
ATOM      2  N   UNL     1      32.705 -12.995 -22.250  0.00  0.00    -0.265 N 
ATOM      3  C   UNL     1      32.880 -11.636 -22.748  0.00  0.00    +0.124 C 
ATOM      4  C   UNL     1      32.446 -10.821 -21.578  0.00  0.00    +0.036 C 
ATOM      5  C   UNL     1      32.226 -13.043 -20.945  0.00  0.00    +0.249 C 
ATOM      6  C   UNL     1      32.062 -11.648 -20.522  0.00  0.00    +0.054 C 
ATOM      7  C   UNL     1      32.389  -9.446 -21.445  0.00  0.00    +0.137 C 
ATOM      8  C   UNL     1      31.615 -11.154 -19.312  0.00  0.00    +0.004 C 
ATOM      9  C   UNL     1      31.939  -8.920 -20.230  0.00  0.00    +0.037 C 
ATOM     10  C   UNL     1      31.556  -9.767 -19.173  0.00  0.00    +0.003 C 
ENDROOT
BRANCH   2  14
ATOM     11  O   UNL     1      34.768 -14.573 -21.433  0.00  0.00    -0.273 OA
ATOM     12  O   UNL     1      35.354 -16.359 -25.637  0.00  0.00    -0.275 OA
ATOM     13  N   UNL     1      35.041 -15.423 -23.554  0.00  0.00    -0.254 N 
ATOM     14  C   UNL     1      32.998 -14.169 -23.029  0.00  0.00    +0.153 C 
ATOM     15  C   UNL     1      32.992 -13.857 -24.517  0.00  0.00    +0.039 C 
ATOM     16  C   UNL     1      33.338 -15.113 -25.296  0.00  0.00    +0.088 C 
ATOM     17  C   UNL     1      34.348 -14.701 -22.583  0.00  0.00    +0.246 C 
ATOM     18  C   UNL     1      34.673 -15.677 -24.872  0.00  0.00    +0.228 C 
ATOM     19  H   UNL     1      35.903 -15.804 -23.268  0.00  0.00    +0.158 HD
ENDBRANCH   2  14
BRANCH   7  20
ATOM     20  O   UNL     1      32.755  -8.622 -22.460  0.00  0.00    -0.471 OA
BRANCH  20  21
ATOM     21  C   UNL     1      33.659  -7.562 -22.145  0.00  0.00    +0.232 C 
BRANCH  21  23
ATOM     22  C   UNL     1      33.996  -4.963 -25.544  0.00  0.00    -0.043 C 
ATOM     23  C   UNL     1      33.777  -6.651 -23.332  0.00  0.00    +0.021 C 
ATOM     24  C   UNL     1      32.837  -4.947 -24.764  0.00  0.00    -0.007 C 
ATOM     25  C   UNL     1      35.043  -5.823 -25.217  0.00  0.00    -0.007 C 
ATOM     26  C   UNL     1      32.729  -5.792 -23.659  0.00  0.00    -0.001 C 
ATOM     27  C   UNL     1      34.935  -6.667 -24.111  0.00  0.00    -0.001 C 
BRANCH  22  28
ATOM     28  C   UNL     1      34.111  -4.061 -26.725  0.00  0.00    -0.050 C 
BRANCH  28  30
ATOM     29  O   UNL     1      37.096  -3.802 -29.664  0.00  0.00    -0.358 OA
ATOM     30  N   UNL     1      35.278  -4.371 -27.550  0.00  0.00    +0.393 N 
ATOM     31  C   UNL     1      34.892  -4.531 -28.959  0.00  0.00    -0.044 C 
ATOM     32  C   UNL     1      36.299  -3.322 -27.423  0.00  0.00    -0.044 C 
ATOM     33  C   UNL     1      37.500  -3.660 -28.301  0.00  0.00    +0.119 C 
ATOM     34  C   UNL     1      36.127  -4.841 -29.800  0.00  0.00    +0.119 C 
ATOM     35  H   UNL     1      35.671  -5.251 -27.217  0.00  0.00    -0.079 HD
ENDBRANCH  28  30
ENDBRANCH  22  28
ENDBRANCH  21  23
ENDBRANCH  20  21
ENDBRANCH   7  20
TORSDOF 6
ENDMDL
MODEL 9
REMARK VINA RESULT:     -11.1      7.425     15.704
REMARK  Name = 67335295
REMARK  6 active torsions:
REMARK  status: ('A' for Active; 'I' for Inactive)
REMARK    1  A    between atoms: N_2  and  C_14
REMARK    2  A    between atoms: C_7  and  O_20
REMARK    3  A    between atoms: O_20  and  C_21
REMARK    4  A    between atoms: C_21  and  C_23
REMARK    5  A    between atoms: C_22  and  C_28
REMARK    6  A    between atoms: C_28  and  N_30
REMARK                            x       y       z     vdW  Elec       q    Type
REMARK                         _______ _______ _______ _____ _____    ______ ____
ROOT
ATOM      1  O   UNL     1      32.732  -5.107 -21.687  0.00  0.00    -0.270 OA
ATOM      2  N   UNL     1      32.420  -6.804 -23.301  0.00  0.00    -0.265 N 
ATOM      3  C   UNL     1      32.113  -8.229 -23.291  0.00  0.00    +0.124 C 
ATOM      4  C   UNL     1      32.007  -8.511 -21.832  0.00  0.00    +0.036 C 
ATOM      5  C   UNL     1      32.498  -6.252 -22.028  0.00  0.00    +0.249 C 
ATOM      6  C   UNL     1      32.233  -7.350 -21.092  0.00  0.00    +0.054 C 
ATOM      7  C   UNL     1      31.731  -9.704 -21.190  0.00  0.00    +0.137 C 
ATOM      8  C   UNL     1      32.195  -7.325 -19.712  0.00  0.00    +0.004 C 
ATOM      9  C   UNL     1      31.687  -9.707 -19.793  0.00  0.00    +0.037 C 
ATOM     10  C   UNL     1      31.917  -8.527 -19.060  0.00  0.00    +0.003 C 
ENDROOT
BRANCH   2  14
ATOM     11  O   UNL     1      34.835  -7.011 -24.541  0.00  0.00    -0.273 OA
ATOM     12  O   UNL     1      34.340  -2.958 -26.667  0.00  0.00    -0.275 OA
ATOM     13  N   UNL     1      34.557  -4.971 -25.566  0.00  0.00    -0.254 N 
ATOM     14  C   UNL     1      32.620  -6.045 -24.508  0.00  0.00    +0.153 C 
ATOM     15  C   UNL     1      32.111  -4.620 -24.352  0.00  0.00    +0.039 C 
ATOM     16  C   UNL     1      32.373  -3.849 -25.633  0.00  0.00    +0.088 C 
ATOM     17  C   UNL     1      34.103  -6.066 -24.832  0.00  0.00    +0.246 C 
ATOM     18  C   UNL     1      33.839  -3.858 -25.993  0.00  0.00    +0.228 C 
ATOM     19  H   UNL     1      35.509  -4.988 -25.814  0.00  0.00    +0.158 HD
ENDBRANCH   2  14
BRANCH   7  20
ATOM     20  O   UNL     1      31.510 -10.847 -21.889  0.00  0.00    -0.471 OA
BRANCH  20  21
ATOM     21  C   UNL     1      31.263 -12.035 -21.135  0.00  0.00    +0.232 C 
BRANCH  21  23
ATOM     22  C   UNL     1      34.260 -14.951 -22.101  0.00  0.00    -0.043 C 
ATOM     23  C   UNL     1      32.309 -13.056 -21.474  0.00  0.00    +0.021 C 
ATOM     24  C   UNL     1      33.630 -14.983 -20.855  0.00  0.00    -0.007 C 
ATOM     25  C   UNL     1      33.914 -13.972 -23.032  0.00  0.00    -0.007 C 
ATOM     26  C   UNL     1      32.655 -14.035 -20.542  0.00  0.00    -0.001 C 
ATOM     27  C   UNL     1      32.938 -13.025 -22.719  0.00  0.00    -0.001 C 
BRANCH  22  28
ATOM     28  C   UNL     1      35.302 -15.964 -22.435  0.00  0.00    -0.050 C 
BRANCH  28  30
ATOM     29  O   UNL     1      35.098 -20.156 -22.508  0.00  0.00    -0.358 OA
ATOM     30  N   UNL     1      34.779 -17.329 -22.408  0.00  0.00    +0.393 N 
ATOM     31  C   UNL     1      35.076 -18.025 -23.668  0.00  0.00    -0.044 C 
ATOM     32  C   UNL     1      35.338 -18.079 -21.275  0.00  0.00    -0.044 C 
ATOM     33  C   UNL     1      34.789 -19.503 -21.275  0.00  0.00    +0.119 C 
ATOM     34  C   UNL     1      34.532 -19.449 -23.612  0.00  0.00    +0.119 C 
ATOM     35  H   UNL     1      33.767 -17.274 -22.296  0.00  0.00    -0.079 HD
ENDBRANCH  28  30
ENDBRANCH  22  28
ENDBRANCH  21  23
ENDBRANCH  20  21
ENDBRANCH   7  20
TORSDOF 6
ENDMDL
