MODEL 1
REMARK VINA RESULT:     -11.6      0.000      0.000
REMARK  Name = 11610526
REMARK  3 active torsions:
REMARK  status: ('A' for Active; 'I' for Inactive)
REMARK    1  A    between atoms: C_2  and  C_21
REMARK    2  A    between atoms: C_9  and  C_14
REMARK    3  A    between atoms: C_21  and  C_23
REMARK                            x       y       z     vdW  Elec       q    Type
REMARK                         _______ _______ _______ _____ _____    ______ ____
ROOT
ATOM      1  N   UNL     1      35.123 -16.984 -21.925  0.00  0.00    -0.388 NA
ATOM      2  C   UNL     1      35.534 -18.218 -22.225  0.00  0.00    +0.167 C 
ATOM      3  C   UNL     1      35.487 -18.823 -23.451  0.00  0.00    +0.031 C 
ATOM      4  C   UNL     1      34.611 -16.285 -22.963  0.00  0.00    +0.167 C 
ATOM      5  C   UNL     1      34.954 -18.073 -24.494  0.00  0.00    -0.015 C 
ATOM      6  C   UNL     1      34.506 -16.778 -24.253  0.00  0.00    +0.101 C 
ATOM      7  O   UNL     1      33.400 -14.291 -24.846  0.00  0.00    -0.270 OA
ATOM      8  N   UNL     1      34.158 -14.981 -22.731  0.00  0.00    -0.259 N 
ATOM      9  C   UNL     1      33.598 -14.091 -23.652  0.00  0.00    +0.255 C 
ATOM     10  H   UNL     1      34.242 -14.651 -21.808  0.00  0.00    +0.157 HD
ENDROOT
BRANCH   9  14
ATOM     11  F   UNL     1      31.923 -13.796 -21.422  0.00  0.00    -0.204 F 
ATOM     12  F   UNL     1      34.549 -11.707 -24.785  0.00  0.00    -0.204 F 
ATOM     13  F   UNL     1      32.243  -9.079 -21.599  0.00  0.00    -0.204 F 
ATOM     14  C   UNL     1      33.237 -12.757 -23.106  0.00  0.00    +0.109 C 
ATOM     15  C   UNL     1      32.408 -12.690 -22.005  0.00  0.00    +0.149 C 
ATOM     16  C   UNL     1      33.743 -11.629 -23.716  0.00  0.00    +0.149 C 
ATOM     17  C   UNL     1      32.069 -11.438 -21.493  0.00  0.00    +0.060 C 
ATOM     18  C   UNL     1      33.404 -10.376 -23.203  0.00  0.00    +0.060 C 
ATOM     19  C   UNL     1      32.567 -10.281 -22.092  0.00  0.00    +0.145 C 
ENDBRANCH   9  14
BRANCH   2  21
ATOM     20  O   UNL     1      37.063 -18.534 -20.457  0.00  0.00    -0.289 OA
ATOM     21  C   UNL     1      36.094 -18.975 -21.071  0.00  0.00    +0.202 C 
BRANCH  21  23
ATOM     22  N   UNL     1      34.140 -21.841 -18.590  0.00  0.00    +0.386 N 
ATOM     23  C   UNL     1      35.460 -20.273 -20.675  0.00  0.00    +0.060 C 
ATOM     24  C   UNL     1      34.006 -20.031 -20.271  0.00  0.00    -0.015 C 
ATOM     25  C   UNL     1      36.234 -20.909 -19.522  0.00  0.00    -0.015 C 
ATOM     26  C   UNL     1      33.365 -21.305 -19.717  0.00  0.00    -0.077 C 
ATOM     27  C   UNL     1      35.517 -22.154 -18.994  0.00  0.00    -0.077 C 
ATOM     28  C   UNL     1      33.486 -23.027 -18.039  0.00  0.00    -0.101 C 
ATOM     29  H   UNL     1      34.180 -21.123 -17.866  0.00  0.00    -0.080 HD
ENDBRANCH  21  23
ENDBRANCH   2  21
TORSDOF 3
ENDMDL
MODEL 2
REMARK VINA RESULT:     -11.2      6.050     11.449
REMARK  Name = 11610526
REMARK  3 active torsions:
REMARK  status: ('A' for Active; 'I' for Inactive)
REMARK    1  A    between atoms: C_2  and  C_21
REMARK    2  A    between atoms: C_9  and  C_14
REMARK    3  A    between atoms: C_21  and  C_23
REMARK                            x       y       z     vdW  Elec       q    Type
REMARK                         _______ _______ _______ _____ _____    ______ ____
ROOT
ATOM      1  N   UNL     1      35.749 -21.734 -18.471  0.00  0.00    -0.388 NA
ATOM      2  C   UNL     1      35.037 -21.113 -19.415  0.00  0.00    +0.167 C 
ATOM      3  C   UNL     1      33.682 -21.168 -19.589  0.00  0.00    +0.031 C 
ATOM      4  C   UNL     1      35.025 -22.490 -17.616  0.00  0.00    +0.167 C 
ATOM      5  C   UNL     1      32.971 -21.955 -18.689  0.00  0.00    -0.015 C 
ATOM      6  C   UNL     1      33.648 -22.632 -17.681  0.00  0.00    +0.101 C 
ATOM      7  O   UNL     1      33.964 -24.286 -15.461  0.00  0.00    -0.270 OA
ATOM      8  N   UNL     1      35.697 -23.174 -16.596  0.00  0.00    -0.259 N 
ATOM      9  C   UNL     1      35.148 -24.004 -15.613  0.00  0.00    +0.255 C 
ATOM     10  H   UNL     1      36.674 -23.059 -16.569  0.00  0.00    +0.157 HD
ENDROOT
BRANCH   9  14
ATOM     11  F   UNL     1      35.990 -26.676 -15.733  0.00  0.00    -0.204 F 
ATOM     12  F   UNL     1      36.265 -22.468 -13.548  0.00  0.00    -0.204 F 
ATOM     13  F   UNL     1      38.812 -26.130 -11.976  0.00  0.00    -0.204 F 
ATOM     14  C   UNL     1      36.124 -24.570 -14.645  0.00  0.00    +0.109 C 
ATOM     15  C   UNL     1      36.491 -25.894 -14.767  0.00  0.00    +0.149 C 
ATOM     16  C   UNL     1      36.630 -23.753 -13.656  0.00  0.00    +0.149 C 
ATOM     17  C   UNL     1      37.406 -26.425 -13.858  0.00  0.00    +0.060 C 
ATOM     18  C   UNL     1      37.545 -24.285 -12.747  0.00  0.00    +0.060 C 
ATOM     19  C   UNL     1      37.933 -25.621 -12.848  0.00  0.00    +0.145 C 
ENDBRANCH   9  14
BRANCH   2  21
ATOM     20  O   UNL     1      37.073 -20.402 -20.371  0.00  0.00    -0.289 OA
ATOM     21  C   UNL     1      35.850 -20.286 -20.350  0.00  0.00    +0.202 C 
BRANCH  21  23
ATOM     22  N   UNL     1      35.370 -17.416 -23.467  0.00  0.00    +0.386 N 
ATOM     23  C   UNL     1      35.155 -19.317 -21.256  0.00  0.00    +0.060 C 
ATOM     24  C   UNL     1      35.313 -19.770 -22.707  0.00  0.00    -0.015 C 
ATOM     25  C   UNL     1      35.731 -17.914 -21.071  0.00  0.00    -0.015 C 
ATOM     26  C   UNL     1      34.748 -18.730 -23.677  0.00  0.00    -0.077 C 
ATOM     27  C   UNL     1      35.150 -16.937 -22.096  0.00  0.00    -0.077 C 
ATOM     28  C   UNL     1      34.857 -16.447 -24.436  0.00  0.00    -0.101 C 
ATOM     29  H   UNL     1      36.376 -17.518 -23.607  0.00  0.00    -0.080 HD
ENDBRANCH  21  23
ENDBRANCH   2  21
TORSDOF 3
ENDMDL
MODEL 3
REMARK VINA RESULT:     -10.9      3.438      8.191
REMARK  Name = 11610526
REMARK  3 active torsions:
REMARK  status: ('A' for Active; 'I' for Inactive)
REMARK    1  A    between atoms: C_2  and  C_21
REMARK    2  A    between atoms: C_9  and  C_14
REMARK    3  A    between atoms: C_21  and  C_23
REMARK                            x       y       z     vdW  Elec       q    Type
REMARK                         _______ _______ _______ _____ _____    ______ ____
ROOT
ATOM      1  N   UNL     1      34.335 -14.876 -22.948  0.00  0.00    -0.388 NA
ATOM      2  C   UNL     1      33.929 -13.988 -23.860  0.00  0.00    +0.167 C 
ATOM      3  C   UNL     1      33.692 -14.226 -25.186  0.00  0.00    +0.031 C 
ATOM      4  C   UNL     1      34.523 -16.129 -23.416  0.00  0.00    +0.167 C 
ATOM      5  C   UNL     1      33.896 -15.528 -25.631  0.00  0.00    -0.015 C 
ATOM      6  C   UNL     1      34.319 -16.504 -24.735  0.00  0.00    +0.101 C 
ATOM      7  O   UNL     1      35.096 -19.036 -23.874  0.00  0.00    -0.270 OA
ATOM      8  N   UNL     1      34.948 -17.119 -22.523  0.00  0.00    -0.259 N 
ATOM      9  C   UNL     1      35.201 -18.467 -22.793  0.00  0.00    +0.255 C 
ATOM     10  H   UNL     1      35.086 -16.831 -21.592  0.00  0.00    +0.157 HD
ENDROOT
BRANCH   9  14
ATOM     11  F   UNL     1      33.407 -20.128 -21.418  0.00  0.00    -0.204 F 
ATOM     12  F   UNL     1      37.830 -18.440 -21.813  0.00  0.00    -0.204 F 
ATOM     13  F   UNL     1      36.762 -21.524 -18.388  0.00  0.00    -0.204 F 
ATOM     14  C   UNL     1      35.617 -19.281 -21.620  0.00  0.00    +0.109 C 
ATOM     15  C   UNL     1      34.678 -20.075 -20.995  0.00  0.00    +0.149 C 
ATOM     16  C   UNL     1      36.927 -19.216 -21.196  0.00  0.00    +0.149 C 
ATOM     17  C   UNL     1      35.068 -20.838 -19.894  0.00  0.00    +0.060 C 
ATOM     18  C   UNL     1      37.316 -19.979 -20.094  0.00  0.00    +0.060 C 
ATOM     19  C   UNL     1      36.387 -20.790 -19.444  0.00  0.00    +0.145 C 
ENDBRANCH   9  14
BRANCH   2  21
ATOM     20  O   UNL     1      34.476 -11.701 -23.678  0.00  0.00    -0.289 OA
ATOM     21  C   UNL     1      33.728 -12.611 -23.328  0.00  0.00    +0.202 C 
BRANCH  21  23
ATOM     22  N   UNL     1      31.733 -11.121 -19.867  0.00  0.00    +0.386 N 
ATOM     23  C   UNL     1      32.608 -12.358 -22.368  0.00  0.00    +0.060 C 
ATOM     24  C   UNL     1      32.371 -10.853 -22.242  0.00  0.00    -0.015 C 
ATOM     25  C   UNL     1      32.937 -12.960 -21.002  0.00  0.00    -0.015 C 
ATOM     26  C   UNL     1      31.337 -10.544 -21.158  0.00  0.00    -0.077 C 
ATOM     27  C   UNL     1      31.883 -12.580 -19.961  0.00  0.00    -0.077 C 
ATOM     28  C   UNL     1      30.762 -10.772 -18.830  0.00  0.00    -0.101 C 
ATOM     29  H   UNL     1      32.640 -10.728 -19.611  0.00  0.00    -0.080 HD
ENDBRANCH  21  23
ENDBRANCH   2  21
TORSDOF 3
ENDMDL
MODEL 4
REMARK VINA RESULT:     -10.9      3.438      8.301
REMARK  Name = 11610526
REMARK  3 active torsions:
REMARK  status: ('A' for Active; 'I' for Inactive)
REMARK    1  A    between atoms: C_2  and  C_21
REMARK    2  A    between atoms: C_9  and  C_14
REMARK    3  A    between atoms: C_21  and  C_23
REMARK                            x       y       z     vdW  Elec       q    Type
REMARK                         _______ _______ _______ _____ _____    ______ ____
ROOT
ATOM      1  N   UNL     1      34.328 -14.874 -22.952  0.00  0.00    -0.388 NA
ATOM      2  C   UNL     1      33.919 -13.986 -23.862  0.00  0.00    +0.167 C 
ATOM      3  C   UNL     1      33.679 -14.222 -25.188  0.00  0.00    +0.031 C 
ATOM      4  C   UNL     1      34.516 -16.127 -23.422  0.00  0.00    +0.167 C 
ATOM      5  C   UNL     1      33.883 -15.524 -25.634  0.00  0.00    -0.015 C 
ATOM      6  C   UNL     1      34.309 -16.500 -24.740  0.00  0.00    +0.101 C 
ATOM      7  O   UNL     1      35.091 -19.033 -23.884  0.00  0.00    -0.270 OA
ATOM      8  N   UNL     1      34.944 -17.118 -22.530  0.00  0.00    -0.259 N 
ATOM      9  C   UNL     1      35.199 -18.465 -22.802  0.00  0.00    +0.255 C 
ATOM     10  H   UNL     1      35.085 -16.830 -21.600  0.00  0.00    +0.157 HD
ENDROOT
BRANCH   9  14
ATOM     11  F   UNL     1      37.827 -18.430 -21.824  0.00  0.00    -0.204 F 
ATOM     12  F   UNL     1      33.412 -20.137 -21.431  0.00  0.00    -0.204 F 
ATOM     13  F   UNL     1      36.773 -21.526 -18.406  0.00  0.00    -0.204 F 
ATOM     14  C   UNL     1      35.618 -19.280 -21.632  0.00  0.00    +0.109 C 
ATOM     15  C   UNL     1      36.929 -19.210 -21.208  0.00  0.00    +0.149 C 
ATOM     16  C   UNL     1      34.683 -20.078 -21.008  0.00  0.00    +0.149 C 
ATOM     17  C   UNL     1      37.321 -19.976 -20.109  0.00  0.00    +0.060 C 
ATOM     18  C   UNL     1      35.076 -20.844 -19.910  0.00  0.00    +0.060 C 
ATOM     19  C   UNL     1      36.396 -20.792 -19.461  0.00  0.00    +0.145 C 
ENDBRANCH   9  14
BRANCH   2  21
ATOM     20  O   UNL     1      34.464 -11.699 -23.679  0.00  0.00    -0.289 OA
ATOM     21  C   UNL     1      33.718 -12.610 -23.328  0.00  0.00    +0.202 C 
BRANCH  21  23
ATOM     22  N   UNL     1      31.731 -11.130 -19.858  0.00  0.00    +0.386 N 
ATOM     23  C   UNL     1      32.600 -12.359 -22.365  0.00  0.00    +0.060 C 
ATOM     24  C   UNL     1      32.365 -10.855 -22.233  0.00  0.00    -0.015 C 
ATOM     25  C   UNL     1      32.930 -12.966 -21.002  0.00  0.00    -0.015 C 
ATOM     26  C   UNL     1      31.332 -10.548 -21.146  0.00  0.00    -0.077 C 
ATOM     27  C   UNL     1      31.879 -12.588 -19.957  0.00  0.00    -0.077 C 
ATOM     28  C   UNL     1      30.761 -10.783 -18.819  0.00  0.00    -0.101 C 
ATOM     29  H   UNL     1      32.638 -10.739 -19.603  0.00  0.00    -0.080 HD
ENDBRANCH  21  23
ENDBRANCH   2  21
TORSDOF 3
ENDMDL
MODEL 5
REMARK VINA RESULT:     -10.9      2.808      5.221
REMARK  Name = 11610526
REMARK  3 active torsions:
REMARK  status: ('A' for Active; 'I' for Inactive)
REMARK    1  A    between atoms: C_2  and  C_21
REMARK    2  A    between atoms: C_9  and  C_14
REMARK    3  A    between atoms: C_21  and  C_23
REMARK                            x       y       z     vdW  Elec       q    Type
REMARK                         _______ _______ _______ _____ _____    ______ ____
ROOT
ATOM      1  N   UNL     1      34.167 -20.654 -19.553  0.00  0.00    -0.388 NA
ATOM      2  C   UNL     1      34.549 -21.708 -18.828  0.00  0.00    +0.167 C 
ATOM      3  C   UNL     1      35.815 -22.216 -18.724  0.00  0.00    +0.031 C 
ATOM      4  C   UNL     1      35.157 -20.049 -20.245  0.00  0.00    +0.167 C 
ATOM      5  C   UNL     1      36.807 -21.567 -19.451  0.00  0.00    -0.015 C 
ATOM      6  C   UNL     1      36.480 -20.462 -20.229  0.00  0.00    +0.101 C 
ATOM      7  O   UNL     1      36.906 -18.330 -21.971  0.00  0.00    -0.270 OA
ATOM      8  N   UNL     1      34.839 -18.935 -21.031  0.00  0.00    -0.259 N 
ATOM      9  C   UNL     1      35.700 -18.167 -21.821  0.00  0.00    +0.255 C 
ATOM     10  H   UNL     1      33.894 -18.660 -21.028  0.00  0.00    +0.157 HD
ENDROOT
BRANCH   9  14
ATOM     11  F   UNL     1      34.891 -15.851 -20.462  0.00  0.00    -0.204 F 
ATOM     12  F   UNL     1      35.232 -18.183 -24.586  0.00  0.00    -0.204 F 
ATOM     13  F   UNL     1      33.311 -13.862 -24.453  0.00  0.00    -0.204 F 
ATOM     14  C   UNL     1      35.064 -17.021 -22.521  0.00  0.00    +0.109 C 
ATOM     15  C   UNL     1      34.692 -15.915 -21.786  0.00  0.00    +0.149 C 
ATOM     16  C   UNL     1      34.866 -17.101 -23.884  0.00  0.00    +0.149 C 
ATOM     17  C   UNL     1      34.095 -14.839 -22.444  0.00  0.00    +0.060 C 
ATOM     18  C   UNL     1      34.268 -16.025 -24.541  0.00  0.00    +0.060 C 
ATOM     19  C   UNL     1      33.883 -14.894 -23.821  0.00  0.00    +0.145 C 
ENDBRANCH   9  14
BRANCH   2  21
ATOM     20  O   UNL     1      32.278 -22.180 -18.403  0.00  0.00    -0.289 OA
ATOM     21  C   UNL     1      33.446 -22.365 -18.071  0.00  0.00    +0.202 C 
BRANCH  21  23
ATOM     22  N   UNL     1      34.169 -23.481 -14.020  0.00  0.00    +0.386 N 
ATOM     23  C   UNL     1      33.785 -23.246 -16.909  0.00  0.00    +0.060 C 
ATOM     24  C   UNL     1      32.611 -23.275 -15.930  0.00  0.00    -0.015 C 
ATOM     25  C   UNL     1      35.046 -22.739 -16.211  0.00  0.00    -0.015 C 
ATOM     26  C   UNL     1      32.970 -24.043 -14.656  0.00  0.00    -0.077 C 
ATOM     27  C   UNL     1      35.323 -23.525 -14.928  0.00  0.00    -0.077 C 
ATOM     28  C   UNL     1      34.469 -24.191 -12.777  0.00  0.00    -0.101 C 
ATOM     29  H   UNL     1      33.980 -22.502 -13.800  0.00  0.00    -0.080 HD
ENDBRANCH  21  23
ENDBRANCH   2  21
TORSDOF 3
ENDMDL
MODEL 6
REMARK VINA RESULT:     -10.8      2.758      5.184
REMARK  Name = 11610526
REMARK  3 active torsions:
REMARK  status: ('A' for Active; 'I' for Inactive)
REMARK    1  A    between atoms: C_2  and  C_21
REMARK    2  A    between atoms: C_9  and  C_14
REMARK    3  A    between atoms: C_21  and  C_23
REMARK                            x       y       z     vdW  Elec       q    Type
REMARK                         _______ _______ _______ _____ _____    ______ ____
ROOT
ATOM      1  N   UNL     1      34.268 -20.591 -19.995  0.00  0.00    -0.388 NA
ATOM      2  C   UNL     1      34.694 -21.590 -19.218  0.00  0.00    +0.167 C 
ATOM      3  C   UNL     1      35.993 -21.902 -18.924  0.00  0.00    +0.031 C 
ATOM      4  C   UNL     1      35.246 -19.828 -20.532  0.00  0.00    +0.167 C 
ATOM      5  C   UNL     1      36.971 -21.095 -19.495  0.00  0.00    -0.015 C 
ATOM      6  C   UNL     1      36.598 -20.036 -20.315  0.00  0.00    +0.101 C 
ATOM      7  O   UNL     1      36.948 -17.828 -21.977  0.00  0.00    -0.270 OA
ATOM      8  N   UNL     1      34.881 -18.759 -21.358  0.00  0.00    -0.259 N 
ATOM      9  C   UNL     1      35.722 -17.853 -22.011  0.00  0.00    +0.255 C 
ATOM     10  H   UNL     1      33.915 -18.631 -21.499  0.00  0.00    +0.157 HD
ENDROOT
BRANCH   9  14
ATOM     11  F   UNL     1      35.183 -18.156 -24.746  0.00  0.00    -0.204 F 
ATOM     12  F   UNL     1      34.872 -15.439 -20.863  0.00  0.00    -0.204 F 
ATOM     13  F   UNL     1      33.123 -13.904 -24.982  0.00  0.00    -0.204 F 
ATOM     14  C   UNL     1      35.030 -16.802 -22.802  0.00  0.00    +0.109 C 
ATOM     15  C   UNL     1      34.800 -17.022 -24.144  0.00  0.00    +0.149 C 
ATOM     16  C   UNL     1      34.641 -15.641 -22.168  0.00  0.00    +0.149 C 
ATOM     17  C   UNL     1      34.150 -16.035 -24.886  0.00  0.00    +0.060 C 
ATOM     18  C   UNL     1      33.992 -14.654 -22.911  0.00  0.00    +0.060 C 
ATOM     19  C   UNL     1      33.747 -14.851 -24.270  0.00  0.00    +0.145 C 
ENDBRANCH   9  14
BRANCH   2  21
ATOM     20  O   UNL     1      32.871 -23.078 -19.370  0.00  0.00    -0.289 OA
ATOM     21  C   UNL     1      33.605 -22.422 -18.635  0.00  0.00    +0.202 C 
BRANCH  21  23
ATOM     22  N   UNL     1      32.702 -23.988 -14.773  0.00  0.00    +0.386 N 
ATOM     23  C   UNL     1      33.421 -22.443 -17.149  0.00  0.00    +0.060 C 
ATOM     24  C   UNL     1      34.365 -23.475 -16.532  0.00  0.00    -0.015 C 
ATOM     25  C   UNL     1      31.971 -22.773 -16.800  0.00  0.00    -0.015 C 
ATOM     26  C   UNL     1      34.104 -23.636 -15.032  0.00  0.00    -0.077 C 
ATOM     27  C   UNL     1      31.792 -22.958 -15.292  0.00  0.00    -0.077 C 
ATOM     28  C   UNL     1      32.482 -24.190 -13.341  0.00  0.00    -0.101 C 
ATOM     29  H   UNL     1      32.500 -24.861 -15.262  0.00  0.00    -0.080 HD
ENDBRANCH  21  23
ENDBRANCH   2  21
TORSDOF 3
ENDMDL
MODEL 7
REMARK VINA RESULT:     -10.7      3.175      5.785
REMARK  Name = 11610526
REMARK  3 active torsions:
REMARK  status: ('A' for Active; 'I' for Inactive)
REMARK    1  A    between atoms: C_2  and  C_21
REMARK    2  A    between atoms: C_9  and  C_14
REMARK    3  A    between atoms: C_21  and  C_23
REMARK                            x       y       z     vdW  Elec       q    Type
REMARK                         _______ _______ _______ _____ _____    ______ ____
ROOT
ATOM      1  N   UNL     1      33.502 -12.351 -23.422  0.00  0.00    -0.388 NA
ATOM      2  C   UNL     1      33.226 -13.539 -22.877  0.00  0.00    +0.167 C 
ATOM      3  C   UNL     1      32.549 -13.769 -21.712  0.00  0.00    +0.031 C 
ATOM      4  C   UNL     1      33.053 -11.285 -22.723  0.00  0.00    +0.167 C 
ATOM      5  C   UNL     1      32.102 -12.648 -21.021  0.00  0.00    -0.015 C 
ATOM      6  C   UNL     1      32.354 -11.378 -21.530  0.00  0.00    +0.101 C 
ATOM      7  O   UNL     1      32.311  -8.595 -21.627  0.00  0.00    -0.270 OA
ATOM      8  N   UNL     1      33.301 -10.003 -23.227  0.00  0.00    -0.259 N 
ATOM      9  C   UNL     1      32.930  -8.775 -22.670  0.00  0.00    +0.255 C 
ATOM     10  H   UNL     1      33.799  -9.961 -24.075  0.00  0.00    +0.157 HD
ENDROOT
BRANCH   9  14
ATOM     11  F   UNL     1      35.600  -8.220 -23.327  0.00  0.00    -0.204 F 
ATOM     12  F   UNL     1      31.037  -6.927 -23.603  0.00  0.00    -0.204 F 
ATOM     13  F   UNL     1      34.383  -4.277 -25.642  0.00  0.00    -0.204 F 
ATOM     14  C   UNL     1      33.317  -7.578 -23.461  0.00  0.00    +0.109 C 
ATOM     15  C   UNL     1      34.651  -7.371 -23.745  0.00  0.00    +0.149 C 
ATOM     16  C   UNL     1      32.330  -6.714 -23.886  0.00  0.00    +0.149 C 
ATOM     17  C   UNL     1      35.013  -6.246 -24.488  0.00  0.00    +0.060 C 
ATOM     18  C   UNL     1      32.694  -5.589 -24.627  0.00  0.00    +0.060 C 
ATOM     19  C   UNL     1      34.035  -5.356 -24.928  0.00  0.00    +0.145 C 
ENDBRANCH   9  14
BRANCH   2  21
ATOM     20  O   UNL     1      33.343 -14.884 -24.811  0.00  0.00    -0.289 OA
ATOM     21  C   UNL     1      33.729 -14.703 -23.659  0.00  0.00    +0.202 C 
BRANCH  21  23
ATOM     22  N   UNL     1      35.170 -18.237 -21.756  0.00  0.00    +0.386 N 
ATOM     23  C   UNL     1      34.706 -15.641 -23.020  0.00  0.00    +0.060 C 
ATOM     24  C   UNL     1      34.769 -16.940 -23.824  0.00  0.00    -0.015 C 
ATOM     25  C   UNL     1      34.296 -15.929 -21.577  0.00  0.00    -0.015 C 
ATOM     26  C   UNL     1      35.642 -17.983 -23.123  0.00  0.00    -0.077 C 
ATOM     27  C   UNL     1      35.185 -17.006 -20.952  0.00  0.00    -0.077 C 
ATOM     28  C   UNL     1      35.981 -19.274 -21.118  0.00  0.00    -0.101 C 
ATOM     29  H   UNL     1      34.205 -18.564 -21.811  0.00  0.00    -0.080 HD
ENDBRANCH  21  23
ENDBRANCH   2  21
TORSDOF 3
ENDMDL
MODEL 8
REMARK VINA RESULT:     -10.7      3.173      5.701
REMARK  Name = 11610526
REMARK  3 active torsions:
REMARK  status: ('A' for Active; 'I' for Inactive)
REMARK    1  A    between atoms: C_2  and  C_21
REMARK    2  A    between atoms: C_9  and  C_14
REMARK    3  A    between atoms: C_21  and  C_23
REMARK                            x       y       z     vdW  Elec       q    Type
REMARK                         _______ _______ _______ _____ _____    ______ ____
ROOT
ATOM      1  N   UNL     1      33.503 -12.352 -23.423  0.00  0.00    -0.388 NA
ATOM      2  C   UNL     1      33.228 -13.541 -22.880  0.00  0.00    +0.167 C 
ATOM      3  C   UNL     1      32.550 -13.772 -21.716  0.00  0.00    +0.031 C 
ATOM      4  C   UNL     1      33.052 -11.287 -22.724  0.00  0.00    +0.167 C 
ATOM      5  C   UNL     1      32.101 -12.652 -21.024  0.00  0.00    -0.015 C 
ATOM      6  C   UNL     1      32.353 -11.382 -21.532  0.00  0.00    +0.101 C 
ATOM      7  O   UNL     1      32.306  -8.599 -21.626  0.00  0.00    -0.270 OA
ATOM      8  N   UNL     1      33.299 -10.004 -23.227  0.00  0.00    -0.259 N 
ATOM      9  C   UNL     1      32.926  -8.778 -22.669  0.00  0.00    +0.255 C 
ATOM     10  H   UNL     1      33.797  -9.961 -24.074  0.00  0.00    +0.157 HD
ENDROOT
BRANCH   9  14
ATOM     11  F   UNL     1      31.033  -6.929 -23.598  0.00  0.00    -0.204 F 
ATOM     12  F   UNL     1      35.596  -8.220 -23.327  0.00  0.00    -0.204 F 
ATOM     13  F   UNL     1      34.377  -4.276 -25.637  0.00  0.00    -0.204 F 
ATOM     14  C   UNL     1      33.313  -7.579 -23.459  0.00  0.00    +0.109 C 
ATOM     15  C   UNL     1      32.325  -6.714 -23.882  0.00  0.00    +0.149 C 
ATOM     16  C   UNL     1      34.646  -7.371 -23.743  0.00  0.00    +0.149 C 
ATOM     17  C   UNL     1      32.688  -5.590 -24.623  0.00  0.00    +0.060 C 
ATOM     18  C   UNL     1      35.008  -6.247 -24.486  0.00  0.00    +0.060 C 
ATOM     19  C   UNL     1      34.029  -5.356 -24.926  0.00  0.00    +0.145 C 
ENDBRANCH   9  14
BRANCH   2  21
ATOM     20  O   UNL     1      33.349 -14.883 -24.816  0.00  0.00    -0.289 OA
ATOM     21  C   UNL     1      33.733 -14.704 -23.663  0.00  0.00    +0.202 C 
BRANCH  21  23
ATOM     22  N   UNL     1      35.169 -18.238 -21.758  0.00  0.00    +0.386 N 
ATOM     23  C   UNL     1      34.708 -15.642 -23.023  0.00  0.00    +0.060 C 
ATOM     24  C   UNL     1      34.770 -16.942 -23.827  0.00  0.00    -0.015 C 
ATOM     25  C   UNL     1      34.297 -15.930 -21.580  0.00  0.00    -0.015 C 
ATOM     26  C   UNL     1      35.642 -17.986 -23.125  0.00  0.00    -0.077 C 
ATOM     27  C   UNL     1      35.185 -17.008 -20.955  0.00  0.00    -0.077 C 
ATOM     28  C   UNL     1      35.979 -19.276 -21.120  0.00  0.00    -0.101 C 
ATOM     29  H   UNL     1      34.203 -18.565 -21.813  0.00  0.00    -0.080 HD
ENDBRANCH  21  23
ENDBRANCH   2  21
TORSDOF 3
ENDMDL
MODEL 9
REMARK VINA RESULT:     -10.7      4.674     11.241
REMARK  Name = 11610526
REMARK  3 active torsions:
REMARK  status: ('A' for Active; 'I' for Inactive)
REMARK    1  A    between atoms: C_2  and  C_21
REMARK    2  A    between atoms: C_9  and  C_14
REMARK    3  A    between atoms: C_21  and  C_23
REMARK                            x       y       z     vdW  Elec       q    Type
REMARK                         _______ _______ _______ _____ _____    ______ ____
ROOT
ATOM      1  N   UNL     1      34.055  -9.369 -23.408  0.00  0.00    -0.388 NA
ATOM      2  C   UNL     1      33.638  -8.130 -23.130  0.00  0.00    +0.167 C 
ATOM      3  C   UNL     1      32.540  -7.781 -22.394  0.00  0.00    +0.031 C 
ATOM      4  C   UNL     1      33.288 -10.357 -22.896  0.00  0.00    +0.167 C 
ATOM      5  C   UNL     1      31.776  -8.825 -21.883  0.00  0.00    -0.015 C 
ATOM      6  C   UNL     1      32.151 -10.141 -22.135  0.00  0.00    +0.101 C 
ATOM      7  O   UNL     1      31.995 -12.920 -22.032  0.00  0.00    -0.270 OA
ATOM      8  N   UNL     1      33.658 -11.684 -23.142  0.00  0.00    -0.259 N 
ATOM      9  C   UNL     1      33.013 -12.848 -22.713  0.00  0.00    +0.255 C 
ATOM     10  H   UNL     1      34.468 -11.814 -23.685  0.00  0.00    +0.157 HD
ENDROOT
BRANCH   9  14
ATOM     11  F   UNL     1      32.783 -13.889 -25.307  0.00  0.00    -0.204 F 
ATOM     12  F   UNL     1      34.558 -14.362 -20.926  0.00  0.00    -0.204 F 
ATOM     13  F   UNL     1      35.472 -17.628 -24.224  0.00  0.00    -0.204 F 
ATOM     14  C   UNL     1      33.668 -14.120 -23.115  0.00  0.00    +0.109 C 
ATOM     15  C   UNL     1      33.509 -14.570 -24.410  0.00  0.00    +0.149 C 
ATOM     16  C   UNL     1      34.412 -14.810 -22.181  0.00  0.00    +0.149 C 
ATOM     17  C   UNL     1      34.124 -15.765 -24.786  0.00  0.00    +0.060 C 
ATOM     18  C   UNL     1      35.026 -16.005 -22.559  0.00  0.00    +0.060 C 
ATOM     19  C   UNL     1      34.882 -16.482 -23.862  0.00  0.00    +0.145 C 
ENDBRANCH   9  14
BRANCH   2  21
ATOM     20  O   UNL     1      35.621  -6.859 -23.256  0.00  0.00    -0.289 OA
ATOM     21  C   UNL     1      34.493  -7.053 -23.703  0.00  0.00    +0.202 C 
BRANCH  21  23
ATOM     22  N   UNL     1      33.772  -3.575 -26.063  0.00  0.00    +0.386 N 
ATOM     23  C   UNL     1      33.957  -6.217 -24.824  0.00  0.00    +0.060 C 
ATOM     24  C   UNL     1      35.118  -5.599 -25.602  0.00  0.00    -0.015 C 
ATOM     25  C   UNL     1      33.042  -5.123 -24.276  0.00  0.00    -0.015 C 
ATOM     26  C   UNL     1      34.614  -4.618 -26.663  0.00  0.00    -0.077 C 
ATOM     27  C   UNL     1      32.608  -4.159 -25.382  0.00  0.00    -0.077 C 
ATOM     28  C   UNL     1      33.343  -2.617 -27.081  0.00  0.00    -0.101 C 
ATOM     29  H   UNL     1      34.330  -3.083 -25.364  0.00  0.00    -0.080 HD
ENDBRANCH  21  23
ENDBRANCH   2  21
TORSDOF 3
ENDMDL
