MODEL 1
REMARK VINA RESULT:     -12.3      0.000      0.000
REMARK  Name = 9999276
REMARK  5 active torsions:
REMARK  status: ('A' for Active; 'I' for Inactive)
REMARK    1  A    between atoms: C_3  and  C_11
REMARK    2  A    between atoms: C_6  and  C_20
REMARK    3  A    between atoms: C_14  and  N_19
REMARK    4  A    between atoms: C_25  and  C_27
REMARK    5  A    between atoms: C_27  and  O_28
REMARK                            x       y       z     vdW  Elec       q    Type
REMARK                         _______ _______ _______ _____ _____    ______ ____
ROOT
ATOM      1  N   UNL     1      34.699 -23.211 -16.276  0.00  0.00    -0.400 NA
ATOM      2  N   UNL     1      32.769 -24.921 -13.692  0.00  0.00    -0.242 NA
ATOM      3  C   UNL     1      34.338 -23.923 -15.182  0.00  0.00    +0.149 C 
ATOM      4  C   UNL     1      33.036 -24.202 -14.800  0.00  0.00    +0.107 C 
ATOM      5  C   UNL     1      32.022 -23.694 -15.630  0.00  0.00    +0.005 C 
ATOM      6  C   UNL     1      33.695 -22.743 -17.044  0.00  0.00    +0.131 C 
ATOM      7  C   UNL     1      32.355 -22.953 -16.771  0.00  0.00    +0.030 C 
ATOM      8  C   UNL     1      30.691 -23.954 -15.277  0.00  0.00    +0.056 C 
ATOM      9  C   UNL     1      30.406 -24.695 -14.138  0.00  0.00    -0.001 C 
ATOM     10  C   UNL     1      31.470 -25.151 -13.386  0.00  0.00    +0.095 C 
ENDROOT
BRANCH   3  11
ATOM     11  C   UNL     1      35.469 -24.392 -14.409  0.00  0.00    +0.033 C 
ATOM     12  C   UNL     1      35.871 -23.696 -13.271  0.00  0.00    +0.027 C 
ATOM     13  C   UNL     1      36.155 -25.540 -14.807  0.00  0.00    +0.003 C 
ATOM     14  C   UNL     1      36.961 -24.149 -12.527  0.00  0.00    +0.143 C 
ATOM     15  C   UNL     1      37.244 -25.993 -14.062  0.00  0.00    +0.002 C 
ATOM     16  C   UNL     1      37.648 -25.296 -12.923  0.00  0.00    +0.024 C 
BRANCH  14  19
ATOM     17  O   UNL     1      36.990 -23.850 -10.245  0.00  0.00    -0.126 OA
ATOM     18  O   UNL     1      38.102 -22.432 -11.503  0.00  0.00    -0.126 OA
ATOM     19  N   UNL     1      37.372 -23.440 -11.366  0.00  0.00    +0.058 N 
ENDBRANCH  14  19
ENDBRANCH   3  11
BRANCH   6  20
ATOM     20  C   UNL     1      34.111 -21.988 -18.202  0.00  0.00    +0.030 C 
ATOM     21  C   UNL     1      35.465 -21.897 -18.532  0.00  0.00    +0.003 C 
ATOM     22  C   UNL     1      33.160 -21.342 -18.996  0.00  0.00    +0.003 C 
ATOM     23  C   UNL     1      35.867 -21.168 -19.651  0.00  0.00    +0.007 C 
ATOM     24  C   UNL     1      33.562 -20.612 -20.115  0.00  0.00    +0.007 C 
ATOM     25  C   UNL     1      34.914 -20.525 -20.442  0.00  0.00    +0.075 C 
BRANCH  25  27
ATOM     26  O   UNL     1      34.742 -19.736 -22.695  0.00  0.00    -0.245 OA
ATOM     27  C   UNL     1      35.331 -19.763 -21.609  0.00  0.00    +0.338 C 
BRANCH  27  28
ATOM     28  O   UNL     1      36.472 -19.055 -21.387  0.00  0.00    -0.477 OA
ATOM     29  H   UNL     1      36.801 -18.475 -22.047  0.00  0.00    +0.295 HD
ENDBRANCH  27  28
ENDBRANCH  25  27
ENDBRANCH   6  20
TORSDOF 5
ENDMDL
MODEL 2
REMARK VINA RESULT:     -12.0      1.903      2.113
REMARK  Name = 9999276
REMARK  5 active torsions:
REMARK  status: ('A' for Active; 'I' for Inactive)
REMARK    1  A    between atoms: C_3  and  C_11
REMARK    2  A    between atoms: C_6  and  C_20
REMARK    3  A    between atoms: C_14  and  N_19
REMARK    4  A    between atoms: C_25  and  C_27
REMARK    5  A    between atoms: C_27  and  O_28
REMARK                            x       y       z     vdW  Elec       q    Type
REMARK                         _______ _______ _______ _____ _____    ______ ____
ROOT
ATOM      1  N   UNL     1      34.567 -22.916 -16.643  0.00  0.00    -0.400 NA
ATOM      2  N   UNL     1      32.650 -24.600 -14.033  0.00  0.00    -0.242 NA
ATOM      3  C   UNL     1      34.212 -23.615 -15.539  0.00  0.00    +0.149 C 
ATOM      4  C   UNL     1      32.912 -23.894 -15.150  0.00  0.00    +0.107 C 
ATOM      5  C   UNL     1      31.894 -23.401 -15.984  0.00  0.00    +0.005 C 
ATOM      6  C   UNL     1      33.560 -22.462 -17.415  0.00  0.00    +0.131 C 
ATOM      7  C   UNL     1      32.221 -22.673 -17.135  0.00  0.00    +0.030 C 
ATOM      8  C   UNL     1      30.565 -23.662 -15.625  0.00  0.00    +0.056 C 
ATOM      9  C   UNL     1      30.285 -24.389 -14.475  0.00  0.00    -0.001 C 
ATOM     10  C   UNL     1      31.354 -24.832 -13.720  0.00  0.00    +0.095 C 
ENDROOT
BRANCH   3  11
ATOM     11  C   UNL     1      35.347 -24.070 -14.763  0.00  0.00    +0.033 C 
ATOM     12  C   UNL     1      35.981 -25.266 -15.093  0.00  0.00    +0.027 C 
ATOM     13  C   UNL     1      35.801 -23.311 -13.685  0.00  0.00    +0.003 C 
ATOM     14  C   UNL     1      37.074 -25.704 -14.345  0.00  0.00    +0.143 C 
ATOM     15  C   UNL     1      36.894 -23.748 -12.937  0.00  0.00    +0.002 C 
ATOM     16  C   UNL     1      37.530 -24.946 -13.266  0.00  0.00    +0.024 C 
BRANCH  14  19
ATOM     17  O   UNL     1      37.159 -27.702 -15.486  0.00  0.00    -0.126 OA
ATOM     18  O   UNL     1      38.834 -27.177 -14.162  0.00  0.00    -0.126 OA
ATOM     19  N   UNL     1      37.722 -26.922 -14.681  0.00  0.00    +0.058 N 
ENDBRANCH  14  19
ENDBRANCH   3  11
BRANCH   6  20
ATOM     20  C   UNL     1      33.970 -21.720 -18.583  0.00  0.00    +0.030 C 
ATOM     21  C   UNL     1      35.315 -21.689 -18.959  0.00  0.00    +0.003 C 
ATOM     22  C   UNL     1      33.022 -21.029 -19.341  0.00  0.00    +0.003 C 
ATOM     23  C   UNL     1      35.711 -20.972 -20.088  0.00  0.00    +0.007 C 
ATOM     24  C   UNL     1      33.419 -20.311 -20.471  0.00  0.00    +0.007 C 
ATOM     25  C   UNL     1      34.761 -20.283 -20.844  0.00  0.00    +0.075 C 
BRANCH  25  27
ATOM     26  O   UNL     1      34.563 -19.497 -23.095  0.00  0.00    -0.245 OA
ATOM     27  C   UNL     1      35.173 -19.535 -22.021  0.00  0.00    +0.338 C 
BRANCH  27  28
ATOM     28  O   UNL     1      36.334 -18.852 -21.825  0.00  0.00    -0.477 OA
ATOM     29  H   UNL     1      36.569 -18.150 -22.399  0.00  0.00    +0.295 HD
ENDBRANCH  27  28
ENDBRANCH  25  27
ENDBRANCH   6  20
TORSDOF 5
ENDMDL
MODEL 3
REMARK VINA RESULT:      -9.8      2.225      7.046
REMARK  Name = 9999276
REMARK  5 active torsions:
REMARK  status: ('A' for Active; 'I' for Inactive)
REMARK    1  A    between atoms: C_3  and  C_11
REMARK    2  A    between atoms: C_6  and  C_20
REMARK    3  A    between atoms: C_14  and  N_19
REMARK    4  A    between atoms: C_25  and  C_27
REMARK    5  A    between atoms: C_27  and  O_28
REMARK                            x       y       z     vdW  Elec       q    Type
REMARK                         _______ _______ _______ _____ _____    ______ ____
ROOT
ATOM      1  N   UNL     1      34.994 -23.146 -16.698  0.00  0.00    -0.400 NA
ATOM      2  N   UNL     1      31.400 -22.534 -16.895  0.00  0.00    -0.242 NA
ATOM      3  C   UNL     1      33.768 -22.719 -17.086  0.00  0.00    +0.149 C 
ATOM      4  C   UNL     1      32.578 -23.003 -16.438  0.00  0.00    +0.107 C 
ATOM      5  C   UNL     1      32.672 -23.801 -15.285  0.00  0.00    +0.005 C 
ATOM      6  C   UNL     1      35.039 -23.908 -15.588  0.00  0.00    +0.131 C 
ATOM      7  C   UNL     1      33.922 -24.262 -14.852  0.00  0.00    +0.030 C 
ATOM      8  C   UNL     1      31.490 -24.111 -14.600  0.00  0.00    +0.056 C 
ATOM      9  C   UNL     1      30.272 -23.632 -15.064  0.00  0.00    -0.001 C 
ATOM     10  C   UNL     1      30.281 -22.855 -16.205  0.00  0.00    +0.095 C 
ENDROOT
BRANCH   3  11
ATOM     11  C   UNL     1      33.801 -21.905 -18.284  0.00  0.00    +0.033 C 
ATOM     12  C   UNL     1      35.015 -21.412 -18.757  0.00  0.00    +0.027 C 
ATOM     13  C   UNL     1      32.616 -21.617 -18.961  0.00  0.00    +0.003 C 
ATOM     14  C   UNL     1      35.046 -20.629 -19.911  0.00  0.00    +0.143 C 
ATOM     15  C   UNL     1      32.647 -20.833 -20.114  0.00  0.00    +0.002 C 
ATOM     16  C   UNL     1      33.861 -20.338 -20.589  0.00  0.00    +0.024 C 
BRANCH  14  19
ATOM     17  O   UNL     1      37.322 -20.336 -19.726  0.00  0.00    -0.126 OA
ATOM     18  O   UNL     1      36.293 -19.488 -21.473  0.00  0.00    -0.126 OA
ATOM     19  N   UNL     1      36.282 -20.125 -20.395  0.00  0.00    +0.058 N 
ENDBRANCH  14  19
ENDBRANCH   3  11
BRANCH   6  20
ATOM     20  C   UNL     1      36.358 -24.348 -15.201  0.00  0.00    +0.030 C 
ATOM     21  C   UNL     1      36.547 -25.633 -14.687  0.00  0.00    +0.003 C 
ATOM     22  C   UNL     1      37.451 -23.489 -15.338  0.00  0.00    +0.003 C 
ATOM     23  C   UNL     1      37.822 -26.058 -14.314  0.00  0.00    +0.007 C 
ATOM     24  C   UNL     1      38.727 -23.914 -14.965  0.00  0.00    +0.007 C 
ATOM     25  C   UNL     1      38.912 -25.198 -14.453  0.00  0.00    +0.075 C 
BRANCH  25  27
ATOM     26  O   UNL     1      40.504 -26.699 -13.486  0.00  0.00    -0.245 OA
ATOM     27  C   UNL     1      40.242 -25.640 -14.064  0.00  0.00    +0.338 C 
BRANCH  27  28
ATOM     28  O   UNL     1      41.209 -24.746 -14.409  0.00  0.00    -0.477 OA
ATOM     29  H   UNL     1      41.066 -23.828 -14.283  0.00  0.00    +0.295 HD
ENDBRANCH  27  28
ENDBRANCH  25  27
ENDBRANCH   6  20
TORSDOF 5
ENDMDL
MODEL 4
REMARK VINA RESULT:      -9.3      3.482      6.506
REMARK  Name = 9999276
REMARK  5 active torsions:
REMARK  status: ('A' for Active; 'I' for Inactive)
REMARK    1  A    between atoms: C_3  and  C_11
REMARK    2  A    between atoms: C_6  and  C_20
REMARK    3  A    between atoms: C_14  and  N_19
REMARK    4  A    between atoms: C_25  and  C_27
REMARK    5  A    between atoms: C_27  and  O_28
REMARK                            x       y       z     vdW  Elec       q    Type
REMARK                         _______ _______ _______ _____ _____    ______ ____
ROOT
ATOM      1  N   UNL     1      33.969 -22.976 -15.209  0.00  0.00    -0.400 NA
ATOM      2  N   UNL     1      37.073 -23.646 -13.409  0.00  0.00    -0.242 NA
ATOM      3  C   UNL     1      35.270 -23.025 -14.839  0.00  0.00    +0.149 C 
ATOM      4  C   UNL     1      35.758 -23.645 -13.700  0.00  0.00    +0.107 C 
ATOM      5  C   UNL     1      34.805 -24.268 -12.876  0.00  0.00    +0.005 C 
ATOM      6  C   UNL     1      33.089 -23.586 -14.390  0.00  0.00    +0.131 C 
ATOM      7  C   UNL     1      33.449 -24.239 -13.225  0.00  0.00    +0.030 C 
ATOM      8  C   UNL     1      35.258 -24.907 -11.714  0.00  0.00    +0.056 C 
ATOM      9  C   UNL     1      36.612 -24.913 -11.406  0.00  0.00    -0.001 C 
ATOM     10  C   UNL     1      37.470 -24.275 -12.278  0.00  0.00    +0.095 C 
ENDROOT
BRANCH   3  11
ATOM     11  C   UNL     1      36.153 -22.350 -15.768  0.00  0.00    +0.033 C 
ATOM     12  C   UNL     1      35.771 -22.188 -17.098  0.00  0.00    +0.027 C 
ATOM     13  C   UNL     1      37.385 -21.866 -15.328  0.00  0.00    +0.003 C 
ATOM     14  C   UNL     1      36.622 -21.538 -17.992  0.00  0.00    +0.143 C 
ATOM     15  C   UNL     1      38.236 -21.216 -16.223  0.00  0.00    +0.002 C 
ATOM     16  C   UNL     1      37.855 -21.053 -17.555  0.00  0.00    +0.024 C 
BRANCH  14  19
ATOM     17  O   UNL     1      35.513 -22.248 -19.880  0.00  0.00    -0.126 OA
ATOM     18  O   UNL     1      36.624 -20.353 -19.966  0.00  0.00    -0.126 OA
ATOM     19  N   UNL     1      36.234 -21.371 -19.348  0.00  0.00    +0.058 N 
ENDBRANCH  14  19
ENDBRANCH   3  11
BRANCH   6  20
ATOM     20  C   UNL     1      31.710 -23.514 -14.811  0.00  0.00    +0.030 C 
ATOM     21  C   UNL     1      30.718 -24.169 -14.078  0.00  0.00    +0.003 C 
ATOM     22  C   UNL     1      31.364 -22.791 -15.955  0.00  0.00    +0.003 C 
ATOM     23  C   UNL     1      29.385 -24.099 -14.485  0.00  0.00    +0.007 C 
ATOM     24  C   UNL     1      30.031 -22.722 -16.362  0.00  0.00    +0.007 C 
ATOM     25  C   UNL     1      29.043 -23.375 -15.628  0.00  0.00    +0.075 C 
BRANCH  25  27
ATOM     26  O   UNL     1      26.742 -22.749 -15.430  0.00  0.00    -0.245 OA
ATOM     27  C   UNL     1      27.654 -23.303 -16.053  0.00  0.00    +0.338 C 
BRANCH  27  28
ATOM     28  O   UNL     1      27.442 -23.923 -17.246  0.00  0.00    -0.477 OA
ATOM     29  H   UNL     1      26.840 -24.639 -17.303  0.00  0.00    +0.295 HD
ENDBRANCH  27  28
ENDBRANCH  25  27
ENDBRANCH   6  20
TORSDOF 5
ENDMDL
