MODEL 1
REMARK VINA RESULT:     -11.6      0.000      0.000
REMARK  Name = 24779675
REMARK  4 active torsions:
REMARK  status: ('A' for Active; 'I' for Inactive)
REMARK    1  A    between atoms: N_1  and  C_22
REMARK    2  A    between atoms: N_5  and  C_14
REMARK    3  A    between atoms: C_10  and  C_21
REMARK    4  A    between atoms: C_22  and  C_23
REMARK                            x       y       z     vdW  Elec       q    Type
REMARK                         _______ _______ _______ _____ _____    ______ ____
ROOT
ATOM      1  N   UNL     1      34.550 -22.879 -18.022  0.00  0.00    -0.259 N 
ATOM      2  N   UNL     1      32.578 -22.971 -16.847  0.00  0.00    -0.314 NA
ATOM      3  N   UNL     1      34.598 -23.786 -15.867  0.00  0.00    -0.295 NA
ATOM      4  N   UNL     1      32.643 -23.885 -14.680  0.00  0.00    -0.123 N 
ATOM      5  N   UNL     1      34.621 -24.700 -13.679  0.00  0.00    -0.274 N 
ATOM      6  N   UNL     1      31.898 -24.184 -13.600  0.00  0.00    -0.170 NA
ATOM      7  C   UNL     1      33.870 -23.207 -16.904  0.00  0.00    +0.203 C 
ATOM      8  C   UNL     1      31.942 -23.317 -15.703  0.00  0.00    +0.219 C 
ATOM      9  C   UNL     1      34.005 -24.127 -14.759  0.00  0.00    +0.279 C 
ATOM     10  C   UNL     1      30.642 -23.238 -15.260  0.00  0.00    +0.203 C 
ATOM     11  C   UNL     1      30.675 -23.785 -13.961  0.00  0.00    +0.116 C 
ATOM     12  H   UNL     1      35.516 -23.060 -18.052  0.00  0.00    +0.160 HD
ATOM     13  H   UNL     1      34.049 -24.906 -12.905  0.00  0.00    +0.156 HD
ENDROOT
BRANCH   5  14
ATOM     14  C   UNL     1      35.974 -25.021 -13.559  0.00  0.00    +0.051 C 
ATOM     15  C   UNL     1      36.516 -26.056 -14.323  0.00  0.00    +0.015 C 
ATOM     16  C   UNL     1      36.785 -24.308 -12.676  0.00  0.00    +0.015 C 
ATOM     17  C   UNL     1      37.867 -26.378 -14.203  0.00  0.00    +0.001 C 
ATOM     18  C   UNL     1      38.137 -24.631 -12.556  0.00  0.00    +0.001 C 
ATOM     19  C   UNL     1      38.678 -25.666 -13.319  0.00  0.00    +0.000 C 
ENDBRANCH   5  14
BRANCH  10  21
ATOM     20  N   UNL     1      28.623 -22.289 -16.558  0.00  0.00    -0.195 NA
ATOM     21  C   UNL     1      29.530 -22.716 -15.974  0.00  0.00    +0.087 C 
ENDBRANCH  10  21
BRANCH   1  22
ATOM     22  C   UNL     1      33.930 -22.276 -19.173  0.00  0.00    +0.099 C 
BRANCH  22  23
ATOM     23  C   UNL     1      34.638 -20.964 -19.509  0.00  0.00    +0.020 C 
ATOM     24  C   UNL     1      36.122 -21.212 -19.812  0.00  0.00    +0.002 C 
ATOM     25  C   UNL     1      33.950 -20.264 -20.689  0.00  0.00    +0.002 C 
ATOM     26  C   UNL     1      36.841 -19.923 -20.204  0.00  0.00    +0.000 C 
ATOM     27  C   UNL     1      34.673 -18.977 -21.080  0.00  0.00    +0.000 C 
ATOM     28  C   UNL     1      36.150 -19.225 -21.370  0.00  0.00    +0.000 C 
ENDBRANCH  22  23
ENDBRANCH   1  22
TORSDOF 4
ENDMDL
MODEL 2
REMARK VINA RESULT:     -10.3      1.889      5.542
REMARK  Name = 24779675
REMARK  4 active torsions:
REMARK  status: ('A' for Active; 'I' for Inactive)
REMARK    1  A    between atoms: N_1  and  C_22
REMARK    2  A    between atoms: N_5  and  C_14
REMARK    3  A    between atoms: C_10  and  C_21
REMARK    4  A    between atoms: C_22  and  C_23
REMARK                            x       y       z     vdW  Elec       q    Type
REMARK                         _______ _______ _______ _____ _____    ______ ____
ROOT
ATOM      1  N   UNL     1      35.848 -22.322 -17.090  0.00  0.00    -0.259 N 
ATOM      2  N   UNL     1      37.204 -23.554 -15.704  0.00  0.00    -0.314 NA
ATOM      3  N   UNL     1      34.843 -23.508 -15.342  0.00  0.00    -0.295 NA
ATOM      4  N   UNL     1      36.178 -24.742 -13.950  0.00  0.00    -0.123 N 
ATOM      5  N   UNL     1      33.848 -24.719 -13.563  0.00  0.00    -0.274 N 
ATOM      6  N   UNL     1      36.407 -25.561 -12.909  0.00  0.00    -0.170 NA
ATOM      7  C   UNL     1      35.998 -23.144 -16.031  0.00  0.00    +0.203 C 
ATOM      8  C   UNL     1      37.301 -24.377 -14.635  0.00  0.00    +0.219 C 
ATOM      9  C   UNL     1      34.915 -24.298 -14.310  0.00  0.00    +0.279 C 
ATOM     10  C   UNL     1      38.343 -25.007 -13.992  0.00  0.00    +0.203 C 
ATOM     11  C   UNL     1      37.734 -25.720 -12.940  0.00  0.00    +0.116 C 
ATOM     12  H   UNL     1      34.940 -22.023 -17.325  0.00  0.00    +0.160 HD
ATOM     13  H   UNL     1      34.049 -25.317 -12.808  0.00  0.00    +0.156 HD
ENDROOT
BRANCH   5  14
ATOM     14  C   UNL     1      32.506 -24.389 -13.759  0.00  0.00    +0.051 C 
ATOM     15  C   UNL     1      31.513 -25.340 -13.523  0.00  0.00    +0.015 C 
ATOM     16  C   UNL     1      32.158 -23.110 -14.192  0.00  0.00    +0.015 C 
ATOM     17  C   UNL     1      30.171 -25.012 -13.720  0.00  0.00    +0.001 C 
ATOM     18  C   UNL     1      30.816 -22.782 -14.388  0.00  0.00    +0.001 C 
ATOM     19  C   UNL     1      29.823 -23.732 -14.152  0.00  0.00    +0.000 C 
ENDBRANCH   5  14
BRANCH  10  21
ATOM     20  N   UNL     1      40.846 -24.878 -14.612  0.00  0.00    -0.195 NA
ATOM     21  C   UNL     1      39.720 -24.936 -14.334  0.00  0.00    +0.087 C 
ENDBRANCH  10  21
BRANCH   1  22
ATOM     22  C   UNL     1      36.950 -21.863 -17.894  0.00  0.00    +0.099 C 
BRANCH  22  23
ATOM     23  C   UNL     1      36.434 -21.391 -19.252  0.00  0.00    +0.020 C 
ATOM     24  C   UNL     1      34.903 -21.283 -19.242  0.00  0.00    +0.002 C 
ATOM     25  C   UNL     1      37.073 -20.051 -19.639  0.00  0.00    +0.002 C 
ATOM     26  C   UNL     1      34.365 -20.761 -20.573  0.00  0.00    +0.000 C 
ATOM     27  C   UNL     1      36.531 -19.531 -20.969  0.00  0.00    +0.000 C 
ATOM     28  C   UNL     1      35.009 -19.434 -20.959  0.00  0.00    +0.000 C 
ENDBRANCH  22  23
ENDBRANCH   1  22
TORSDOF 4
ENDMDL
MODEL 3
REMARK VINA RESULT:     -10.3      1.751      7.422
REMARK  Name = 24779675
REMARK  4 active torsions:
REMARK  status: ('A' for Active; 'I' for Inactive)
REMARK    1  A    between atoms: N_1  and  C_22
REMARK    2  A    between atoms: N_5  and  C_14
REMARK    3  A    between atoms: C_10  and  C_21
REMARK    4  A    between atoms: C_22  and  C_23
REMARK                            x       y       z     vdW  Elec       q    Type
REMARK                         _______ _______ _______ _____ _____    ______ ____
ROOT
ATOM      1  N   UNL     1      33.073 -23.148 -14.620  0.00  0.00    -0.259 N 
ATOM      2  N   UNL     1      35.158 -23.834 -13.938  0.00  0.00    -0.314 NA
ATOM      3  N   UNL     1      34.888 -22.720 -16.033  0.00  0.00    -0.295 NA
ATOM      4  N   UNL     1      36.972 -23.394 -15.370  0.00  0.00    -0.123 N 
ATOM      5  N   UNL     1      36.742 -22.296 -17.448  0.00  0.00    -0.274 N 
ATOM      6  N   UNL     1      38.301 -23.533 -15.518  0.00  0.00    -0.170 NA
ATOM      7  C   UNL     1      34.401 -23.250 -14.841  0.00  0.00    +0.203 C 
ATOM      8  C   UNL     1      36.482 -23.909 -14.205  0.00  0.00    +0.219 C 
ATOM      9  C   UNL     1      36.158 -22.783 -16.310  0.00  0.00    +0.279 C 
ATOM     10  C   UNL     1      37.573 -24.422 -13.541  0.00  0.00    +0.203 C 
ATOM     11  C   UNL     1      38.663 -24.162 -14.396  0.00  0.00    +0.116 C 
ATOM     12  H   UNL     1      32.518 -22.709 -15.303  0.00  0.00    +0.160 HD
ATOM     13  H   UNL     1      37.716 -22.413 -17.526  0.00  0.00    +0.156 HD
ENDROOT
BRANCH   5  14
ATOM     14  C   UNL     1      36.103 -21.650 -18.508  0.00  0.00    +0.051 C 
ATOM     15  C   UNL     1      36.837 -20.841 -19.376  0.00  0.00    +0.015 C 
ATOM     16  C   UNL     1      34.731 -21.814 -18.699  0.00  0.00    +0.015 C 
ATOM     17  C   UNL     1      36.199 -20.195 -20.434  0.00  0.00    +0.001 C 
ATOM     18  C   UNL     1      34.093 -21.168 -19.758  0.00  0.00    +0.001 C 
ATOM     19  C   UNL     1      34.827 -20.359 -20.626  0.00  0.00    +0.000 C 
ENDBRANCH   5  14
BRANCH  10  21
ATOM     20  N   UNL     1      37.571 -25.596 -11.242  0.00  0.00    -0.195 NA
ATOM     21  C   UNL     1      37.572 -25.068 -12.276  0.00  0.00    +0.087 C 
ENDBRANCH  10  21
BRANCH   1  22
ATOM     22  C   UNL     1      32.431 -23.650 -13.434  0.00  0.00    +0.099 C 
BRANCH  22  23
ATOM     23  C   UNL     1      30.928 -23.777 -13.679  0.00  0.00    +0.020 C 
ATOM     24  C   UNL     1      30.464 -22.766 -14.737  0.00  0.00    +0.002 C 
ATOM     25  C   UNL     1      30.565 -25.208 -14.095  0.00  0.00    +0.002 C 
ATOM     26  C   UNL     1      28.974 -22.908 -15.038  0.00  0.00    +0.000 C 
ATOM     27  C   UNL     1      29.074 -25.346 -14.397  0.00  0.00    +0.000 C 
ATOM     28  C   UNL     1      28.615 -24.334 -15.443  0.00  0.00    +0.000 C 
ENDBRANCH  22  23
ENDBRANCH   1  22
TORSDOF 4
ENDMDL
MODEL 4
REMARK VINA RESULT:     -10.0      1.298      6.512
REMARK  Name = 24779675
REMARK  4 active torsions:
REMARK  status: ('A' for Active; 'I' for Inactive)
REMARK    1  A    between atoms: N_1  and  C_22
REMARK    2  A    between atoms: N_5  and  C_14
REMARK    3  A    between atoms: C_10  and  C_21
REMARK    4  A    between atoms: C_22  and  C_23
REMARK                            x       y       z     vdW  Elec       q    Type
REMARK                         _______ _______ _______ _____ _____    ______ ____
ROOT
ATOM      1  N   UNL     1      35.677 -23.067 -14.720  0.00  0.00    -0.259 N 
ATOM      2  N   UNL     1      33.456 -23.605 -14.483  0.00  0.00    -0.314 NA
ATOM      3  N   UNL     1      34.229 -22.550 -16.482  0.00  0.00    -0.295 NA
ATOM      4  N   UNL     1      32.012 -23.079 -16.265  0.00  0.00    -0.123 N 
ATOM      5  N   UNL     1      32.741 -22.037 -18.255  0.00  0.00    -0.274 N 
ATOM      6  N   UNL     1      30.737 -23.136 -16.686  0.00  0.00    -0.170 NA
ATOM      7  C   UNL     1      34.421 -23.088 -15.212  0.00  0.00    +0.203 C 
ATOM      8  C   UNL     1      32.215 -23.603 -15.021  0.00  0.00    +0.219 C 
ATOM      9  C   UNL     1      33.043 -22.538 -17.017  0.00  0.00    +0.279 C 
ATOM     10  C   UNL     1      30.979 -24.037 -14.599  0.00  0.00    +0.203 C 
ATOM     11  C   UNL     1      30.110 -23.724 -15.663  0.00  0.00    +0.116 C 
ATOM     12  H   UNL     1      36.390 -22.677 -15.275  0.00  0.00    +0.160 HD
ATOM     13  H   UNL     1      31.799 -22.093 -18.534  0.00  0.00    +0.156 HD
ENDROOT
BRANCH   5  14
ATOM     14  C   UNL     1      33.628 -21.455 -19.162  0.00  0.00    +0.051 C 
ATOM     15  C   UNL     1      33.163 -20.524 -20.092  0.00  0.00    +0.015 C 
ATOM     16  C   UNL     1      34.978 -21.804 -19.139  0.00  0.00    +0.015 C 
ATOM     17  C   UNL     1      34.049 -19.943 -21.000  0.00  0.00    +0.001 C 
ATOM     18  C   UNL     1      35.864 -21.222 -20.047  0.00  0.00    +0.001 C 
ATOM     19  C   UNL     1      35.399 -20.292 -20.977  0.00  0.00    +0.000 C 
ENDBRANCH   5  14
BRANCH  10  21
ATOM     20  N   UNL     1      30.423 -25.165 -12.345  0.00  0.00    -0.195 NA
ATOM     21  C   UNL     1      30.674 -24.659 -13.358  0.00  0.00    +0.087 C 
ENDBRANCH  10  21
BRANCH   1  22
ATOM     22  C   UNL     1      36.025 -23.586 -13.423  0.00  0.00    +0.099 C 
BRANCH  22  23
ATOM     23  C   UNL     1      37.482 -24.046 -13.427  0.00  0.00    +0.020 C 
ATOM     24  C   UNL     1      37.622 -25.407 -12.733  0.00  0.00    +0.002 C 
ATOM     25  C   UNL     1      38.028 -24.105 -14.860  0.00  0.00    +0.002 C 
ATOM     26  C   UNL     1      39.062 -25.914 -12.770  0.00  0.00    +0.000 C 
ATOM     27  C   UNL     1      39.467 -24.614 -14.894  0.00  0.00    +0.000 C 
ATOM     28  C   UNL     1      39.604 -25.964 -14.195  0.00  0.00    +0.000 C 
ENDBRANCH  22  23
ENDBRANCH   1  22
TORSDOF 4
ENDMDL
MODEL 5
REMARK VINA RESULT:      -8.9      1.744      7.446
REMARK  Name = 24779675
REMARK  4 active torsions:
REMARK  status: ('A' for Active; 'I' for Inactive)
REMARK    1  A    between atoms: N_1  and  C_22
REMARK    2  A    between atoms: N_5  and  C_14
REMARK    3  A    between atoms: C_10  and  C_21
REMARK    4  A    between atoms: C_22  and  C_23
REMARK                            x       y       z     vdW  Elec       q    Type
REMARK                         _______ _______ _______ _____ _____    ______ ____
ROOT
ATOM      1  N   UNL     1      32.431 -22.897 -17.302  0.00  0.00    -0.259 N 
ATOM      2  N   UNL     1      34.305 -23.359 -16.056  0.00  0.00    -0.314 NA
ATOM      3  N   UNL     1      34.473 -22.012 -18.021  0.00  0.00    -0.295 NA
ATOM      4  N   UNL     1      36.352 -22.461 -16.792  0.00  0.00    -0.123 N 
ATOM      5  N   UNL     1      36.554 -21.126 -18.730  0.00  0.00    -0.274 N 
ATOM      6  N   UNL     1      37.666 -22.381 -16.522  0.00  0.00    -0.170 NA
ATOM      7  C   UNL     1      33.759 -22.771 -17.097  0.00  0.00    +0.203 C 
ATOM      8  C   UNL     1      35.639 -23.201 -15.894  0.00  0.00    +0.219 C 
ATOM      9  C   UNL     1      35.757 -21.849 -17.885  0.00  0.00    +0.279 C 
ATOM     10  C   UNL     1      36.557 -23.637 -14.966  0.00  0.00    +0.203 C 
ATOM     11  C   UNL     1      37.786 -23.102 -15.403  0.00  0.00    +0.116 C 
ATOM     12  H   UNL     1      32.034 -22.452 -18.085  0.00  0.00    +0.160 HD
ATOM     13  H   UNL     1      37.512 -21.087 -18.505  0.00  0.00    +0.156 HD
ENDROOT
BRANCH   5  14
ATOM     14  C   UNL     1      36.154 -20.438 -19.876  0.00  0.00    +0.051 C 
ATOM     15  C   UNL     1      37.058 -19.614 -20.547  0.00  0.00    +0.015 C 
ATOM     16  C   UNL     1      34.849 -20.575 -20.352  0.00  0.00    +0.015 C 
ATOM     17  C   UNL     1      36.658 -18.925 -21.692  0.00  0.00    +0.001 C 
ATOM     18  C   UNL     1      34.450 -19.887 -21.498  0.00  0.00    +0.001 C 
ATOM     19  C   UNL     1      35.353 -19.062 -22.168  0.00  0.00    +0.000 C 
ENDBRANCH   5  14
BRANCH  10  21
ATOM     20  N   UNL     1      36.086 -25.111 -12.901  0.00  0.00    -0.195 NA
ATOM     21  C   UNL     1      36.298 -24.448 -13.829  0.00  0.00    +0.087 C 
ENDBRANCH  10  21
BRANCH   1  22
ATOM     22  C   UNL     1      31.567 -23.650 -16.431  0.00  0.00    +0.099 C 
BRANCH  22  23
ATOM     23  C   UNL     1      30.281 -22.865 -16.178  0.00  0.00    +0.020 C 
ATOM     24  C   UNL     1      29.118 -23.458 -16.985  0.00  0.00    +0.002 C 
ATOM     25  C   UNL     1      29.949 -22.837 -14.681  0.00  0.00    +0.002 C 
ATOM     26  C   UNL     1      27.808 -22.723 -16.708  0.00  0.00    +0.000 C 
ATOM     27  C   UNL     1      28.637 -22.104 -14.408  0.00  0.00    +0.000 C 
ATOM     28  C   UNL     1      27.485 -22.690 -15.218  0.00  0.00    +0.000 C 
ENDBRANCH  22  23
ENDBRANCH   1  22
TORSDOF 4
ENDMDL
