MODEL 1
REMARK VINA RESULT:     -12.4      0.000      0.000
REMARK  Name = 15602701
REMARK  5 active torsions:
REMARK  status: ('A' for Active; 'I' for Inactive)
REMARK    1  A    between atoms: N_5  and  C_12
REMARK    2  A    between atoms: C_6  and  C_22
REMARK    3  A    between atoms: C_13  and  C_21
REMARK    4  A    between atoms: C_22  and  C_23
REMARK    5  A    between atoms: C_23  and  N_24
REMARK                            x       y       z     vdW  Elec       q    Type
REMARK                         _______ _______ _______ _____ _____    ______ ____
ROOT
ATOM      1  S   UNL     1      34.305 -23.147 -16.405  0.00  0.00    -0.056 S 
ATOM      2  O   UNL     1      32.636 -20.684 -19.970  0.00  0.00    -0.252 OA
ATOM      3  N   UNL     1      32.151 -22.395 -17.620  0.00  0.00    -0.223 NA
ATOM      4  N   UNL     1      34.242 -21.621 -18.535  0.00  0.00    -0.248 N 
ATOM      5  N   UNL     1      34.915 -20.306 -20.317  0.00  0.00    -0.268 N 
ATOM      6  C   UNL     1      32.802 -23.660 -15.806  0.00  0.00    +0.031 C 
ATOM      7  C   UNL     1      31.774 -23.184 -16.552  0.00  0.00    +0.103 C 
ATOM      8  C   UNL     1      33.462 -22.306 -17.641  0.00  0.00    +0.166 C 
ATOM      9  C   UNL     1      33.806 -20.850 -19.646  0.00  0.00    +0.310 C 
ATOM     10  H   UNL     1      35.216 -21.669 -18.392  0.00  0.00    +0.158 HD
ATOM     11  H   UNL     1      35.798 -20.527 -19.940  0.00  0.00    +0.156 HD
ENDROOT
BRANCH   5  12
ATOM     12  C   UNL     1      34.919 -19.482 -21.467  0.00  0.00    +0.052 C 
ATOM     13  C   UNL     1      34.840 -17.294 -22.449  0.00  0.00    +0.073 C 
ATOM     14  C   UNL     1      34.836 -18.107 -21.316  0.00  0.00    +0.019 C 
ATOM     15  C   UNL     1      35.008 -20.066 -22.719  0.00  0.00    +0.015 C 
ATOM     16  C   UNL     1      34.930 -17.867 -23.718  0.00  0.00    +0.004 C 
ATOM     17  C   UNL     1      35.013 -19.253 -23.853  0.00  0.00    +0.001 C 
BRANCH  13  21
ATOM     18  F   UNL     1      33.508 -15.310 -22.565  0.00  0.00    -0.166 F 
ATOM     19  F   UNL     1      35.063 -15.365 -21.053  0.00  0.00    -0.166 F 
ATOM     20  F   UNL     1      35.596 -15.151 -23.150  0.00  0.00    -0.166 F 
ATOM     21  C   UNL     1      34.752 -15.812 -22.306  0.00  0.00    +0.419 C 
ENDBRANCH  13  21
ENDBRANCH   5  12
BRANCH   6  22
ATOM     22  C   UNL     1      32.750 -24.544 -14.581  0.00  0.00    +0.056 C 
BRANCH  22  23
ATOM     23  C   UNL     1      33.814 -24.179 -13.547  0.00  0.00    +0.093 C 
BRANCH  23  24
ATOM     24  N   UNL     1      35.038 -24.881 -13.797  0.00  0.00    -0.320 N 
ATOM     25  N   UNL     1      37.736 -26.301 -14.236  0.00  0.00    -0.220 N 
ATOM     26  N   UNL     1      39.032 -26.662 -14.175  0.00  0.00    -0.178 NA
ATOM     27  N   UNL     1      36.304 -23.540 -12.277  0.00  0.00    -0.232 NA
ATOM     28  N   UNL     1      38.686 -23.894 -11.894  0.00  0.00    -0.245 NA
ATOM     29  C   UNL     1      37.417 -25.251 -13.426  0.00  0.00    +0.185 C 
ATOM     30  C   UNL     1      36.250 -24.557 -13.166  0.00  0.00    +0.128 C 
ATOM     31  C   UNL     1      38.598 -24.906 -12.788  0.00  0.00    +0.103 C 
ATOM     32  C   UNL     1      39.554 -25.807 -13.288  0.00  0.00    +0.134 C 
ATOM     33  C   UNL     1      36.854 -27.029 -15.118  0.00  0.00    +0.135 C 
ATOM     34  C   UNL     1      37.502 -23.275 -11.703  0.00  0.00    +0.251 C 
ATOM     35  H   UNL     1      35.028 -25.626 -14.441  0.00  0.00    +0.148 HD
ENDBRANCH  23  24
ENDBRANCH  22  23
ENDBRANCH   6  22
TORSDOF 5
ENDMDL
MODEL 2
REMARK VINA RESULT:     -12.1      5.204     11.732
REMARK  Name = 15602701
REMARK  5 active torsions:
REMARK  status: ('A' for Active; 'I' for Inactive)
REMARK    1  A    between atoms: N_5  and  C_12
REMARK    2  A    between atoms: C_6  and  C_22
REMARK    3  A    between atoms: C_13  and  C_21
REMARK    4  A    between atoms: C_22  and  C_23
REMARK    5  A    between atoms: C_23  and  N_24
REMARK                            x       y       z     vdW  Elec       q    Type
REMARK                         _______ _______ _______ _____ _____    ______ ____
ROOT
ATOM      1  S   UNL     1      36.618 -20.783 -19.580  0.00  0.00    -0.056 S 
ATOM      2  O   UNL     1      35.271 -23.406 -15.993  0.00  0.00    -0.252 OA
ATOM      3  N   UNL     1      34.592 -21.917 -18.443  0.00  0.00    -0.223 NA
ATOM      4  N   UNL     1      36.737 -22.212 -17.386  0.00  0.00    -0.248 N 
ATOM      5  N   UNL     1      37.554 -23.297 -15.512  0.00  0.00    -0.268 N 
ATOM      6  C   UNL     1      35.081 -20.610 -20.279  0.00  0.00    +0.031 C 
ATOM      7  C   UNL     1      34.128 -21.260 -19.566  0.00  0.00    +0.103 C 
ATOM      8  C   UNL     1      35.890 -21.734 -18.350  0.00  0.00    +0.166 C 
ATOM      9  C   UNL     1      36.401 -23.016 -16.264  0.00  0.00    +0.310 C 
ATOM     10  H   UNL     1      37.688 -21.971 -17.481  0.00  0.00    +0.158 HD
ATOM     11  H   UNL     1      38.395 -22.914 -15.853  0.00  0.00    +0.156 HD
ENDROOT
BRANCH   5  12
ATOM     12  C   UNL     1      37.656 -24.061 -14.326  0.00  0.00    +0.052 C 
ATOM     13  C   UNL     1      36.933 -24.514 -12.083  0.00  0.00    +0.073 C 
ATOM     14  C   UNL     1      36.833 -23.760 -13.253  0.00  0.00    +0.019 C 
ATOM     15  C   UNL     1      38.575 -25.095 -14.263  0.00  0.00    +0.015 C 
ATOM     16  C   UNL     1      37.854 -25.559 -12.003  0.00  0.00    +0.004 C 
ATOM     17  C   UNL     1      38.675 -25.849 -13.093  0.00  0.00    +0.001 C 
BRANCH  13  21
ATOM     18  F   UNL     1      35.550 -25.316 -10.303  0.00  0.00    -0.166 F 
ATOM     19  F   UNL     1      36.684 -23.505  -9.929  0.00  0.00    -0.166 F 
ATOM     20  F   UNL     1      34.968 -23.454 -11.264  0.00  0.00    -0.166 F 
ATOM     21  C   UNL     1      36.054 -24.205 -10.918  0.00  0.00    +0.419 C 
ENDBRANCH  13  21
ENDBRANCH   5  12
BRANCH   6  22
ATOM     22  C   UNL     1      34.924 -19.801 -21.545  0.00  0.00    +0.056 C 
BRANCH  22  23
ATOM     23  C   UNL     1      35.892 -18.620 -21.612  0.00  0.00    +0.093 C 
BRANCH  23  24
ATOM     24  N   UNL     1      35.185 -17.373 -21.603  0.00  0.00    -0.320 N 
ATOM     25  N   UNL     1      33.668 -14.696 -21.735  0.00  0.00    -0.220 N 
ATOM     26  N   UNL     1      33.050 -13.580 -22.166  0.00  0.00    -0.178 NA
ATOM     27  N   UNL     1      35.156 -17.191 -23.987  0.00  0.00    -0.232 NA
ATOM     28  N   UNL     1      34.124 -15.307 -25.141  0.00  0.00    -0.245 NA
ATOM     29  C   UNL     1      34.148 -15.484 -22.739  0.00  0.00    +0.185 C 
ATOM     30  C   UNL     1      34.830 -16.686 -22.776  0.00  0.00    +0.128 C 
ATOM     31  C   UNL     1      33.813 -14.829 -23.914  0.00  0.00    +0.103 C 
ATOM     32  C   UNL     1      33.141 -13.666 -23.498  0.00  0.00    +0.134 C 
ATOM     33  C   UNL     1      33.758 -14.934 -20.313  0.00  0.00    +0.135 C 
ATOM     34  C   UNL     1      34.788 -16.481 -25.080  0.00  0.00    +0.251 C 
ATOM     35  H   UNL     1      34.935 -16.982 -20.736  0.00  0.00    +0.148 HD
ENDBRANCH  23  24
ENDBRANCH  22  23
ENDBRANCH   6  22
TORSDOF 5
ENDMDL
MODEL 3
REMARK VINA RESULT:     -12.0      5.200     11.572
REMARK  Name = 15602701
REMARK  5 active torsions:
REMARK  status: ('A' for Active; 'I' for Inactive)
REMARK    1  A    between atoms: N_5  and  C_12
REMARK    2  A    between atoms: C_6  and  C_22
REMARK    3  A    between atoms: C_13  and  C_21
REMARK    4  A    between atoms: C_22  and  C_23
REMARK    5  A    between atoms: C_23  and  N_24
REMARK                            x       y       z     vdW  Elec       q    Type
REMARK                         _______ _______ _______ _____ _____    ______ ____
ROOT
ATOM      1  S   UNL     1      36.660 -20.771 -19.591  0.00  0.00    -0.056 S 
ATOM      2  O   UNL     1      35.295 -23.393 -16.010  0.00  0.00    -0.252 OA
ATOM      3  N   UNL     1      34.630 -21.915 -18.470  0.00  0.00    -0.223 NA
ATOM      4  N   UNL     1      36.768 -22.193 -17.392  0.00  0.00    -0.248 N 
ATOM      5  N   UNL     1      37.573 -23.267 -15.507  0.00  0.00    -0.268 N 
ATOM      6  C   UNL     1      35.128 -20.611 -20.306  0.00  0.00    +0.031 C 
ATOM      7  C   UNL     1      34.173 -21.265 -19.599  0.00  0.00    +0.103 C 
ATOM      8  C   UNL     1      35.926 -21.723 -18.366  0.00  0.00    +0.166 C 
ATOM      9  C   UNL     1      36.426 -22.996 -16.271  0.00  0.00    +0.310 C 
ATOM     10  H   UNL     1      37.717 -21.946 -17.478  0.00  0.00    +0.158 HD
ATOM     11  H   UNL     1      38.415 -22.879 -15.841  0.00  0.00    +0.156 HD
ENDROOT
BRANCH   5  12
ATOM     12  C   UNL     1      37.669 -24.027 -14.318  0.00  0.00    +0.052 C 
ATOM     13  C   UNL     1      36.936 -24.470 -12.076  0.00  0.00    +0.073 C 
ATOM     14  C   UNL     1      36.842 -23.720 -13.249  0.00  0.00    +0.019 C 
ATOM     15  C   UNL     1      38.586 -25.062 -14.247  0.00  0.00    +0.015 C 
ATOM     16  C   UNL     1      37.854 -25.517 -11.989  0.00  0.00    +0.004 C 
ATOM     17  C   UNL     1      38.680 -25.812 -13.074  0.00  0.00    +0.001 C 
BRANCH  13  21
ATOM     18  F   UNL     1      34.930 -23.457 -11.256  0.00  0.00    -0.166 F 
ATOM     19  F   UNL     1      35.599 -25.263 -10.258  0.00  0.00    -0.166 F 
ATOM     20  F   UNL     1      36.681 -23.399  -9.969  0.00  0.00    -0.166 F 
ATOM     21  C   UNL     1      36.054 -24.155 -10.916  0.00  0.00    +0.419 C 
ENDBRANCH  13  21
ENDBRANCH   5  12
BRANCH   6  22
ATOM     22  C   UNL     1      34.978 -19.806 -21.576  0.00  0.00    +0.056 C 
BRANCH  22  23
ATOM     23  C   UNL     1      35.893 -18.582 -21.608  0.00  0.00    +0.093 C 
BRANCH  23  24
ATOM     24  N   UNL     1      35.370 -17.572 -22.480  0.00  0.00    -0.320 N 
ATOM     25  N   UNL     1      34.206 -15.321 -24.231  0.00  0.00    -0.220 N 
ATOM     26  N   UNL     1      33.613 -14.190 -24.657  0.00  0.00    -0.178 NA
ATOM     27  N   UNL     1      34.617 -16.186 -20.683  0.00  0.00    -0.232 NA
ATOM     28  N   UNL     1      33.496 -14.054 -21.058  0.00  0.00    -0.245 NA
ATOM     29  C   UNL     1      34.252 -15.443 -22.874  0.00  0.00    +0.185 C 
ATOM     30  C   UNL     1      34.749 -16.402 -22.011  0.00  0.00    +0.128 C 
ATOM     31  C   UNL     1      33.643 -14.300 -22.380  0.00  0.00    +0.103 C 
ATOM     32  C   UNL     1      33.271 -13.570 -23.522  0.00  0.00    +0.134 C 
ATOM     33  C   UNL     1      34.710 -16.252 -25.214  0.00  0.00    +0.135 C 
ATOM     34  C   UNL     1      34.008 -15.042 -20.293  0.00  0.00    +0.251 C 
ATOM     35  H   UNL     1      35.451 -17.703 -23.452  0.00  0.00    +0.148 HD
ENDBRANCH  23  24
ENDBRANCH  22  23
ENDBRANCH   6  22
TORSDOF 5
ENDMDL
MODEL 4
REMARK VINA RESULT:     -11.7      5.279     11.676
REMARK  Name = 15602701
REMARK  5 active torsions:
REMARK  status: ('A' for Active; 'I' for Inactive)
REMARK    1  A    between atoms: N_5  and  C_12
REMARK    2  A    between atoms: C_6  and  C_22
REMARK    3  A    between atoms: C_13  and  C_21
REMARK    4  A    between atoms: C_22  and  C_23
REMARK    5  A    between atoms: C_23  and  N_24
REMARK                            x       y       z     vdW  Elec       q    Type
REMARK                         _______ _______ _______ _____ _____    ______ ____
ROOT
ATOM      1  S   UNL     1      34.052 -21.031 -20.155  0.00  0.00    -0.056 S 
ATOM      2  O   UNL     1      36.920 -22.320 -16.738  0.00  0.00    -0.252 OA
ATOM      3  N   UNL     1      36.472 -20.865 -19.261  0.00  0.00    -0.223 NA
ATOM      4  N   UNL     1      34.915 -22.157 -17.951  0.00  0.00    -0.248 N 
ATOM      5  N   UNL     1      34.977 -23.377 -15.986  0.00  0.00    -0.268 N 
ATOM      6  C   UNL     1      35.193 -20.133 -21.035  0.00  0.00    +0.031 C 
ATOM      7  C   UNL     1      36.411 -20.144 -20.437  0.00  0.00    +0.103 C 
ATOM      8  C   UNL     1      35.287 -21.376 -19.014  0.00  0.00    +0.166 C 
ATOM      9  C   UNL     1      35.732 -22.592 -16.873  0.00  0.00    +0.310 C 
ATOM     10  H   UNL     1      33.975 -22.451 -17.933  0.00  0.00    +0.158 HD
ATOM     11  H   UNL     1      34.031 -23.510 -16.225  0.00  0.00    +0.156 HD
ENDROOT
BRANCH   5  12
ATOM     12  C   UNL     1      35.408 -24.000 -14.791  0.00  0.00    +0.052 C 
ATOM     13  C   UNL     1      36.989 -25.377 -13.625  0.00  0.00    +0.073 C 
ATOM     14  C   UNL     1      36.564 -24.764 -14.804  0.00  0.00    +0.019 C 
ATOM     15  C   UNL     1      34.667 -23.832 -13.633  0.00  0.00    +0.015 C 
ATOM     16  C   UNL     1      36.254 -25.218 -12.451  0.00  0.00    +0.004 C 
ATOM     17  C   UNL     1      35.092 -24.446 -12.455  0.00  0.00    +0.001 C 
BRANCH  13  21
ATOM     18  F   UNL     1      39.174 -25.779 -14.514  0.00  0.00    -0.166 F 
ATOM     19  F   UNL     1      38.870 -26.222 -12.413  0.00  0.00    -0.166 F 
ATOM     20  F   UNL     1      37.995 -27.511 -13.930  0.00  0.00    -0.166 F 
ATOM     21  C   UNL     1      38.232 -26.203 -13.620  0.00  0.00    +0.419 C 
ENDBRANCH  13  21
ENDBRANCH   5  12
BRANCH   6  22
ATOM     22  C   UNL     1      34.778 -19.452 -22.318  0.00  0.00    +0.056 C 
BRANCH  22  23
ATOM     23  C   UNL     1      35.816 -18.446 -22.813  0.00  0.00    +0.093 C 
BRANCH  23  24
ATOM     24  N   UNL     1      35.186 -17.270 -23.336  0.00  0.00    -0.320 N 
ATOM     25  N   UNL     1      33.817 -14.692 -24.320  0.00  0.00    -0.220 N 
ATOM     26  N   UNL     1      33.206 -13.494 -24.376  0.00  0.00    -0.178 NA
ATOM     27  N   UNL     1      34.844 -16.301 -21.178  0.00  0.00    -0.232 NA
ATOM     28  N   UNL     1      33.768 -14.134 -20.875  0.00  0.00    -0.245 NA
ATOM     29  C   UNL     1      34.110 -15.103 -23.053  0.00  0.00    +0.185 C 
ATOM     30  C   UNL     1      34.716 -16.227 -22.522  0.00  0.00    +0.128 C 
ATOM     31  C   UNL     1      33.656 -14.091 -22.223  0.00  0.00    +0.103 C 
ATOM     32  C   UNL     1      33.110 -13.131 -23.093  0.00  0.00    +0.134 C 
ATOM     33  C   UNL     1      34.087 -15.393 -25.554  0.00  0.00    +0.135 C 
ATOM     34  C   UNL     1      34.369 -15.264 -20.448  0.00  0.00    +0.251 C 
ATOM     35  H   UNL     1      35.079 -17.190 -24.312  0.00  0.00    +0.148 HD
ENDBRANCH  23  24
ENDBRANCH  22  23
ENDBRANCH   6  22
TORSDOF 5
ENDMDL
MODEL 5
REMARK VINA RESULT:     -11.7      5.355     11.937
REMARK  Name = 15602701
REMARK  5 active torsions:
REMARK  status: ('A' for Active; 'I' for Inactive)
REMARK    1  A    between atoms: N_5  and  C_12
REMARK    2  A    between atoms: C_6  and  C_22
REMARK    3  A    between atoms: C_13  and  C_21
REMARK    4  A    between atoms: C_22  and  C_23
REMARK    5  A    between atoms: C_23  and  N_24
REMARK                            x       y       z     vdW  Elec       q    Type
REMARK                         _______ _______ _______ _____ _____    ______ ____
ROOT
ATOM      1  S   UNL     1      34.158 -20.947 -20.275  0.00  0.00    -0.056 S 
ATOM      2  O   UNL     1      37.005 -22.225 -16.837  0.00  0.00    -0.252 OA
ATOM      3  N   UNL     1      36.567 -20.762 -19.356  0.00  0.00    -0.223 NA
ATOM      4  N   UNL     1      35.010 -22.076 -18.069  0.00  0.00    -0.248 N 
ATOM      5  N   UNL     1      35.065 -23.305 -16.109  0.00  0.00    -0.268 N 
ATOM      6  C   UNL     1      35.299 -20.033 -21.139  0.00  0.00    +0.031 C 
ATOM      7  C   UNL     1      36.511 -20.036 -20.529  0.00  0.00    +0.103 C 
ATOM      8  C   UNL     1      35.385 -21.286 -19.124  0.00  0.00    +0.166 C 
ATOM      9  C   UNL     1      35.821 -22.508 -16.985  0.00  0.00    +0.310 C 
ATOM     10  H   UNL     1      34.073 -22.379 -18.061  0.00  0.00    +0.158 HD
ATOM     11  H   UNL     1      34.122 -23.446 -16.358  0.00  0.00    +0.156 HD
ENDROOT
BRANCH   5  12
ATOM     12  C   UNL     1      35.490 -23.930 -14.913  0.00  0.00    +0.052 C 
ATOM     13  C   UNL     1      37.051 -25.331 -13.748  0.00  0.00    +0.073 C 
ATOM     14  C   UNL     1      36.631 -24.716 -14.928  0.00  0.00    +0.019 C 
ATOM     15  C   UNL     1      34.758 -23.742 -13.752  0.00  0.00    +0.015 C 
ATOM     16  C   UNL     1      36.325 -25.152 -12.570  0.00  0.00    +0.004 C 
ATOM     17  C   UNL     1      35.178 -24.358 -12.573  0.00  0.00    +0.001 C 
BRANCH  13  21
ATOM     18  F   UNL     1      39.227 -25.774 -14.640  0.00  0.00    -0.166 F 
ATOM     19  F   UNL     1      38.916 -26.213 -12.538  0.00  0.00    -0.166 F 
ATOM     20  F   UNL     1      38.016 -27.483 -14.056  0.00  0.00    -0.166 F 
ATOM     21  C   UNL     1      38.278 -26.180 -13.745  0.00  0.00    +0.419 C 
ENDBRANCH  13  21
ENDBRANCH   5  12
BRANCH   6  22
ATOM     22  C   UNL     1      34.889 -19.350 -22.423  0.00  0.00    +0.056 C 
BRANCH  22  23
ATOM     23  C   UNL     1      35.761 -18.138 -22.748  0.00  0.00    +0.093 C 
BRANCH  23  24
ATOM     24  N   UNL     1      35.106 -16.918 -22.377  0.00  0.00    -0.320 N 
ATOM     25  N   UNL     1      33.672 -14.271 -21.725  0.00  0.00    -0.220 N 
ATOM     26  N   UNL     1      33.014 -13.100 -21.819  0.00  0.00    -0.178 NA
ATOM     27  N   UNL     1      34.611 -16.311 -24.635  0.00  0.00    -0.232 NA
ATOM     28  N   UNL     1      33.426 -14.258 -25.206  0.00  0.00    -0.245 NA
ATOM     29  C   UNL     1      33.920 -14.863 -22.929  0.00  0.00    +0.185 C 
ATOM     30  C   UNL     1      34.546 -16.034 -23.314  0.00  0.00    +0.128 C 
ATOM     31  C   UNL     1      33.378 -14.010 -23.877  0.00  0.00    +0.103 C 
ATOM     32  C   UNL     1      32.837 -12.946 -23.136  0.00  0.00    +0.134 C 
ATOM     33  C   UNL     1      34.036 -14.760 -20.415  0.00  0.00    +0.135 C 
ATOM     34  C   UNL     1      34.054 -15.419 -25.489  0.00  0.00    +0.251 C 
ATOM     35  H   UNL     1      35.046 -16.690 -21.421  0.00  0.00    +0.148 HD
ENDBRANCH  23  24
ENDBRANCH  22  23
ENDBRANCH   6  22
TORSDOF 5
ENDMDL
MODEL 6
REMARK VINA RESULT:     -11.4      7.068     13.573
REMARK  Name = 15602701
REMARK  5 active torsions:
REMARK  status: ('A' for Active; 'I' for Inactive)
REMARK    1  A    between atoms: N_5  and  C_12
REMARK    2  A    between atoms: C_6  and  C_22
REMARK    3  A    between atoms: C_13  and  C_21
REMARK    4  A    between atoms: C_22  and  C_23
REMARK    5  A    between atoms: C_23  and  N_24
REMARK                            x       y       z     vdW  Elec       q    Type
REMARK                         _______ _______ _______ _____ _____    ______ ____
ROOT
ATOM      1  S   UNL     1      34.150 -15.451 -24.485  0.00  0.00    -0.056 S 
ATOM      2  O   UNL     1      35.218 -17.131 -20.291  0.00  0.00    -0.252 OA
ATOM      3  N   UNL     1      34.616 -14.824 -22.021  0.00  0.00    -0.223 NA
ATOM      4  N   UNL     1      34.727 -17.164 -22.587  0.00  0.00    -0.248 N 
ATOM      5  N   UNL     1      35.164 -19.145 -21.474  0.00  0.00    -0.268 N 
ATOM      6  C   UNL     1      34.085 -13.818 -24.027  0.00  0.00    +0.031 C 
ATOM      7  C   UNL     1      34.353 -13.655 -22.708  0.00  0.00    +0.103 C 
ATOM      8  C   UNL     1      34.536 -15.834 -22.858  0.00  0.00    +0.166 C 
ATOM      9  C   UNL     1      35.055 -17.751 -21.336  0.00  0.00    +0.310 C 
ATOM     10  H   UNL     1      34.625 -17.783 -23.346  0.00  0.00    +0.158 HD
ATOM     11  H   UNL     1      35.005 -19.503 -22.377  0.00  0.00    +0.156 HD
ENDROOT
BRANCH   5  12
ATOM     12  C   UNL     1      35.474 -20.097 -20.475  0.00  0.00    +0.052 C 
ATOM     13  C   UNL     1      34.752 -21.735 -18.876  0.00  0.00    +0.073 C 
ATOM     14  C   UNL     1      34.446 -20.795 -19.860  0.00  0.00    +0.019 C 
ATOM     15  C   UNL     1      36.798 -20.315 -20.133  0.00  0.00    +0.015 C 
ATOM     16  C   UNL     1      36.081 -21.966 -18.520  0.00  0.00    +0.004 C 
ATOM     17  C   UNL     1      37.104 -21.255 -19.148  0.00  0.00    +0.001 C 
BRANCH  13  21
ATOM     18  F   UNL     1      33.890 -22.733 -16.879  0.00  0.00    -0.166 F 
ATOM     19  F   UNL     1      32.448 -21.863 -18.246  0.00  0.00    -0.166 F 
ATOM     20  F   UNL     1      33.450 -23.722 -18.765  0.00  0.00    -0.166 F 
ATOM     21  C   UNL     1      33.658 -22.495 -18.204  0.00  0.00    +0.419 C 
ENDBRANCH  13  21
ENDBRANCH   5  12
BRANCH   6  22
ATOM     22  C   UNL     1      33.760 -12.765 -25.062  0.00  0.00    +0.056 C 
BRANCH  22  23
ATOM     23  C   UNL     1      34.427 -11.423 -24.765  0.00  0.00    +0.093 C 
BRANCH  23  24
ATOM     24  N   UNL     1      33.693 -10.690 -23.776  0.00  0.00    -0.320 N 
ATOM     25  N   UNL     1      32.205  -8.997 -21.678  0.00  0.00    -0.220 N 
ATOM     26  N   UNL     1      31.813  -7.997 -20.865  0.00  0.00    -0.178 NA
ATOM     27  N   UNL     1      35.018  -8.716 -24.027  0.00  0.00    -0.232 NA
ATOM     28  N   UNL     1      34.610  -6.695 -22.725  0.00  0.00    -0.245 NA
ATOM     29  C   UNL     1      33.270  -8.679 -22.468  0.00  0.00    +0.185 C 
ATOM     30  C   UNL     1      33.994  -9.363 -23.426  0.00  0.00    +0.128 C 
ATOM     31  C   UNL     1      33.592  -7.371 -22.144  0.00  0.00    +0.103 C 
ATOM     32  C   UNL     1      32.663  -7.006 -21.154  0.00  0.00    +0.134 C 
ATOM     33  C   UNL     1      31.490 -10.251 -21.631  0.00  0.00    +0.135 C 
ATOM     34  C   UNL     1      35.259  -7.439 -23.645  0.00  0.00    +0.251 C 
ATOM     35  H   UNL     1      32.943 -11.137 -23.322  0.00  0.00    +0.148 HD
ENDBRANCH  23  24
ENDBRANCH  22  23
ENDBRANCH   6  22
TORSDOF 5
ENDMDL
MODEL 7
REMARK VINA RESULT:     -11.3      5.057     11.705
REMARK  Name = 15602701
REMARK  5 active torsions:
REMARK  status: ('A' for Active; 'I' for Inactive)
REMARK    1  A    between atoms: N_5  and  C_12
REMARK    2  A    between atoms: C_6  and  C_22
REMARK    3  A    between atoms: C_13  and  C_21
REMARK    4  A    between atoms: C_22  and  C_23
REMARK    5  A    between atoms: C_23  and  N_24
REMARK                            x       y       z     vdW  Elec       q    Type
REMARK                         _______ _______ _______ _____ _____    ______ ____
ROOT
ATOM      1  S   UNL     1      36.019 -20.596 -20.115  0.00  0.00    -0.056 S 
ATOM      2  O   UNL     1      32.183 -22.176 -18.029  0.00  0.00    -0.252 OA
ATOM      3  N   UNL     1      33.439 -20.704 -20.250  0.00  0.00    -0.223 NA
ATOM      4  N   UNL     1      34.476 -21.797 -18.369  0.00  0.00    -0.248 N 
ATOM      5  N   UNL     1      33.768 -22.997 -16.522  0.00  0.00    -0.268 N 
ATOM      6  C   UNL     1      35.232 -19.845 -21.418  0.00  0.00    +0.031 C 
ATOM      7  C   UNL     1      33.886 -19.989 -21.344  0.00  0.00    +0.103 C 
ATOM      8  C   UNL     1      34.476 -21.074 -19.532  0.00  0.00    +0.166 C 
ATOM      9  C   UNL     1      33.349 -22.311 -17.674  0.00  0.00    +0.310 C 
ATOM     10  H   UNL     1      35.357 -21.981 -17.968  0.00  0.00    +0.158 HD
ATOM     11  H   UNL     1      34.740 -23.023 -16.364  0.00  0.00    +0.156 HD
ENDROOT
BRANCH   5  12
ATOM     12  C   UNL     1      32.966 -23.654 -15.559  0.00  0.00    +0.052 C 
ATOM     13  C   UNL     1      30.810 -24.400 -14.817  0.00  0.00    +0.073 C 
ATOM     14  C   UNL     1      31.600 -23.751 -15.767  0.00  0.00    +0.019 C 
ATOM     15  C   UNL     1      33.564 -24.189 -14.430  0.00  0.00    +0.015 C 
ATOM     16  C   UNL     1      31.396 -24.944 -13.675  0.00  0.00    +0.004 C 
ATOM     17  C   UNL     1      32.774 -24.838 -13.481  0.00  0.00    +0.001 C 
BRANCH  13  21
ATOM     18  F   UNL     1      28.680 -23.319 -14.962  0.00  0.00    -0.166 F 
ATOM     19  F   UNL     1      28.995 -25.045 -16.236  0.00  0.00    -0.166 F 
ATOM     20  F   UNL     1      28.736 -25.311 -14.094  0.00  0.00    -0.166 F 
ATOM     21  C   UNL     1      29.337 -24.515 -15.025  0.00  0.00    +0.419 C 
ENDBRANCH  13  21
ENDBRANCH   5  12
BRANCH   6  22
ATOM     22  C   UNL     1      36.048 -19.129 -22.469  0.00  0.00    +0.056 C 
BRANCH  22  23
ATOM     23  C   UNL     1      35.180 -18.371 -23.473  0.00  0.00    +0.093 C 
BRANCH  23  24
ATOM     24  N   UNL     1      34.845 -17.067 -22.983  0.00  0.00    -0.320 N 
ATOM     25  N   UNL     1      34.088 -14.224 -22.070  0.00  0.00    -0.220 N 
ATOM     26  N   UNL     1      33.693 -12.937 -22.043  0.00  0.00    -0.178 NA
ATOM     27  N   UNL     1      34.276 -16.226 -25.147  0.00  0.00    -0.232 NA
ATOM     28  N   UNL     1      33.514 -13.937 -25.501  0.00  0.00    -0.245 NA
ATOM     29  C   UNL     1      34.084 -14.777 -23.317  0.00  0.00    +0.185 C 
ATOM     30  C   UNL     1      34.401 -16.026 -23.816  0.00  0.00    +0.128 C 
ATOM     31  C   UNL     1      33.651 -13.770 -24.165  0.00  0.00    +0.103 C 
ATOM     32  C   UNL     1      33.427 -12.664 -23.326  0.00  0.00    +0.134 C 
ATOM     33  C   UNL     1      34.463 -14.861 -20.829  0.00  0.00    +0.135 C 
ATOM     34  C   UNL     1      33.846 -15.184 -25.897  0.00  0.00    +0.251 C 
ATOM     35  H   UNL     1      34.928 -16.893 -22.018  0.00  0.00    +0.148 HD
ENDBRANCH  23  24
ENDBRANCH  22  23
ENDBRANCH   6  22
TORSDOF 5
ENDMDL
MODEL 8
REMARK VINA RESULT:     -11.3      6.000     11.300
REMARK  Name = 15602701
REMARK  5 active torsions:
REMARK  status: ('A' for Active; 'I' for Inactive)
REMARK    1  A    between atoms: N_5  and  C_12
REMARK    2  A    between atoms: C_6  and  C_22
REMARK    3  A    between atoms: C_13  and  C_21
REMARK    4  A    between atoms: C_22  and  C_23
REMARK    5  A    between atoms: C_23  and  N_24
REMARK                            x       y       z     vdW  Elec       q    Type
REMARK                         _______ _______ _______ _____ _____    ______ ____
ROOT
ATOM      1  S   UNL     1      33.871 -20.131 -20.558  0.00  0.00    -0.056 S 
ATOM      2  O   UNL     1      33.359 -23.103 -17.027  0.00  0.00    -0.252 OA
ATOM      3  N   UNL     1      35.115 -21.735 -18.956  0.00  0.00    -0.223 NA
ATOM      4  N   UNL     1      32.728 -21.558 -18.680  0.00  0.00    -0.248 N 
ATOM      5  N   UNL     1      31.123 -22.481 -17.292  0.00  0.00    -0.268 N 
ATOM      6  C   UNL     1      35.554 -20.297 -20.705  0.00  0.00    +0.031 C 
ATOM      7  C   UNL     1      36.055 -21.172 -19.798  0.00  0.00    +0.103 C 
ATOM      8  C   UNL     1      33.930 -21.260 -19.266  0.00  0.00    +0.166 C 
ATOM      9  C   UNL     1      32.493 -22.452 -17.601  0.00  0.00    +0.310 C 
ATOM     10  H   UNL     1      31.936 -21.100 -19.048  0.00  0.00    +0.158 HD
ATOM     11  H   UNL     1      30.544 -21.903 -17.841  0.00  0.00    +0.156 HD
ENDROOT
BRANCH   5  12
ATOM     12  C   UNL     1      30.471 -23.237 -16.289  0.00  0.00    +0.052 C 
ATOM     13  C   UNL     1      30.465 -24.190 -14.087  0.00  0.00    +0.073 C 
ATOM     14  C   UNL     1      31.108 -23.445 -15.076  0.00  0.00    +0.019 C 
ATOM     15  C   UNL     1      29.210 -23.752 -16.539  0.00  0.00    +0.015 C 
ATOM     16  C   UNL     1      29.195 -24.715 -14.323  0.00  0.00    +0.004 C 
ATOM     17  C   UNL     1      28.568 -24.497 -15.550  0.00  0.00    +0.001 C 
BRANCH  13  21
ATOM     18  F   UNL     1      30.271 -24.753 -11.769  0.00  0.00    -0.166 F 
ATOM     19  F   UNL     1      32.052 -25.435 -12.802  0.00  0.00    -0.166 F 
ATOM     20  F   UNL     1      31.814 -23.326 -12.329  0.00  0.00    -0.166 F 
ATOM     21  C   UNL     1      31.135 -24.423 -12.775  0.00  0.00    +0.419 C 
ENDBRANCH  13  21
ENDBRANCH   5  12
BRANCH   6  22
ATOM     22  C   UNL     1      36.291 -19.510 -21.764  0.00  0.00    +0.056 C 
BRANCH  22  23
ATOM     23  C   UNL     1      36.414 -18.027 -21.416  0.00  0.00    +0.093 C 
BRANCH  23  24
ATOM     24  N   UNL     1      35.733 -17.214 -22.380  0.00  0.00    -0.320 N 
ATOM     25  N   UNL     1      34.213 -15.386 -24.339  0.00  0.00    -0.220 N 
ATOM     26  N   UNL     1      33.430 -14.428 -24.870  0.00  0.00    -0.178 NA
ATOM     27  N   UNL     1      34.695 -15.839 -20.723  0.00  0.00    -0.232 NA
ATOM     28  N   UNL     1      33.206 -13.997 -21.300  0.00  0.00    -0.245 NA
ATOM     29  C   UNL     1      34.249 -15.376 -22.975  0.00  0.00    +0.185 C 
ATOM     30  C   UNL     1      34.895 -16.144 -22.025  0.00  0.00    +0.128 C 
ATOM     31  C   UNL     1      33.427 -14.328 -22.593  0.00  0.00    +0.103 C 
ATOM     32  C   UNL     1      32.952 -13.784 -23.799  0.00  0.00    +0.134 C 
ATOM     33  C   UNL     1      34.904 -16.291 -25.229  0.00  0.00    +0.135 C 
ATOM     34  C   UNL     1      33.874 -14.799 -20.444  0.00  0.00    +0.251 C 
ATOM     35  H   UNL     1      35.860 -17.414 -23.336  0.00  0.00    +0.148 HD
ENDBRANCH  23  24
ENDBRANCH  22  23
ENDBRANCH   6  22
TORSDOF 5
ENDMDL
MODEL 9
REMARK VINA RESULT:     -11.2      6.211      9.844
REMARK  Name = 15602701
REMARK  5 active torsions:
REMARK  status: ('A' for Active; 'I' for Inactive)
REMARK    1  A    between atoms: N_5  and  C_12
REMARK    2  A    between atoms: C_6  and  C_22
REMARK    3  A    between atoms: C_13  and  C_21
REMARK    4  A    between atoms: C_22  and  C_23
REMARK    5  A    between atoms: C_23  and  N_24
REMARK                            x       y       z     vdW  Elec       q    Type
REMARK                         _______ _______ _______ _____ _____    ______ ____
ROOT
ATOM      1  S   UNL     1      34.889 -15.530 -22.663  0.00  0.00    -0.056 S 
ATOM      2  O   UNL     1      33.895 -11.716 -25.119  0.00  0.00    -0.252 OA
ATOM      3  N   UNL     1      34.243 -14.640 -25.003  0.00  0.00    -0.223 NA
ATOM      4  N   UNL     1      34.474 -13.008 -23.244  0.00  0.00    -0.248 N 
ATOM      5  N   UNL     1      34.269 -10.712 -23.043  0.00  0.00    -0.268 N 
ATOM      6  C   UNL     1      34.711 -16.633 -23.942  0.00  0.00    +0.031 C 
ATOM      7  C   UNL     1      34.373 -16.011 -25.099  0.00  0.00    +0.103 C 
ATOM      8  C   UNL     1      34.492 -14.275 -23.765  0.00  0.00    +0.166 C 
ATOM      9  C   UNL     1      34.182 -11.798 -23.930  0.00  0.00    +0.310 C 
ATOM     10  H   UNL     1      34.689 -12.926 -22.286  0.00  0.00    +0.158 HD
ATOM     11  H   UNL     1      34.510 -10.932 -22.114  0.00  0.00    +0.156 HD
ENDROOT
BRANCH   5  12
ATOM     12  C   UNL     1      34.054  -9.341 -23.321  0.00  0.00    +0.052 C 
ATOM     13  C   UNL     1      32.607  -7.427 -23.313  0.00  0.00    +0.073 C 
ATOM     14  C   UNL     1      32.819  -8.779 -23.040  0.00  0.00    +0.019 C 
ATOM     15  C   UNL     1      35.082  -8.590 -23.865  0.00  0.00    +0.015 C 
ATOM     16  C   UNL     1      33.633  -6.657 -23.861  0.00  0.00    +0.004 C 
ATOM     17  C   UNL     1      34.870  -7.239 -24.138  0.00  0.00    +0.001 C 
BRANCH  13  21
ATOM     18  F   UNL     1      31.070  -6.580 -21.686  0.00  0.00    -0.166 F 
ATOM     19  F   UNL     1      31.107  -5.589 -23.615  0.00  0.00    -0.166 F 
ATOM     20  F   UNL     1      30.237  -7.574 -23.432  0.00  0.00    -0.166 F 
ATOM     21  C   UNL     1      31.285  -6.804 -23.017  0.00  0.00    +0.419 C 
ENDBRANCH  13  21
ENDBRANCH   5  12
BRANCH   6  22
ATOM     22  C   UNL     1      34.933 -18.106 -23.692  0.00  0.00    +0.056 C 
BRANCH  22  23
ATOM     23  C   UNL     1      35.646 -18.378 -22.367  0.00  0.00    +0.093 C 
BRANCH  23  24
ATOM     24  N   UNL     1      34.882 -19.270 -21.545  0.00  0.00    -0.320 N 
ATOM     25  N   UNL     1      33.370 -21.226 -19.709  0.00  0.00    -0.220 N 
ATOM     26  N   UNL     1      33.060 -22.145 -18.775  0.00  0.00    -0.178 NA
ATOM     27  N   UNL     1      36.794 -20.049 -20.340  0.00  0.00    -0.232 NA
ATOM     28  N   UNL     1      36.632 -21.715 -18.567  0.00  0.00    -0.245 NA
ATOM     29  C   UNL     1      34.701 -20.934 -19.776  0.00  0.00    +0.185 C 
ATOM     30  C   UNL     1      35.460 -20.082 -20.555  0.00  0.00    +0.128 C 
ATOM     31  C   UNL     1      35.300 -21.724 -18.807  0.00  0.00    +0.103 C 
ATOM     32  C   UNL     1      34.243 -22.446 -18.227  0.00  0.00    +0.134 C 
ATOM     33  C   UNL     1      32.308 -20.669 -20.514  0.00  0.00    +0.135 C 
ATOM     34  C   UNL     1      37.291 -20.856 -19.373  0.00  0.00    +0.251 C 
ATOM     35  H   UNL     1      33.909 -19.315 -21.680  0.00  0.00    +0.148 HD
ENDBRANCH  23  24
ENDBRANCH  22  23
ENDBRANCH   6  22
TORSDOF 5
ENDMDL
