MODEL 1
REMARK VINA RESULT:     -11.4      0.000      0.000
REMARK  Name = 6419789
REMARK  3 active torsions:
REMARK  status: ('A' for Active; 'I' for Inactive)
REMARK    1  A    between atoms: N_4  and  C_13
REMARK    2  A    between atoms: C_5  and  C_19
REMARK    3  A    between atoms: C_22  and  N_25
REMARK                            x       y       z     vdW  Elec       q    Type
REMARK                         _______ _______ _______ _____ _____    ______ ____
ROOT
ATOM      1  N   UNL     1      35.928 -23.404 -14.022  0.00  0.00    -0.164 N 
ATOM      2  N   UNL     1      34.938 -23.012 -16.178  0.00  0.00    -0.374 NA
ATOM      3  N   UNL     1      35.581 -23.780 -12.764  0.00  0.00    -0.174 NA
ATOM      4  N   UNL     1      36.285 -22.348 -17.954  0.00  0.00    -0.288 N 
ATOM      5  C   UNL     1      33.739 -23.731 -14.103  0.00  0.00    +0.134 C 
ATOM      6  C   UNL     1      34.824 -23.364 -14.867  0.00  0.00    +0.194 C 
ATOM      7  C   UNL     1      34.263 -23.974 -12.828  0.00  0.00    +0.104 C 
ATOM      8  C   UNL     1      36.132 -22.707 -16.633  0.00  0.00    +0.186 C 
ATOM      9  C   UNL     1      37.193 -23.082 -14.493  0.00  0.00    +0.096 C 
ATOM     10  C   UNL     1      37.366 -22.730 -15.771  0.00  0.00    +0.066 C 
ATOM     11  H   UNL     1      37.150 -22.563 -18.373  0.00  0.00    +0.155 HD
ENDROOT
BRANCH   4  13
ATOM     12 CL   UNL     1      35.310 -19.167 -21.860  0.00  0.00    -0.082 Cl
ATOM     13  C   UNL     1      35.343 -21.714 -18.757  0.00  0.00    +0.051 C 
ATOM     14  C   UNL     1      35.745 -20.853 -19.792  0.00  0.00    +0.026 C 
ATOM     15  C   UNL     1      33.970 -21.921 -18.548  0.00  0.00    +0.015 C 
ATOM     16  C   UNL     1      34.798 -20.218 -20.596  0.00  0.00    +0.059 C 
ATOM     17  C   UNL     1      33.024 -21.285 -19.353  0.00  0.00    +0.002 C 
ATOM     18  C   UNL     1      33.438 -20.433 -20.377  0.00  0.00    +0.011 C 
ENDBRANCH   4  13
BRANCH   5  19
ATOM     19  C   UNL     1      32.396 -23.820 -14.593  0.00  0.00    -0.008 C 
ATOM     20  C   UNL     1      31.518 -24.770 -14.068  0.00  0.00    +0.011 C 
ATOM     21  C   UNL     1      31.960 -22.955 -15.599  0.00  0.00    -0.003 C 
ATOM     22  C   UNL     1      30.210 -24.856 -14.545  0.00  0.00    +0.041 C 
ATOM     23  C   UNL     1      30.652 -23.040 -16.078  0.00  0.00    +0.001 C 
ATOM     24  C   UNL     1      29.777 -23.990 -15.551  0.00  0.00    +0.014 C 
BRANCH  22  25
ATOM     25  N   UNL     1      29.325 -25.817 -14.014  0.00  0.00    -0.357 N 
ATOM     26  H   UNL     1      28.434 -25.939 -14.413  0.00  0.00    +0.142 HD
ATOM     27  H   UNL     1      29.599 -26.363 -13.243  0.00  0.00    +0.142 HD
ENDBRANCH  22  25
ENDBRANCH   5  19
TORSDOF 3
ENDMDL
MODEL 2
REMARK VINA RESULT:     -10.6      2.329      5.884
REMARK  Name = 6419789
REMARK  3 active torsions:
REMARK  status: ('A' for Active; 'I' for Inactive)
REMARK    1  A    between atoms: N_4  and  C_13
REMARK    2  A    between atoms: C_5  and  C_19
REMARK    3  A    between atoms: C_22  and  N_25
REMARK                            x       y       z     vdW  Elec       q    Type
REMARK                         _______ _______ _______ _____ _____    ______ ____
ROOT
ATOM      1  N   UNL     1      36.767 -23.461 -13.990  0.00  0.00    -0.164 N 
ATOM      2  N   UNL     1      34.420 -23.276 -14.476  0.00  0.00    -0.374 NA
ATOM      3  N   UNL     1      37.976 -23.281 -14.584  0.00  0.00    -0.174 NA
ATOM      4  N   UNL     1      32.864 -23.794 -12.825  0.00  0.00    -0.288 N 
ATOM      5  C   UNL     1      36.303 -22.785 -16.048  0.00  0.00    +0.134 C 
ATOM      6  C   UNL     1      35.722 -23.166 -14.859  0.00  0.00    +0.194 C 
ATOM      7  C   UNL     1      37.681 -22.874 -15.819  0.00  0.00    +0.104 C 
ATOM      8  C   UNL     1      34.169 -23.673 -13.248  0.00  0.00    +0.186 C 
ATOM      9  C   UNL     1      36.513 -23.882 -12.692  0.00  0.00    +0.096 C 
ATOM     10  C   UNL     1      35.255 -24.008 -12.261  0.00  0.00    +0.066 C 
ATOM     11  H   UNL     1      32.694 -23.642 -11.867  0.00  0.00    +0.155 HD
ENDROOT
BRANCH   4  13
ATOM     12 CL   UNL     1      29.375 -22.266 -16.263  0.00  0.00    -0.082 Cl
ATOM     13  C   UNL     1      31.762 -24.109 -13.613  0.00  0.00    +0.051 C 
ATOM     14  C   UNL     1      31.179 -23.143 -14.451  0.00  0.00    +0.026 C 
ATOM     15  C   UNL     1      31.209 -25.399 -13.587  0.00  0.00    +0.015 C 
ATOM     16  C   UNL     1      30.075 -23.461 -15.242  0.00  0.00    +0.059 C 
ATOM     17  C   UNL     1      30.104 -25.716 -14.377  0.00  0.00    +0.002 C 
ATOM     18  C   UNL     1      29.537 -24.748 -15.204  0.00  0.00    +0.011 C 
ENDBRANCH   4  13
BRANCH   5  19
ATOM     19  C   UNL     1      35.574 -22.395 -17.217  0.00  0.00    -0.008 C 
ATOM     20  C   UNL     1      36.186 -21.614 -18.199  0.00  0.00    +0.011 C 
ATOM     21  C   UNL     1      34.246 -22.796 -17.380  0.00  0.00    -0.003 C 
ATOM     22  C   UNL     1      35.476 -21.234 -19.338  0.00  0.00    +0.041 C 
ATOM     23  C   UNL     1      33.534 -22.417 -18.519  0.00  0.00    +0.001 C 
ATOM     24  C   UNL     1      34.149 -21.636 -19.497  0.00  0.00    +0.014 C 
BRANCH  22  25
ATOM     25  N   UNL     1      36.097 -20.444 -20.328  0.00  0.00    -0.357 N 
ATOM     26  H   UNL     1      36.862 -19.873 -20.092  0.00  0.00    +0.142 HD
ATOM     27  H   UNL     1      35.763 -20.464 -21.253  0.00  0.00    +0.142 HD
ENDBRANCH  22  25
ENDBRANCH   5  19
TORSDOF 3
ENDMDL
MODEL 3
REMARK VINA RESULT:     -10.6      2.943      5.873
REMARK  Name = 6419789
REMARK  3 active torsions:
REMARK  status: ('A' for Active; 'I' for Inactive)
REMARK    1  A    between atoms: N_4  and  C_13
REMARK    2  A    between atoms: C_5  and  C_19
REMARK    3  A    between atoms: C_22  and  N_25
REMARK                            x       y       z     vdW  Elec       q    Type
REMARK                         _______ _______ _______ _____ _____    ______ ____
ROOT
ATOM      1  N   UNL     1      37.011 -23.647 -13.929  0.00  0.00    -0.164 N 
ATOM      2  N   UNL     1      34.733 -23.171 -14.533  0.00  0.00    -0.374 NA
ATOM      3  N   UNL     1      38.264 -23.595 -14.451  0.00  0.00    -0.174 NA
ATOM      4  N   UNL     1      33.035 -23.546 -12.986  0.00  0.00    -0.288 N 
ATOM      5  C   UNL     1      36.747 -22.863 -15.984  0.00  0.00    +0.134 C 
ATOM      6  C   UNL     1      36.058 -23.205 -14.842  0.00  0.00    +0.194 C 
ATOM      7  C   UNL     1      38.090 -23.122 -15.685  0.00  0.00    +0.104 C 
ATOM      8  C   UNL     1      34.368 -23.570 -13.335  0.00  0.00    +0.186 C 
ATOM      9  C   UNL     1      36.635 -24.071 -12.662  0.00  0.00    +0.096 C 
ATOM     10  C   UNL     1      35.348 -24.059 -12.303  0.00  0.00    +0.066 C 
ATOM     11  H   UNL     1      32.829 -23.402 -12.034  0.00  0.00    +0.155 HD
ENDROOT
BRANCH   4  13
ATOM     12 CL   UNL     1      28.777 -26.137 -14.201  0.00  0.00    -0.082 Cl
ATOM     13  C   UNL     1      31.951 -23.706 -13.842  0.00  0.00    +0.051 C 
ATOM     14  C   UNL     1      31.008 -24.725 -13.625  0.00  0.00    +0.026 C 
ATOM     15  C   UNL     1      31.775 -22.850 -14.942  0.00  0.00    +0.015 C 
ATOM     16  C   UNL     1      29.921 -24.883 -14.484  0.00  0.00    +0.059 C 
ATOM     17  C   UNL     1      30.687 -23.009 -15.801  0.00  0.00    +0.002 C 
ATOM     18  C   UNL     1      29.760 -24.025 -15.572  0.00  0.00    +0.011 C 
ENDBRANCH   4  13
BRANCH   5  19
ATOM     19  C   UNL     1      36.136 -22.357 -17.177  0.00  0.00    -0.008 C 
ATOM     20  C   UNL     1      34.781 -22.586 -17.424  0.00  0.00    +0.011 C 
ATOM     21  C   UNL     1      36.895 -21.632 -18.099  0.00  0.00    -0.003 C 
ATOM     22  C   UNL     1      34.187 -22.094 -18.586  0.00  0.00    +0.041 C 
ATOM     23  C   UNL     1      36.302 -21.139 -19.261  0.00  0.00    +0.001 C 
ATOM     24  C   UNL     1      34.949 -21.370 -19.505  0.00  0.00    +0.014 C 
BRANCH  22  25
ATOM     25  N   UNL     1      32.819 -22.327 -18.834  0.00  0.00    -0.357 N 
ATOM     26  H   UNL     1      32.228 -22.612 -18.100  0.00  0.00    +0.142 HD
ATOM     27  H   UNL     1      32.455 -22.207 -19.741  0.00  0.00    +0.142 HD
ENDBRANCH  22  25
ENDBRANCH   5  19
TORSDOF 3
ENDMDL
MODEL 4
REMARK VINA RESULT:     -10.2      2.934      6.199
REMARK  Name = 6419789
REMARK  3 active torsions:
REMARK  status: ('A' for Active; 'I' for Inactive)
REMARK    1  A    between atoms: N_4  and  C_13
REMARK    2  A    between atoms: C_5  and  C_19
REMARK    3  A    between atoms: C_22  and  N_25
REMARK                            x       y       z     vdW  Elec       q    Type
REMARK                         _______ _______ _______ _____ _____    ______ ____
ROOT
ATOM      1  N   UNL     1      37.041 -23.553 -14.072  0.00  0.00    -0.164 N 
ATOM      2  N   UNL     1      34.747 -23.104 -14.633  0.00  0.00    -0.374 NA
ATOM      3  N   UNL     1      38.284 -23.485 -14.617  0.00  0.00    -0.174 NA
ATOM      4  N   UNL     1      33.083 -23.502 -13.056  0.00  0.00    -0.288 N 
ATOM      5  C   UNL     1      36.730 -22.771 -16.121  0.00  0.00    +0.134 C 
ATOM      6  C   UNL     1      36.067 -23.122 -14.967  0.00  0.00    +0.194 C 
ATOM      7  C   UNL     1      38.081 -23.013 -15.847  0.00  0.00    +0.104 C 
ATOM      8  C   UNL     1      34.408 -23.509 -13.429  0.00  0.00    +0.186 C 
ATOM      9  C   UNL     1      36.694 -23.982 -12.799  0.00  0.00    +0.096 C 
ATOM     10  C   UNL     1      35.414 -23.987 -12.416  0.00  0.00    +0.066 C 
ATOM     11  H   UNL     1      32.892 -23.361 -12.101  0.00  0.00    +0.155 HD
ENDROOT
BRANCH   4  13
ATOM     12 CL   UNL     1      28.691 -25.964 -14.043  0.00  0.00    -0.082 Cl
ATOM     13  C   UNL     1      31.985 -23.675 -13.893  0.00  0.00    +0.051 C 
ATOM     14  C   UNL     1      30.995 -24.625 -13.591  0.00  0.00    +0.026 C 
ATOM     15  C   UNL     1      31.843 -22.901 -15.056  0.00  0.00    +0.015 C 
ATOM     16  C   UNL     1      29.893 -24.796 -14.430  0.00  0.00    +0.059 C 
ATOM     17  C   UNL     1      30.742 -23.074 -15.896  0.00  0.00    +0.002 C 
ATOM     18  C   UNL     1      29.767 -24.020 -15.583  0.00  0.00    +0.011 C 
ENDBRANCH   4  13
BRANCH   5  19
ATOM     19  C   UNL     1      36.092 -22.272 -17.302  0.00  0.00    -0.008 C 
ATOM     20  C   UNL     1      36.782 -21.422 -18.168  0.00  0.00    +0.011 C 
ATOM     21  C   UNL     1      34.774 -22.634 -17.592  0.00  0.00    -0.003 C 
ATOM     22  C   UNL     1      36.160 -20.936 -19.318  0.00  0.00    +0.041 C 
ATOM     23  C   UNL     1      34.150 -22.148 -18.741  0.00  0.00    +0.001 C 
ATOM     24  C   UNL     1      34.843 -21.299 -19.604  0.00  0.00    +0.014 C 
BRANCH  22  25
ATOM     25  N   UNL     1      36.859 -20.077 -20.191  0.00  0.00    -0.357 N 
ATOM     26  H   UNL     1      36.373 -19.583 -20.890  0.00  0.00    +0.142 HD
ATOM     27  H   UNL     1      37.834 -19.973 -20.102  0.00  0.00    +0.142 HD
ENDBRANCH  22  25
ENDBRANCH   5  19
TORSDOF 3
ENDMDL
MODEL 5
REMARK VINA RESULT:     -10.2      3.079      6.870
REMARK  Name = 6419789
REMARK  3 active torsions:
REMARK  status: ('A' for Active; 'I' for Inactive)
REMARK    1  A    between atoms: N_4  and  C_13
REMARK    2  A    between atoms: C_5  and  C_19
REMARK    3  A    between atoms: C_22  and  N_25
REMARK                            x       y       z     vdW  Elec       q    Type
REMARK                         _______ _______ _______ _____ _____    ______ ____
ROOT
ATOM      1  N   UNL     1      31.615 -23.651 -15.286  0.00  0.00    -0.164 N 
ATOM      2  N   UNL     1      33.898 -24.010 -14.622  0.00  0.00    -0.374 NA
ATOM      3  N   UNL     1      30.894 -23.085 -16.288  0.00  0.00    -0.174 NA
ATOM      4  N   UNL     1      34.350 -25.141 -12.640  0.00  0.00    -0.288 N 
ATOM      5  C   UNL     1      33.121 -22.836 -16.690  0.00  0.00    +0.134 C 
ATOM      6  C   UNL     1      32.982 -23.516 -15.501  0.00  0.00    +0.194 C 
ATOM      7  C   UNL     1      31.811 -22.600 -17.124  0.00  0.00    +0.104 C 
ATOM      8  C   UNL     1      33.453 -24.626 -13.550  0.00  0.00    +0.186 C 
ATOM      9  C   UNL     1      31.136 -24.300 -14.156  0.00  0.00    +0.096 C 
ATOM     10  C   UNL     1      31.987 -24.805 -13.259  0.00  0.00    +0.066 C 
ATOM     11  H   UNL     1      34.063 -25.937 -12.136  0.00  0.00    +0.155 HD
ENDROOT
BRANCH   4  13
ATOM     12 CL   UNL     1      39.427 -25.559 -13.255  0.00  0.00    -0.082 Cl
ATOM     13  C   UNL     1      35.621 -24.650 -12.359  0.00  0.00    +0.051 C 
ATOM     14  C   UNL     1      36.764 -25.275 -12.884  0.00  0.00    +0.026 C 
ATOM     15  C   UNL     1      35.787 -23.519 -11.544  0.00  0.00    +0.015 C 
ATOM     16  C   UNL     1      38.038 -24.781 -12.602  0.00  0.00    +0.059 C 
ATOM     17  C   UNL     1      37.061 -23.025 -11.262  0.00  0.00    +0.002 C 
ATOM     18  C   UNL     1      38.187 -23.656 -11.790  0.00  0.00    +0.011 C 
ENDBRANCH   4  13
BRANCH   5  19
ATOM     19  C   UNL     1      34.378 -22.486 -17.281  0.00  0.00    -0.008 C 
ATOM     20  C   UNL     1      35.538 -22.466 -16.505  0.00  0.00    +0.011 C 
ATOM     21  C   UNL     1      34.448 -22.164 -18.639  0.00  0.00    -0.003 C 
ATOM     22  C   UNL     1      36.762 -22.125 -17.081  0.00  0.00    +0.041 C 
ATOM     23  C   UNL     1      35.671 -21.823 -19.216  0.00  0.00    +0.001 C 
ATOM     24  C   UNL     1      36.828 -21.803 -18.437  0.00  0.00    +0.014 C 
BRANCH  22  25
ATOM     25  N   UNL     1      37.933 -22.105 -16.294  0.00  0.00    -0.357 N 
ATOM     26  H   UNL     1      38.813 -22.224 -16.719  0.00  0.00    +0.142 HD
ATOM     27  H   UNL     1      37.869 -21.973 -15.321  0.00  0.00    +0.142 HD
ENDBRANCH  22  25
ENDBRANCH   5  19
TORSDOF 3
ENDMDL
MODEL 6
REMARK VINA RESULT:      -9.9      1.529      4.610
REMARK  Name = 6419789
REMARK  3 active torsions:
REMARK  status: ('A' for Active; 'I' for Inactive)
REMARK    1  A    between atoms: N_4  and  C_13
REMARK    2  A    between atoms: C_5  and  C_19
REMARK    3  A    between atoms: C_22  and  N_25
REMARK                            x       y       z     vdW  Elec       q    Type
REMARK                         _______ _______ _______ _____ _____    ______ ____
ROOT
ATOM      1  N   UNL     1      31.189 -24.478 -14.567  0.00  0.00    -0.164 N 
ATOM      2  N   UNL     1      32.723 -23.096 -15.799  0.00  0.00    -0.374 NA
ATOM      3  N   UNL     1      31.152 -25.279 -13.470  0.00  0.00    -0.174 NA
ATOM      4  N   UNL     1      31.980 -21.970 -17.695  0.00  0.00    -0.288 N 
ATOM      5  C   UNL     1      33.241 -24.412 -13.736  0.00  0.00    +0.134 C 
ATOM      6  C   UNL     1      32.454 -23.932 -14.758  0.00  0.00    +0.194 C 
ATOM      7  C   UNL     1      32.391 -25.229 -12.981  0.00  0.00    +0.104 C 
ATOM      8  C   UNL     1      31.746 -22.813 -16.632  0.00  0.00    +0.186 C 
ATOM      9  C   UNL     1      30.151 -24.187 -15.441  0.00  0.00    +0.096 C 
ATOM     10  C   UNL     1      30.356 -23.373 -16.481  0.00  0.00    +0.066 C 
ATOM     11  H   UNL     1      31.218 -21.431 -18.009  0.00  0.00    +0.155 HD
ENDROOT
BRANCH   4  13
ATOM     12 CL   UNL     1      34.555 -19.755 -21.541  0.00  0.00    -0.082 Cl
ATOM     13  C   UNL     1      33.184 -21.801 -18.371  0.00  0.00    +0.051 C 
ATOM     14  C   UNL     1      33.266 -20.960 -19.493  0.00  0.00    +0.026 C 
ATOM     15  C   UNL     1      34.344 -22.469 -17.945  0.00  0.00    +0.015 C 
ATOM     16  C   UNL     1      34.475 -20.791 -20.169  0.00  0.00    +0.059 C 
ATOM     17  C   UNL     1      35.552 -22.301 -18.622  0.00  0.00    +0.002 C 
ATOM     18  C   UNL     1      35.618 -21.462 -19.734  0.00  0.00    +0.011 C 
ENDBRANCH   4  13
BRANCH   5  19
ATOM     19  C   UNL     1      34.626 -24.090 -13.560  0.00  0.00    -0.008 C 
ATOM     20  C   UNL     1      35.479 -24.030 -14.664  0.00  0.00    +0.011 C 
ATOM     21  C   UNL     1      35.129 -23.835 -12.282  0.00  0.00    -0.003 C 
ATOM     22  C   UNL     1      36.827 -23.716 -14.493  0.00  0.00    +0.041 C 
ATOM     23  C   UNL     1      36.477 -23.522 -12.110  0.00  0.00    +0.001 C 
ATOM     24  C   UNL     1      37.327 -23.463 -13.214  0.00  0.00    +0.014 C 
BRANCH  22  25
ATOM     25  N   UNL     1      37.687 -23.657 -15.609  0.00  0.00    -0.357 N 
ATOM     26  H   UNL     1      37.366 -23.952 -16.492  0.00  0.00    +0.142 HD
ATOM     27  H   UNL     1      38.606 -23.322 -15.505  0.00  0.00    +0.142 HD
ENDBRANCH  22  25
ENDBRANCH   5  19
TORSDOF 3
ENDMDL
MODEL 7
REMARK VINA RESULT:      -9.8     11.224     14.874
REMARK  Name = 6419789
REMARK  3 active torsions:
REMARK  status: ('A' for Active; 'I' for Inactive)
REMARK    1  A    between atoms: N_4  and  C_13
REMARK    2  A    between atoms: C_5  and  C_19
REMARK    3  A    between atoms: C_22  and  N_25
REMARK                            x       y       z     vdW  Elec       q    Type
REMARK                         _______ _______ _______ _____ _____    ______ ____
ROOT
ATOM      1  N   UNL     1      31.755  -9.022 -19.662  0.00  0.00    -0.164 N 
ATOM      2  N   UNL     1      32.365 -10.501 -21.457  0.00  0.00    -0.374 NA
ATOM      3  N   UNL     1      31.916  -7.732 -19.270  0.00  0.00    -0.174 NA
ATOM      4  N   UNL     1      31.658 -12.717 -21.406  0.00  0.00    -0.288 N 
ATOM      5  C   UNL     1      32.980  -8.085 -21.252  0.00  0.00    +0.134 C 
ATOM      6  C   UNL     1      32.394  -9.271 -20.872  0.00  0.00    +0.194 C 
ATOM      7  C   UNL     1      32.653  -7.181 -20.235  0.00  0.00    +0.104 C 
ATOM      8  C   UNL     1      31.711 -11.461 -20.843  0.00  0.00    +0.186 C 
ATOM      9  C   UNL     1      31.062 -10.030 -19.005  0.00  0.00    +0.096 C 
ATOM     10  C   UNL     1      31.000 -11.256 -19.532  0.00  0.00    +0.066 C 
ATOM     11  H   UNL     1      30.855 -13.254 -21.215  0.00  0.00    +0.155 HD
ENDROOT
BRANCH   4  13
ATOM     12 CL   UNL     1      33.423 -13.632 -26.136  0.00  0.00    -0.082 Cl
ATOM     13  C   UNL     1      32.624 -13.305 -22.215  0.00  0.00    +0.051 C 
ATOM     14  C   UNL     1      32.554 -13.192 -23.614  0.00  0.00    +0.026 C 
ATOM     15  C   UNL     1      33.691 -14.023 -21.651  0.00  0.00    +0.015 C 
ATOM     16  C   UNL     1      33.525 -13.781 -24.425  0.00  0.00    +0.059 C 
ATOM     17  C   UNL     1      34.661 -14.612 -22.462  0.00  0.00    +0.002 C 
ATOM     18  C   UNL     1      34.578 -14.491 -23.849  0.00  0.00    +0.011 C 
ENDBRANCH   4  13
BRANCH   5  19
ATOM     19  C   UNL     1      33.742  -7.905 -22.451  0.00  0.00    -0.008 C 
ATOM     20  C   UNL     1      34.384  -8.994 -23.045  0.00  0.00    +0.011 C 
ATOM     21  C   UNL     1      33.847  -6.639 -23.031  0.00  0.00    -0.003 C 
ATOM     22  C   UNL     1      35.127  -8.818 -24.213  0.00  0.00    +0.041 C 
ATOM     23  C   UNL     1      34.590  -6.462 -24.198  0.00  0.00    +0.001 C 
ATOM     24  C   UNL     1      35.230  -7.552 -24.789  0.00  0.00    +0.014 C 
BRANCH  22  25
ATOM     25  N   UNL     1      35.774  -9.920 -24.811  0.00  0.00    -0.357 N 
ATOM     26  H   UNL     1      35.485 -10.836 -24.596  0.00  0.00    +0.142 HD
ATOM     27  H   UNL     1      36.515  -9.772 -25.441  0.00  0.00    +0.142 HD
ENDBRANCH  22  25
ENDBRANCH   5  19
TORSDOF 3
ENDMDL
MODEL 8
REMARK VINA RESULT:      -9.8      2.508      6.433
REMARK  Name = 6419789
REMARK  3 active torsions:
REMARK  status: ('A' for Active; 'I' for Inactive)
REMARK    1  A    between atoms: N_4  and  C_13
REMARK    2  A    between atoms: C_5  and  C_19
REMARK    3  A    between atoms: C_22  and  N_25
REMARK                            x       y       z     vdW  Elec       q    Type
REMARK                         _______ _______ _______ _____ _____    ______ ____
ROOT
ATOM      1  N   UNL     1      30.603 -23.829 -14.932  0.00  0.00    -0.164 N 
ATOM      2  N   UNL     1      32.987 -23.973 -14.650  0.00  0.00    -0.374 NA
ATOM      3  N   UNL     1      29.681 -23.367 -15.815  0.00  0.00    -0.174 NA
ATOM      4  N   UNL     1      33.855 -24.977 -12.739  0.00  0.00    -0.288 N 
ATOM      5  C   UNL     1      31.782 -22.956 -16.592  0.00  0.00    +0.134 C 
ATOM      6  C   UNL     1      31.900 -23.593 -15.377  0.00  0.00    +0.194 C 
ATOM      7  C   UNL     1      30.403 -22.846 -16.807  0.00  0.00    +0.104 C 
ATOM      8  C   UNL     1      32.780 -24.576 -13.501  0.00  0.00    +0.186 C 
ATOM      9  C   UNL     1      30.375 -24.464 -13.720  0.00  0.00    +0.096 C 
ATOM     10  C   UNL     1      31.403 -24.859 -12.963  0.00  0.00    +0.066 C 
ATOM     11  H   UNL     1      33.725 -25.771 -12.172  0.00  0.00    +0.155 HD
ENDROOT
BRANCH   4  13
ATOM     12 CL   UNL     1      38.070 -23.453 -15.238  0.00  0.00    -0.082 Cl
ATOM     13  C   UNL     1      35.108 -24.373 -12.689  0.00  0.00    +0.051 C 
ATOM     14  C   UNL     1      35.882 -24.228 -13.853  0.00  0.00    +0.026 C 
ATOM     15  C   UNL     1      35.624 -23.895 -11.474  0.00  0.00    +0.015 C 
ATOM     16  C   UNL     1      37.137 -23.622 -13.802  0.00  0.00    +0.059 C 
ATOM     17  C   UNL     1      36.880 -23.290 -11.423  0.00  0.00    +0.002 C 
ATOM     18  C   UNL     1      37.636 -23.153 -12.586  0.00  0.00    +0.011 C 
ENDBRANCH   4  13
BRANCH   5  19
ATOM     19  C   UNL     1      32.889 -22.532 -17.395  0.00  0.00    -0.008 C 
ATOM     20  C   UNL     1      32.677 -21.725 -18.515  0.00  0.00    +0.011 C 
ATOM     21  C   UNL     1      34.187 -22.925 -17.062  0.00  0.00    -0.003 C 
ATOM     22  C   UNL     1      33.756 -21.313 -19.297  0.00  0.00    +0.041 C 
ATOM     23  C   UNL     1      35.267 -22.514 -17.844  0.00  0.00    +0.001 C 
ATOM     24  C   UNL     1      35.051 -21.708 -18.961  0.00  0.00    +0.014 C 
BRANCH  22  25
ATOM     25  N   UNL     1      33.538 -20.498 -20.428  0.00  0.00    -0.357 N 
ATOM     26  H   UNL     1      33.241 -20.902 -21.275  0.00  0.00    +0.142 HD
ATOM     27  H   UNL     1      33.686 -19.527 -20.370  0.00  0.00    +0.142 HD
ENDBRANCH  22  25
ENDBRANCH   5  19
TORSDOF 3
ENDMDL
MODEL 9
REMARK VINA RESULT:      -9.6      1.184      1.576
REMARK  Name = 6419789
REMARK  3 active torsions:
REMARK  status: ('A' for Active; 'I' for Inactive)
REMARK    1  A    between atoms: N_4  and  C_13
REMARK    2  A    between atoms: C_5  and  C_19
REMARK    3  A    between atoms: C_22  and  N_25
REMARK                            x       y       z     vdW  Elec       q    Type
REMARK                         _______ _______ _______ _____ _____    ______ ____
ROOT
ATOM      1  N   UNL     1      36.272 -23.582 -13.528  0.00  0.00    -0.164 N 
ATOM      2  N   UNL     1      35.515 -23.174 -15.773  0.00  0.00    -0.374 NA
ATOM      3  N   UNL     1      35.787 -23.929 -12.307  0.00  0.00    -0.174 NA
ATOM      4  N   UNL     1      37.057 -22.586 -17.413  0.00  0.00    -0.288 N 
ATOM      5  C   UNL     1      34.089 -23.819 -13.821  0.00  0.00    +0.134 C 
ATOM      6  C   UNL     1      35.258 -23.506 -14.477  0.00  0.00    +0.194 C 
ATOM      7  C   UNL     1      34.475 -24.069 -12.499  0.00  0.00    +0.104 C 
ATOM      8  C   UNL     1      36.760 -22.923 -16.111  0.00  0.00    +0.186 C 
ATOM      9  C   UNL     1      37.590 -23.318 -13.874  0.00  0.00    +0.096 C 
ATOM     10  C   UNL     1      37.901 -22.987 -15.131  0.00  0.00    +0.066 C 
ATOM     11  H   UNL     1      37.949 -22.841 -17.744  0.00  0.00    +0.155 HD
ENDROOT
BRANCH   4  13
ATOM     12 CL   UNL     1      32.287 -21.480 -18.945  0.00  0.00    -0.082 Cl
ATOM     13  C   UNL     1      36.226 -21.922 -18.309  0.00  0.00    +0.051 C 
ATOM     14  C   UNL     1      34.828 -22.018 -18.198  0.00  0.00    +0.026 C 
ATOM     15  C   UNL     1      36.767 -21.140 -19.342  0.00  0.00    +0.015 C 
ATOM     16  C   UNL     1      33.996 -21.351 -19.096  0.00  0.00    +0.059 C 
ATOM     17  C   UNL     1      35.933 -20.473 -20.241  0.00  0.00    +0.002 C 
ATOM     18  C   UNL     1      34.549 -20.578 -20.118  0.00  0.00    +0.011 C 
ENDBRANCH   4  13
BRANCH   5  19
ATOM     19  C   UNL     1      32.799 -23.857 -14.440  0.00  0.00    -0.008 C 
ATOM     20  C   UNL     1      31.822 -24.740 -13.975  0.00  0.00    +0.011 C 
ATOM     21  C   UNL     1      32.511 -23.010 -15.513  0.00  0.00    -0.003 C 
ATOM     22  C   UNL     1      30.565 -24.778 -14.578  0.00  0.00    +0.041 C 
ATOM     23  C   UNL     1      31.254 -23.047 -16.117  0.00  0.00    +0.001 C 
ATOM     24  C   UNL     1      30.281 -23.930 -15.650  0.00  0.00    +0.014 C 
BRANCH  22  25
ATOM     25  N   UNL     1      29.581 -25.671 -14.106  0.00  0.00    -0.357 N 
ATOM     26  H   UNL     1      28.765 -25.323 -13.679  0.00  0.00    +0.142 HD
ATOM     27  H   UNL     1      29.711 -26.641 -14.203  0.00  0.00    +0.142 HD
ENDBRANCH  22  25
ENDBRANCH   5  19
TORSDOF 3
ENDMDL
