MODEL 1
REMARK VINA RESULT:     -11.1      0.000      0.000
REMARK  Name = 25134248
REMARK  7 active torsions:
REMARK  status: ('A' for Active; 'I' for Inactive)
REMARK    1  A    between atoms: N_2  and  C_20
REMARK    2  A    between atoms: C_3  and  C_7
REMARK    3  A    between atoms: C_11  and  C_12
REMARK    4  A    between atoms: C_12  and  C_13
REMARK    5  A    between atoms: C_13  and  C_14
REMARK    6  A    between atoms: C_20  and  C_21
REMARK    7  A    between atoms: C_26  and  C_29
REMARK                            x       y       z     vdW  Elec       q    Type
REMARK                         _______ _______ _______ _____ _____    ______ ____
ROOT
ATOM      1  O   UNL     1      35.554 -23.515 -13.288  0.00  0.00    -0.273 OA
ATOM      2  N   UNL     1      33.915 -24.992 -14.031  0.00  0.00    -0.299 N 
ATOM      3  C   UNL     1      35.182 -24.433 -14.013  0.00  0.00    +0.241 C 
ATOM      4  H   UNL     1      33.736 -25.728 -14.661  0.00  0.00    +0.150 HD
ENDROOT
BRANCH   3   7
ATOM      5  O   UNL     1      38.815 -22.711 -15.682  0.00  0.00    -0.275 OA
ATOM      6  N   UNL     1      37.377 -24.374 -14.970  0.00  0.00    -0.273 N 
ATOM      7  C   UNL     1      36.109 -25.097 -14.987  0.00  0.00    +0.152 C 
ATOM      8  C   UNL     1      36.466 -26.505 -14.517  0.00  0.00    +0.031 C 
ATOM      9  C   UNL     1      38.405 -25.133 -14.270  0.00  0.00    +0.094 C 
ATOM     10  C   UNL     1      37.664 -26.278 -13.598  0.00  0.00    +0.024 C 
ATOM     11  C   UNL     1      37.683 -23.196 -15.633  0.00  0.00    +0.226 C 
BRANCH  11  12
ATOM     12  C   UNL     1      36.533 -22.503 -16.319  0.00  0.00    +0.085 C 
BRANCH  12  13
ATOM     13  C   UNL     1      36.994 -21.875 -17.624  0.00  0.00    +0.010 C 
BRANCH  13  14
ATOM     14  C   UNL     1      35.916 -21.894 -18.705  0.00  0.00    +0.000 C 
ATOM     15  C   UNL     1      34.524 -22.056 -18.081  0.00  0.00    +0.000 C 
ATOM     16  C   UNL     1      35.985 -20.623 -19.563  0.00  0.00    +0.000 C 
ATOM     17  C   UNL     1      33.424 -22.025 -19.139  0.00  0.00    +0.000 C 
ATOM     18  C   UNL     1      34.883 -20.595 -20.618  0.00  0.00    +0.000 C 
ATOM     19  C   UNL     1      33.501 -20.765 -19.994  0.00  0.00    +0.000 C 
ENDBRANCH  13  14
ENDBRANCH  12  13
ENDBRANCH  11  12
ENDBRANCH   3   7
BRANCH   2  20
ATOM     20  C   UNL     1      32.843 -24.547 -13.170  0.00  0.00    +0.116 C 
BRANCH  20  21
ATOM     21  C   UNL     1      31.594 -24.237 -13.943  0.00  0.00    -0.003 C 
ATOM     22  C   UNL     1      30.495 -25.093 -13.864  0.00  0.00    -0.003 C 
ATOM     23  C   UNL     1      31.530 -23.093 -14.739  0.00  0.00    -0.003 C 
ATOM     24  C   UNL     1      29.333 -24.805 -14.580  0.00  0.00    +0.002 C 
ATOM     25  C   UNL     1      30.369 -22.805 -15.456  0.00  0.00    +0.002 C 
ATOM     26  C   UNL     1      29.270 -23.661 -15.376  0.00  0.00    +0.031 C 
BRANCH  26  29
ATOM     27  N   UNL     1      27.125 -22.440 -15.649  0.00  0.00    -0.343 N 
ATOM     28  N   UNL     1      27.826 -23.969 -17.272  0.00  0.00    -0.285 NA
ATOM     29  C   UNL     1      28.059 -23.361 -16.122  0.00  0.00    +0.117 C 
ATOM     30  H   UNL     1      26.312 -22.252 -16.171  0.00  0.00    +0.144 HD
ATOM     31  H   UNL     1      27.279 -21.979 -14.793  0.00  0.00    +0.144 HD
ATOM     32  H   UNL     1      27.007 -23.767 -17.779  0.00  0.00    +0.188 HD
ENDBRANCH  26  29
ENDBRANCH  20  21
ENDBRANCH   2  20
TORSDOF 7
ENDMDL
MODEL 2
REMARK VINA RESULT:     -10.9      2.938      6.329
REMARK  Name = 25134248
REMARK  7 active torsions:
REMARK  status: ('A' for Active; 'I' for Inactive)
REMARK    1  A    between atoms: N_2  and  C_20
REMARK    2  A    between atoms: C_3  and  C_7
REMARK    3  A    between atoms: C_11  and  C_12
REMARK    4  A    between atoms: C_12  and  C_13
REMARK    5  A    between atoms: C_13  and  C_14
REMARK    6  A    between atoms: C_20  and  C_21
REMARK    7  A    between atoms: C_26  and  C_29
REMARK                            x       y       z     vdW  Elec       q    Type
REMARK                         _______ _______ _______ _____ _____    ______ ____
ROOT
ATOM      1  O   UNL     1      35.055 -24.931 -15.678  0.00  0.00    -0.273 OA
ATOM      2  N   UNL     1      34.701 -22.769 -16.465  0.00  0.00    -0.299 N 
ATOM      3  C   UNL     1      35.134 -23.712 -15.549  0.00  0.00    +0.241 C 
ATOM      4  H   UNL     1      34.819 -21.816 -16.247  0.00  0.00    +0.150 HD
ENDROOT
BRANCH   3   7
ATOM      5  O   UNL     1      34.732 -25.100 -11.442  0.00  0.00    -0.275 OA
ATOM      6  N   UNL     1      35.722 -24.060 -13.253  0.00  0.00    -0.273 N 
ATOM      7  C   UNL     1      35.757 -23.084 -14.338  0.00  0.00    +0.152 C 
ATOM      8  C   UNL     1      37.242 -22.824 -14.571  0.00  0.00    +0.031 C 
ATOM      9  C   UNL     1      37.046 -24.616 -13.005  0.00  0.00    +0.094 C 
ATOM     10  C   UNL     1      37.899 -24.143 -14.171  0.00  0.00    +0.024 C 
ATOM     11  C   UNL     1      34.652 -24.361 -12.425  0.00  0.00    +0.226 C 
BRANCH  11  12
ATOM     12  C   UNL     1      33.334 -23.723 -12.786  0.00  0.00    +0.085 C 
BRANCH  12  13
ATOM     13  C   UNL     1      32.292 -24.788 -13.082  0.00  0.00    +0.010 C 
BRANCH  13  14
ATOM     14  C   UNL     1      31.517 -24.518 -14.370  0.00  0.00    +0.000 C 
ATOM     15  C   UNL     1      30.052 -24.949 -14.222  0.00  0.00    +0.000 C 
ATOM     16  C   UNL     1      31.614 -23.037 -14.761  0.00  0.00    +0.000 C 
ATOM     17  C   UNL     1      29.243 -24.639 -15.479  0.00  0.00    +0.000 C 
ATOM     18  C   UNL     1      30.803 -22.732 -16.018  0.00  0.00    +0.000 C 
ATOM     19  C   UNL     1      29.349 -23.170 -15.869  0.00  0.00    +0.000 C 
ENDBRANCH  13  14
ENDBRANCH  12  13
ENDBRANCH  11  12
ENDBRANCH   3   7
BRANCH   2  20
ATOM     20  C   UNL     1      34.086 -23.116 -17.726  0.00  0.00    +0.116 C 
BRANCH  20  21
ATOM     21  C   UNL     1      34.303 -22.056 -18.767  0.00  0.00    -0.003 C 
ATOM     22  C   UNL     1      33.211 -21.383 -19.315  0.00  0.00    -0.003 C 
ATOM     23  C   UNL     1      35.596 -21.742 -19.186  0.00  0.00    -0.003 C 
ATOM     24  C   UNL     1      33.412 -20.397 -20.282  0.00  0.00    +0.002 C 
ATOM     25  C   UNL     1      35.798 -20.758 -20.152  0.00  0.00    +0.002 C 
ATOM     26  C   UNL     1      34.705 -20.084 -20.700  0.00  0.00    +0.031 C 
BRANCH  26  29
ATOM     27  N   UNL     1      34.809 -19.342 -23.067  0.00  0.00    -0.343 N 
ATOM     28  N   UNL     1      35.214 -17.824 -21.337  0.00  0.00    -0.285 NA
ATOM     29  C   UNL     1      34.915 -19.056 -21.707  0.00  0.00    +0.117 C 
ATOM     30  H   UNL     1      34.954 -18.630 -23.732  0.00  0.00    +0.144 HD
ATOM     31  H   UNL     1      34.590 -20.255 -23.363  0.00  0.00    +0.144 HD
ATOM     32  H   UNL     1      35.356 -17.126 -22.017  0.00  0.00    +0.188 HD
ENDBRANCH  26  29
ENDBRANCH  20  21
ENDBRANCH   2  20
TORSDOF 7
ENDMDL
MODEL 3
REMARK VINA RESULT:     -10.2      9.315     12.760
REMARK  Name = 25134248
REMARK  7 active torsions:
REMARK  status: ('A' for Active; 'I' for Inactive)
REMARK    1  A    between atoms: N_2  and  C_20
REMARK    2  A    between atoms: C_3  and  C_7
REMARK    3  A    between atoms: C_11  and  C_12
REMARK    4  A    between atoms: C_12  and  C_13
REMARK    5  A    between atoms: C_13  and  C_14
REMARK    6  A    between atoms: C_20  and  C_21
REMARK    7  A    between atoms: C_26  and  C_29
REMARK                            x       y       z     vdW  Elec       q    Type
REMARK                         _______ _______ _______ _____ _____    ______ ____
ROOT
ATOM      1  O   UNL     1      33.366 -15.308 -21.367  0.00  0.00    -0.273 OA
ATOM      2  N   UNL     1      32.961 -13.198 -22.263  0.00  0.00    -0.299 N 
ATOM      3  C   UNL     1      33.592 -14.428 -22.193  0.00  0.00    +0.241 C 
ATOM      4  H   UNL     1      33.231 -12.572 -22.974  0.00  0.00    +0.150 HD
ENDROOT
BRANCH   3   7
ATOM      5  O   UNL     1      34.667 -18.187 -24.109  0.00  0.00    -0.275 OA
ATOM      6  N   UNL     1      34.373 -15.903 -23.912  0.00  0.00    -0.273 N 
ATOM      7  C   UNL     1      34.608 -14.607 -23.282  0.00  0.00    +0.152 C 
ATOM      8  C   UNL     1      34.384 -13.593 -24.400  0.00  0.00    +0.031 C 
ATOM      9  C   UNL     1      33.759 -15.745 -25.223  0.00  0.00    +0.094 C 
ATOM     10  C   UNL     1      33.361 -14.280 -25.301  0.00  0.00    +0.024 C 
ATOM     11  C   UNL     1      34.784 -17.146 -23.458  0.00  0.00    +0.226 C 
BRANCH  11  12
ATOM     12  C   UNL     1      35.406 -17.179 -22.085  0.00  0.00    +0.085 C 
BRANCH  12  13
ATOM     13  C   UNL     1      36.164 -18.480 -21.876  0.00  0.00    +0.010 C 
BRANCH  13  14
ATOM     14  C   UNL     1      35.631 -19.294 -20.699  0.00  0.00    +0.000 C 
ATOM     15  C   UNL     1      34.253 -19.884 -21.028  0.00  0.00    +0.000 C 
ATOM     16  C   UNL     1      36.621 -20.401 -20.313  0.00  0.00    +0.000 C 
ATOM     17  C   UNL     1      33.722 -20.748 -19.887  0.00  0.00    +0.000 C 
ATOM     18  C   UNL     1      36.086 -21.263 -19.173  0.00  0.00    +0.000 C 
ATOM     19  C   UNL     1      34.713 -21.841 -19.500  0.00  0.00    +0.000 C 
ENDBRANCH  13  14
ENDBRANCH  12  13
ENDBRANCH  11  12
ENDBRANCH   3   7
BRANCH   2  20
ATOM     20  C   UNL     1      31.925 -12.788 -21.343  0.00  0.00    +0.116 C 
BRANCH  20  21
ATOM     21  C   UNL     1      32.004 -11.323 -21.023  0.00  0.00    -0.003 C 
ATOM     22  C   UNL     1      31.857 -10.889 -19.706  0.00  0.00    -0.003 C 
ATOM     23  C   UNL     1      32.228 -10.397 -22.042  0.00  0.00    -0.003 C 
ATOM     24  C   UNL     1      31.932  -9.528 -19.408  0.00  0.00    +0.002 C 
ATOM     25  C   UNL     1      32.302  -9.037 -21.744  0.00  0.00    +0.002 C 
ATOM     26  C   UNL     1      32.155  -8.602 -20.427  0.00  0.00    +0.031 C 
BRANCH  26  29
ATOM     27  N   UNL     1      31.414  -6.255 -20.754  0.00  0.00    -0.343 N 
ATOM     28  N   UNL     1      33.099  -6.755 -19.213  0.00  0.00    -0.285 NA
ATOM     29  C   UNL     1      32.234  -7.184 -20.116  0.00  0.00    +0.117 C 
ATOM     30  H   UNL     1      31.484  -5.300 -20.527  0.00  0.00    +0.144 HD
ATOM     31  H   UNL     1      30.766  -6.554 -21.431  0.00  0.00    +0.144 HD
ATOM     32  H   UNL     1      33.154  -5.795 -19.001  0.00  0.00    +0.188 HD
ENDBRANCH  26  29
ENDBRANCH  20  21
ENDBRANCH   2  20
TORSDOF 7
ENDMDL
MODEL 4
REMARK VINA RESULT:     -10.0      2.574      6.074
REMARK  Name = 25134248
REMARK  7 active torsions:
REMARK  status: ('A' for Active; 'I' for Inactive)
REMARK    1  A    between atoms: N_2  and  C_20
REMARK    2  A    between atoms: C_3  and  C_7
REMARK    3  A    between atoms: C_11  and  C_12
REMARK    4  A    between atoms: C_12  and  C_13
REMARK    5  A    between atoms: C_13  and  C_14
REMARK    6  A    between atoms: C_20  and  C_21
REMARK    7  A    between atoms: C_26  and  C_29
REMARK                            x       y       z     vdW  Elec       q    Type
REMARK                         _______ _______ _______ _____ _____    ______ ____
ROOT
ATOM      1  O   UNL     1      37.075 -24.698 -14.697  0.00  0.00    -0.273 OA
ATOM      2  N   UNL     1      37.030 -22.440 -15.258  0.00  0.00    -0.299 N 
ATOM      3  C   UNL     1      36.841 -23.525 -14.420  0.00  0.00    +0.241 C 
ATOM      4  H   UNL     1      36.804 -21.542 -14.921  0.00  0.00    +0.150 HD
ENDROOT
BRANCH   3   7
ATOM      5  O   UNL     1      33.158 -24.913 -12.561  0.00  0.00    -0.275 OA
ATOM      6  N   UNL     1      35.316 -24.093 -12.663  0.00  0.00    -0.273 N 
ATOM      7  C   UNL     1      36.323 -23.118 -13.073  0.00  0.00    +0.152 C 
ATOM      8  C   UNL     1      37.419 -23.235 -12.017  0.00  0.00    +0.031 C 
ATOM      9  C   UNL     1      35.831 -24.974 -11.623  0.00  0.00    +0.094 C 
ATOM     10  C   UNL     1      37.324 -24.690 -11.566  0.00  0.00    +0.024 C 
ATOM     11  C   UNL     1      33.986 -24.142 -13.050  0.00  0.00    +0.226 C 
BRANCH  11  12
ATOM     12  C   UNL     1      33.575 -23.179 -14.135  0.00  0.00    +0.085 C 
BRANCH  12  13
ATOM     13  C   UNL     1      32.753 -23.893 -15.195  0.00  0.00    +0.010 C 
BRANCH  13  14
ATOM     14  C   UNL     1      31.253 -23.648 -15.048  0.00  0.00    +0.000 C 
ATOM     15  C   UNL     1      30.711 -22.870 -16.255  0.00  0.00    +0.000 C 
ATOM     16  C   UNL     1      30.502 -24.974 -14.870  0.00  0.00    +0.000 C 
ATOM     17  C   UNL     1      29.202 -22.659 -16.157  0.00  0.00    +0.000 C 
ATOM     18  C   UNL     1      28.994 -24.759 -14.775  0.00  0.00    +0.000 C 
ATOM     19  C   UNL     1      28.459 -23.978 -15.971  0.00  0.00    +0.000 C 
ENDBRANCH  13  14
ENDBRANCH  12  13
ENDBRANCH  11  12
ENDBRANCH   3   7
BRANCH   2  20
ATOM     20  C   UNL     1      37.543 -22.560 -16.604  0.00  0.00    +0.116 C 
BRANCH  20  21
ATOM     21  C   UNL     1      36.573 -22.036 -17.623  0.00  0.00    -0.003 C 
ATOM     22  C   UNL     1      37.027 -21.230 -18.668  0.00  0.00    -0.003 C 
ATOM     23  C   UNL     1      35.219 -22.357 -17.529  0.00  0.00    -0.003 C 
ATOM     24  C   UNL     1      36.128 -20.744 -19.616  0.00  0.00    +0.002 C 
ATOM     25  C   UNL     1      34.319 -21.872 -18.477  0.00  0.00    +0.002 C 
ATOM     26  C   UNL     1      34.773 -21.066 -19.521  0.00  0.00    +0.031 C 
BRANCH  26  29
ATOM     27  N   UNL     1      34.272 -19.840 -21.622  0.00  0.00    -0.343 N 
ATOM     28  N   UNL     1      32.541 -20.778 -20.363  0.00  0.00    -0.285 NA
ATOM     29  C   UNL     1      33.836 -20.560 -20.511  0.00  0.00    +0.117 C 
ATOM     30  H   UNL     1      33.620 -19.507 -22.280  0.00  0.00    +0.144 HD
ATOM     31  H   UNL     1      35.232 -19.664 -21.748  0.00  0.00    +0.144 HD
ATOM     32  H   UNL     1      31.905 -20.437 -21.032  0.00  0.00    +0.188 HD
ENDBRANCH  26  29
ENDBRANCH  20  21
ENDBRANCH   2  20
TORSDOF 7
ENDMDL
MODEL 5
REMARK VINA RESULT:      -9.7      3.293      7.458
REMARK  Name = 25134248
REMARK  7 active torsions:
REMARK  status: ('A' for Active; 'I' for Inactive)
REMARK    1  A    between atoms: N_2  and  C_20
REMARK    2  A    between atoms: C_3  and  C_7
REMARK    3  A    between atoms: C_11  and  C_12
REMARK    4  A    between atoms: C_12  and  C_13
REMARK    5  A    between atoms: C_13  and  C_14
REMARK    6  A    between atoms: C_20  and  C_21
REMARK    7  A    between atoms: C_26  and  C_29
REMARK                            x       y       z     vdW  Elec       q    Type
REMARK                         _______ _______ _______ _____ _____    ______ ____
ROOT
ATOM      1  O   UNL     1      35.473 -22.099 -15.366  0.00  0.00    -0.273 OA
ATOM      2  N   UNL     1      35.658 -22.665 -17.617  0.00  0.00    -0.299 N 
ATOM      3  C   UNL     1      35.142 -22.775 -16.337  0.00  0.00    +0.241 C 
ATOM      4  H   UNL     1      35.311 -23.266 -18.315  0.00  0.00    +0.150 HD
ENDROOT
BRANCH   3   7
ATOM      5  O   UNL     1      33.594 -24.539 -12.670  0.00  0.00    -0.275 OA
ATOM      6  N   UNL     1      33.573 -23.838 -14.872  0.00  0.00    -0.273 N 
ATOM      7  C   UNL     1      34.078 -23.827 -16.243  0.00  0.00    +0.152 C 
ATOM      8  C   UNL     1      32.869 -23.447 -17.092  0.00  0.00    +0.031 C 
ATOM      9  C   UNL     1      32.251 -23.231 -14.796  0.00  0.00    +0.094 C 
ATOM     10  C   UNL     1      32.034 -22.581 -16.153  0.00  0.00    +0.024 C 
ATOM     11  C   UNL     1      34.143 -24.456 -13.771  0.00  0.00    +0.226 C 
BRANCH  11  12
ATOM     12  C   UNL     1      35.515 -25.048 -13.977  0.00  0.00    +0.085 C 
BRANCH  12  13
ATOM     13  C   UNL     1      36.440 -24.652 -12.839  0.00  0.00    +0.010 C 
BRANCH  13  14
ATOM     14  C   UNL     1      37.906 -24.580 -13.263  0.00  0.00    +0.000 C 
ATOM     15  C   UNL     1      38.641 -25.875 -12.896  0.00  0.00    +0.000 C 
ATOM     16  C   UNL     1      38.021 -24.293 -14.766  0.00  0.00    +0.000 C 
ATOM     17  C   UNL     1      40.096 -25.848 -13.359  0.00  0.00    +0.000 C 
ATOM     18  C   UNL     1      39.477 -24.268 -15.225  0.00  0.00    +0.000 C 
ATOM     19  C   UNL     1      40.207 -25.554 -14.851  0.00  0.00    +0.000 C 
ENDBRANCH  13  14
ENDBRANCH  12  13
ENDBRANCH  11  12
ENDBRANCH   3   7
BRANCH   2  20
ATOM     20  C   UNL     1      36.680 -21.709 -17.977  0.00  0.00    +0.116 C 
BRANCH  20  21
ATOM     21  C   UNL     1      36.304 -20.918 -19.197  0.00  0.00    -0.003 C 
ATOM     22  C   UNL     1      35.011 -21.005 -19.713  0.00  0.00    -0.003 C 
ATOM     23  C   UNL     1      37.246 -20.095 -19.814  0.00  0.00    -0.003 C 
ATOM     24  C   UNL     1      34.661 -20.270 -20.846  0.00  0.00    +0.002 C 
ATOM     25  C   UNL     1      36.897 -19.360 -20.946  0.00  0.00    +0.002 C 
ATOM     26  C   UNL     1      35.604 -19.447 -21.462  0.00  0.00    +0.031 C 
BRANCH  26  29
ATOM     27  N   UNL     1      35.578 -17.334 -22.767  0.00  0.00    -0.343 N 
ATOM     28  N   UNL     1      34.566 -19.260 -23.622  0.00  0.00    -0.285 NA
ATOM     29  C   UNL     1      35.238 -18.680 -22.642  0.00  0.00    +0.117 C 
ATOM     30  H   UNL     1      35.320 -16.835 -23.574  0.00  0.00    +0.144 HD
ATOM     31  H   UNL     1      36.075 -16.884 -22.046  0.00  0.00    +0.144 HD
ATOM     32  H   UNL     1      34.318 -18.743 -24.422  0.00  0.00    +0.188 HD
ENDBRANCH  26  29
ENDBRANCH  20  21
ENDBRANCH   2  20
TORSDOF 7
ENDMDL
MODEL 6
REMARK VINA RESULT:      -9.6      8.363     11.695
REMARK  Name = 25134248
REMARK  7 active torsions:
REMARK  status: ('A' for Active; 'I' for Inactive)
REMARK    1  A    between atoms: N_2  and  C_20
REMARK    2  A    between atoms: C_3  and  C_7
REMARK    3  A    between atoms: C_11  and  C_12
REMARK    4  A    between atoms: C_12  and  C_13
REMARK    5  A    between atoms: C_13  and  C_14
REMARK    6  A    between atoms: C_20  and  C_21
REMARK    7  A    between atoms: C_26  and  C_29
REMARK                            x       y       z     vdW  Elec       q    Type
REMARK                         _______ _______ _______ _____ _____    ______ ____
ROOT
ATOM      1  O   UNL     1      34.810 -15.527 -23.442  0.00  0.00    -0.273 OA
ATOM      2  N   UNL     1      35.021 -16.836 -21.530  0.00  0.00    -0.299 N 
ATOM      3  C   UNL     1      34.811 -15.656 -22.221  0.00  0.00    +0.241 C 
ATOM      4  H   UNL     1      34.997 -16.814 -20.546  0.00  0.00    +0.150 HD
ENDROOT
BRANCH   3   7
ATOM      5  O   UNL     1      32.003 -12.404 -22.926  0.00  0.00    -0.275 OA
ATOM      6  N   UNL     1      33.284 -13.885 -21.699  0.00  0.00    -0.273 N 
ATOM      7  C   UNL     1      34.549 -14.500 -21.303  0.00  0.00    +0.152 C 
ATOM      8  C   UNL     1      34.306 -14.988 -19.878  0.00  0.00    +0.031 C 
ATOM      9  C   UNL     1      32.226 -14.207 -20.751  0.00  0.00    +0.094 C 
ATOM     10  C   UNL     1      32.810 -15.289 -19.856  0.00  0.00    +0.024 C 
ATOM     11  C   UNL     1      33.072 -12.986 -22.732  0.00  0.00    +0.226 C 
BRANCH  11  12
ATOM     12  C   UNL     1      34.246 -12.736 -23.645  0.00  0.00    +0.085 C 
BRANCH  12  13
ATOM     13  C   UNL     1      34.037 -11.459 -24.441  0.00  0.00    +0.010 C 
BRANCH  13  14
ATOM     14  C   UNL     1      34.352 -10.200 -23.636  0.00  0.00    +0.000 C 
ATOM     15  C   UNL     1      35.298  -9.279 -24.418  0.00  0.00    +0.000 C 
ATOM     16  C   UNL     1      33.061  -9.462 -23.256  0.00  0.00    +0.000 C 
ATOM     17  C   UNL     1      35.586  -7.988 -23.656  0.00  0.00    +0.000 C 
ATOM     18  C   UNL     1      33.353  -8.171 -22.496  0.00  0.00    +0.000 C 
ATOM     19  C   UNL     1      34.301  -7.262 -23.272  0.00  0.00    +0.000 C 
ENDBRANCH  13  14
ENDBRANCH  12  13
ENDBRANCH  11  12
ENDBRANCH   3   7
BRANCH   2  20
ATOM     20  C   UNL     1      35.271 -18.101 -22.183  0.00  0.00    +0.116 C 
BRANCH  20  21
ATOM     21  C   UNL     1      35.135 -19.259 -21.237  0.00  0.00    -0.003 C 
ATOM     22  C   UNL     1      36.274 -19.863 -20.706  0.00  0.00    -0.003 C 
ATOM     23  C   UNL     1      33.869 -19.730 -20.887  0.00  0.00    -0.003 C 
ATOM     24  C   UNL     1      36.149 -20.938 -19.826  0.00  0.00    +0.002 C 
ATOM     25  C   UNL     1      33.743 -20.805 -20.008  0.00  0.00    +0.002 C 
ATOM     26  C   UNL     1      34.883 -21.408 -19.477  0.00  0.00    +0.031 C 
BRANCH  26  29
ATOM     27  N   UNL     1      33.864 -23.573 -18.811  0.00  0.00    -0.343 N 
ATOM     28  N   UNL     1      35.482 -22.567 -17.458  0.00  0.00    -0.285 NA
ATOM     29  C   UNL     1      34.752 -22.529 -18.558  0.00  0.00    +0.117 C 
ATOM     30  H   UNL     1      33.792 -24.321 -18.176  0.00  0.00    +0.144 HD
ATOM     31  H   UNL     1      33.309 -23.561 -19.623  0.00  0.00    +0.144 HD
ATOM     32  H   UNL     1      35.395 -23.324 -16.835  0.00  0.00    +0.188 HD
ENDBRANCH  26  29
ENDBRANCH  20  21
ENDBRANCH   2  20
TORSDOF 7
ENDMDL
MODEL 7
REMARK VINA RESULT:      -9.6      5.589      8.865
REMARK  Name = 25134248
REMARK  7 active torsions:
REMARK  status: ('A' for Active; 'I' for Inactive)
REMARK    1  A    between atoms: N_2  and  C_20
REMARK    2  A    between atoms: C_3  and  C_7
REMARK    3  A    between atoms: C_11  and  C_12
REMARK    4  A    between atoms: C_12  and  C_13
REMARK    5  A    between atoms: C_13  and  C_14
REMARK    6  A    between atoms: C_20  and  C_21
REMARK    7  A    between atoms: C_26  and  C_29
REMARK                            x       y       z     vdW  Elec       q    Type
REMARK                         _______ _______ _______ _____ _____    ______ ____
ROOT
ATOM      1  O   UNL     1      36.760 -18.253 -20.822  0.00  0.00    -0.273 OA
ATOM      2  N   UNL     1      35.711 -20.288 -20.405  0.00  0.00    -0.299 N 
ATOM      3  C   UNL     1      35.815 -19.024 -20.960  0.00  0.00    +0.241 C 
ATOM      4  H   UNL     1      34.899 -20.815 -20.589  0.00  0.00    +0.150 HD
ENDROOT
BRANCH   3   7
ATOM      5  O   UNL     1      35.233 -15.319 -23.169  0.00  0.00    -0.275 OA
ATOM      6  N   UNL     1      34.997 -17.563 -22.673  0.00  0.00    -0.273 N 
ATOM      7  C   UNL     1      34.624 -18.675 -21.802  0.00  0.00    +0.152 C 
ATOM      8  C   UNL     1      34.289 -19.814 -22.761  0.00  0.00    +0.031 C 
ATOM      9  C   UNL     1      35.185 -18.013 -24.046  0.00  0.00    +0.094 C 
ATOM     10  C   UNL     1      35.175 -19.531 -23.971  0.00  0.00    +0.024 C 
ATOM     11  C   UNL     1      35.039 -16.217 -22.347  0.00  0.00    +0.226 C 
BRANCH  11  12
ATOM     12  C   UNL     1      34.829 -15.879 -20.893  0.00  0.00    +0.085 C 
BRANCH  12  13
ATOM     13  C   UNL     1      33.388 -15.463 -20.647  0.00  0.00    +0.010 C 
BRANCH  13  14
ATOM     14  C   UNL     1      33.183 -13.952 -20.739  0.00  0.00    +0.000 C 
ATOM     15  C   UNL     1      32.710 -13.554 -22.143  0.00  0.00    +0.000 C 
ATOM     16  C   UNL     1      32.189 -13.474 -19.672  0.00  0.00    +0.000 C 
ATOM     17  C   UNL     1      32.446 -12.054 -22.245  0.00  0.00    +0.000 C 
ATOM     18  C   UNL     1      31.926 -11.975 -19.778  0.00  0.00    +0.000 C 
ATOM     19  C   UNL     1      31.466 -11.581 -21.178  0.00  0.00    +0.000 C 
ENDBRANCH  13  14
ENDBRANCH  12  13
ENDBRANCH  11  12
ENDBRANCH   3   7
BRANCH   2  20
ATOM     20  C   UNL     1      36.736 -20.872 -19.571  0.00  0.00    +0.116 C 
BRANCH  20  21
ATOM     21  C   UNL     1      36.155 -21.609 -18.399  0.00  0.00    -0.003 C 
ATOM     22  C   UNL     1      34.849 -22.096 -18.460  0.00  0.00    -0.003 C 
ATOM     23  C   UNL     1      36.919 -21.808 -17.250  0.00  0.00    -0.003 C 
ATOM     24  C   UNL     1      34.308 -22.782 -17.372  0.00  0.00    +0.002 C 
ATOM     25  C   UNL     1      36.380 -22.493 -16.162  0.00  0.00    +0.002 C 
ATOM     26  C   UNL     1      35.074 -22.980 -16.223  0.00  0.00    +0.031 C 
BRANCH  26  29
ATOM     27  N   UNL     1      35.013 -24.933 -14.690  0.00  0.00    -0.343 N 
ATOM     28  N   UNL     1      33.499 -23.174 -14.418  0.00  0.00    -0.285 NA
ATOM     29  C   UNL     1      34.510 -23.696 -15.089  0.00  0.00    +0.117 C 
ATOM     30  H   UNL     1      34.616 -25.400 -13.920  0.00  0.00    +0.144 HD
ATOM     31  H   UNL     1      35.763 -25.340 -15.180  0.00  0.00    +0.144 HD
ATOM     32  H   UNL     1      33.116 -23.656 -13.650  0.00  0.00    +0.188 HD
ENDBRANCH  26  29
ENDBRANCH  20  21
ENDBRANCH   2  20
TORSDOF 7
ENDMDL
MODEL 8
REMARK VINA RESULT:      -9.5      2.414      6.630
REMARK  Name = 25134248
REMARK  7 active torsions:
REMARK  status: ('A' for Active; 'I' for Inactive)
REMARK    1  A    between atoms: N_2  and  C_20
REMARK    2  A    between atoms: C_3  and  C_7
REMARK    3  A    between atoms: C_11  and  C_12
REMARK    4  A    between atoms: C_12  and  C_13
REMARK    5  A    between atoms: C_13  and  C_14
REMARK    6  A    between atoms: C_20  and  C_21
REMARK    7  A    between atoms: C_26  and  C_29
REMARK                            x       y       z     vdW  Elec       q    Type
REMARK                         _______ _______ _______ _____ _____    ______ ____
ROOT
ATOM      1  O   UNL     1      32.624 -25.107 -13.818  0.00  0.00    -0.273 OA
ATOM      2  N   UNL     1      34.146 -23.677 -12.791  0.00  0.00    -0.299 N 
ATOM      3  C   UNL     1      33.080 -23.984 -13.618  0.00  0.00    +0.241 C 
ATOM      4  H   UNL     1      34.422 -22.734 -12.711  0.00  0.00    +0.150 HD
ENDROOT
BRANCH   3   7
ATOM      5  O   UNL     1      32.404 -23.397 -17.878  0.00  0.00    -0.275 OA
ATOM      6  N   UNL     1      32.063 -23.125 -15.609  0.00  0.00    -0.273 N 
ATOM      7  C   UNL     1      32.490 -22.764 -14.260  0.00  0.00    +0.152 C 
ATOM      8  C   UNL     1      31.203 -22.352 -13.550  0.00  0.00    +0.031 C 
ATOM      9  C   UNL     1      30.612 -23.233 -15.689  0.00  0.00    +0.094 C 
ATOM     10  C   UNL     1      30.131 -23.185 -14.248  0.00  0.00    +0.024 C 
ATOM     11  C   UNL     1      32.853 -23.219 -16.744  0.00  0.00    +0.226 C 
BRANCH  11  12
ATOM     12  C   UNL     1      34.340 -23.089 -16.530  0.00  0.00    +0.085 C 
BRANCH  12  13
ATOM     13  C   UNL     1      35.072 -23.116 -17.862  0.00  0.00    +0.010 C 
BRANCH  13  14
ATOM     14  C   UNL     1      35.138 -21.745 -18.531  0.00  0.00    +0.000 C 
ATOM     15  C   UNL     1      36.505 -21.531 -19.194  0.00  0.00    +0.000 C 
ATOM     16  C   UNL     1      34.004 -21.585 -19.552  0.00  0.00    +0.000 C 
ATOM     17  C   UNL     1      36.577 -20.187 -19.916  0.00  0.00    +0.000 C 
ATOM     18  C   UNL     1      34.080 -20.241 -20.273  0.00  0.00    +0.000 C 
ATOM     19  C   UNL     1      35.443 -20.028 -20.924  0.00  0.00    +0.000 C 
ENDBRANCH  13  14
ENDBRANCH  12  13
ENDBRANCH  11  12
ENDBRANCH   3   7
BRANCH   2  20
ATOM     20  C   UNL     1      34.875 -24.672 -12.037  0.00  0.00    +0.116 C 
BRANCH  20  21
ATOM     21  C   UNL     1      36.197 -24.998 -12.669  0.00  0.00    -0.003 C 
ATOM     22  C   UNL     1      36.258 -25.350 -14.018  0.00  0.00    -0.003 C 
ATOM     23  C   UNL     1      37.366 -24.947 -11.910  0.00  0.00    -0.003 C 
ATOM     24  C   UNL     1      37.486 -25.652 -14.606  0.00  0.00    +0.002 C 
ATOM     25  C   UNL     1      38.594 -25.249 -12.497  0.00  0.00    +0.002 C 
ATOM     26  C   UNL     1      38.654 -25.601 -13.846  0.00  0.00    +0.031 C 
BRANCH  26  29
ATOM     27  N   UNL     1      40.887 -26.688 -13.796  0.00  0.00    -0.343 N 
ATOM     28  N   UNL     1      40.214 -25.462 -15.668  0.00  0.00    -0.285 NA
ATOM     29  C   UNL     1      39.935 -25.915 -14.459  0.00  0.00    +0.117 C 
ATOM     30  H   UNL     1      41.746 -26.888 -14.231  0.00  0.00    +0.144 HD
ATOM     31  H   UNL     1      40.698 -27.032 -12.893  0.00  0.00    +0.144 HD
ATOM     32  H   UNL     1      41.080 -25.673 -16.086  0.00  0.00    +0.188 HD
ENDBRANCH  26  29
ENDBRANCH  20  21
ENDBRANCH   2  20
TORSDOF 7
ENDMDL
MODEL 9
REMARK VINA RESULT:      -9.3     12.110     15.638
REMARK  Name = 25134248
REMARK  7 active torsions:
REMARK  status: ('A' for Active; 'I' for Inactive)
REMARK    1  A    between atoms: N_2  and  C_20
REMARK    2  A    between atoms: C_3  and  C_7
REMARK    3  A    between atoms: C_11  and  C_12
REMARK    4  A    between atoms: C_12  and  C_13
REMARK    5  A    between atoms: C_13  and  C_14
REMARK    6  A    between atoms: C_20  and  C_21
REMARK    7  A    between atoms: C_26  and  C_29
REMARK                            x       y       z     vdW  Elec       q    Type
REMARK                         _______ _______ _______ _____ _____    ______ ____
ROOT
ATOM      1  O   UNL     1      33.750 -11.440 -23.421  0.00  0.00    -0.273 OA
ATOM      2  N   UNL     1      32.616  -9.679 -22.407  0.00  0.00    -0.299 N 
ATOM      3  C   UNL     1      32.837 -11.008 -22.723  0.00  0.00    +0.241 C 
ATOM      4  H   UNL     1      31.845  -9.455 -21.836  0.00  0.00    +0.150 HD
ENDROOT
BRANCH   3   7
ATOM      5  O   UNL     1      33.708 -14.460 -20.219  0.00  0.00    -0.275 OA
ATOM      6  N   UNL     1      32.497 -12.668 -21.030  0.00  0.00    -0.273 N 
ATOM      7  C   UNL     1      31.827 -11.918 -22.090  0.00  0.00    +0.152 C 
ATOM      8  C   UNL     1      30.754 -11.110 -21.365  0.00  0.00    +0.031 C 
ATOM      9  C   UNL     1      32.111 -12.175 -19.714  0.00  0.00    +0.094 C 
ATOM     10  C   UNL     1      31.355 -10.882 -19.981  0.00  0.00    +0.024 C 
ATOM     11  C   UNL     1      33.284 -13.800 -21.169  0.00  0.00    +0.226 C 
BRANCH  11  12
ATOM     12  C   UNL     1      33.614 -14.209 -22.582  0.00  0.00    +0.085 C 
BRANCH  12  13
ATOM     13  C   UNL     1      34.867 -15.068 -22.607  0.00  0.00    +0.010 C 
BRANCH  13  14
ATOM     14  C   UNL     1      34.562 -16.564 -22.580  0.00  0.00    +0.000 C 
ATOM     15  C   UNL     1      34.937 -17.217 -23.917  0.00  0.00    +0.000 C 
ATOM     16  C   UNL     1      35.293 -17.246 -21.416  0.00  0.00    +0.000 C 
ATOM     17  C   UNL     1      34.691 -18.724 -23.898  0.00  0.00    +0.000 C 
ATOM     18  C   UNL     1      35.046 -18.752 -21.400  0.00  0.00    +0.000 C 
ATOM     19  C   UNL     1      35.411 -19.396 -22.734  0.00  0.00    +0.000 C 
ENDBRANCH  13  14
ENDBRANCH  12  13
ENDBRANCH  11  12
ENDBRANCH   3   7
BRANCH   2  20
ATOM     20  C   UNL     1      33.462  -8.604 -22.874  0.00  0.00    +0.116 C 
BRANCH  20  21
ATOM     21  C   UNL     1      32.725  -7.297 -22.939  0.00  0.00    -0.003 C 
ATOM     22  C   UNL     1      33.104  -6.330 -23.871  0.00  0.00    -0.003 C 
ATOM     23  C   UNL     1      31.662  -7.051 -22.072  0.00  0.00    -0.003 C 
ATOM     24  C   UNL     1      32.420  -5.117 -23.934  0.00  0.00    +0.002 C 
ATOM     25  C   UNL     1      30.977  -5.837 -22.134  0.00  0.00    +0.002 C 
ATOM     26  C   UNL     1      31.356  -4.870 -23.065  0.00  0.00    +0.031 C 
BRANCH  26  29
ATOM     27  N   UNL     1      30.368  -2.990 -24.352  0.00  0.00    -0.343 N 
ATOM     28  N   UNL     1      30.243  -3.015 -22.019  0.00  0.00    -0.285 NA
ATOM     29  C   UNL     1      30.642  -3.605 -23.132  0.00  0.00    +0.117 C 
ATOM     30  H   UNL     1      29.884  -2.134 -24.374  0.00  0.00    +0.144 HD
ATOM     31  H   UNL     1      30.661  -3.412 -25.192  0.00  0.00    +0.144 HD
ATOM     32  H   UNL     1      29.759  -2.159 -22.061  0.00  0.00    +0.188 HD
ENDBRANCH  26  29
ENDBRANCH  20  21
ENDBRANCH   2  20
TORSDOF 7
ENDMDL
