MODEL 1
REMARK VINA RESULT:     -12.1      0.000      0.000
REMARK  Name = 90311989
REMARK  4 active torsions:
REMARK  status: ('A' for Active; 'I' for Inactive)
REMARK    1  A    between atoms: C_16  and  O_33
REMARK    2  A    between atoms: C_17  and  C_21
REMARK    3  A    between atoms: N_20  and  C_23
REMARK    4  A    between atoms: C_23  and  C_27
REMARK                            x       y       z     vdW  Elec       q    Type
REMARK                         _______ _______ _______ _____ _____    ______ ____
ROOT
ATOM      1  O   UNL     1      38.116 -23.315 -14.912  0.00  0.00    -0.339 OA
ATOM      2  O   UNL     1      33.588 -23.191 -16.286  0.00  0.00    -0.268 OA
ATOM      3  O   UNL     1      33.982 -20.853 -20.794  0.00  0.00    -0.283 OA
ATOM      4  N   UNL     1      35.806 -23.366 -15.660  0.00  0.00    -0.253 N 
ATOM      5  N   UNL     1      36.489 -21.544 -17.683  0.00  0.00    -0.275 N 
ATOM      6  C   UNL     1      35.526 -24.290 -14.551  0.00  0.00    +0.080 C 
ATOM      7  C   UNL     1      37.753 -24.299 -13.937  0.00  0.00    +0.119 C 
ATOM      8  C   UNL     1      36.400 -23.914 -13.365  0.00  0.00    +0.049 C 
ATOM      9  C   UNL     1      36.021 -25.699 -14.906  0.00  0.00    +0.022 C 
ATOM     10  C   UNL     1      37.520 -25.678 -14.566  0.00  0.00    +0.031 C 
ATOM     11  C   UNL     1      37.213 -23.156 -16.018  0.00  0.00    +0.215 C 
ATOM     12  C   UNL     1      37.397 -21.750 -16.559  0.00  0.00    +0.147 C 
ATOM     13  C   UNL     1      34.773 -22.930 -16.491  0.00  0.00    +0.267 C 
ATOM     14  C   UNL     1      35.198 -22.089 -17.675  0.00  0.00    +0.143 C 
ATOM     15  C   UNL     1      36.869 -20.741 -18.749  0.00  0.00    +0.074 C 
ATOM     16  C   UNL     1      34.319 -21.893 -18.682  0.00  0.00    +0.191 C 
ATOM     17  C   UNL     1      36.103 -20.461 -19.810  0.00  0.00    +0.110 C 
ATOM     18  C   UNL     1      34.738 -21.050 -19.849  0.00  0.00    +0.236 C 
ENDROOT
BRANCH  17  21
ATOM     19  O   UNL     1      37.860 -19.439 -20.987  0.00  0.00    -0.270 OA
ATOM     20  N   UNL     1      35.663 -19.019 -21.647  0.00  0.00    -0.297 N 
ATOM     21  C   UNL     1      36.645 -19.599 -20.860  0.00  0.00    +0.251 C 
ATOM     22  H   UNL     1      34.722 -19.225 -21.445  0.00  0.00    +0.150 HD
BRANCH  20  23
ATOM     23  C   UNL     1      35.949 -18.127 -22.748  0.00  0.00    +0.121 C 
BRANCH  23  27
ATOM     24  F   UNL     1      34.928 -16.852 -25.058  0.00  0.00    -0.204 F 
ATOM     25  F   UNL     1      35.261 -16.847 -20.323  0.00  0.00    -0.204 F 
ATOM     26  F   UNL     1      32.827 -13.446 -22.535  0.00  0.00    -0.204 F 
ATOM     27  C   UNL     1      35.116 -16.880 -22.691  0.00  0.00    +0.053 C 
ATOM     28  C   UNL     1      34.644 -16.301 -23.870  0.00  0.00    +0.142 C 
ATOM     29  C   UNL     1      34.813 -16.298 -21.460  0.00  0.00    +0.142 C 
ATOM     30  C   UNL     1      33.871 -15.141 -23.817  0.00  0.00    +0.059 C 
ATOM     31  C   UNL     1      34.039 -15.139 -21.407  0.00  0.00    +0.059 C 
ATOM     32  C   UNL     1      33.569 -14.561 -22.585  0.00  0.00    +0.145 C 
ENDBRANCH  23  27
ENDBRANCH  20  23
ENDBRANCH  17  21
BRANCH  16  33
ATOM     33  O   UNL     1      33.051 -22.430 -18.720  0.00  0.00    -0.502 OA
ATOM     34  H   UNL     1      32.718 -22.893 -17.976  0.00  0.00    +0.292 HD
ENDBRANCH  16  33
TORSDOF 4
ENDMDL
MODEL 2
REMARK VINA RESULT:     -12.0      5.136     11.229
REMARK  Name = 90311989
REMARK  4 active torsions:
REMARK  status: ('A' for Active; 'I' for Inactive)
REMARK    1  A    between atoms: C_16  and  O_33
REMARK    2  A    between atoms: C_17  and  C_21
REMARK    3  A    between atoms: N_20  and  C_23
REMARK    4  A    between atoms: C_23  and  C_27
REMARK                            x       y       z     vdW  Elec       q    Type
REMARK                         _______ _______ _______ _____ _____    ______ ____
ROOT
ATOM      1  O   UNL     1      33.393  -8.938 -23.761  0.00  0.00    -0.339 OA
ATOM      2  O   UNL     1      31.016 -11.365 -20.465  0.00  0.00    -0.268 OA
ATOM      3  O   UNL     1      33.424 -15.851 -20.606  0.00  0.00    -0.283 OA
ATOM      4  N   UNL     1      32.246 -10.132 -21.985  0.00  0.00    -0.253 N 
ATOM      5  N   UNL     1      33.444 -12.503 -22.892  0.00  0.00    -0.275 N 
ATOM      6  C   UNL     1      31.632  -8.853 -21.597  0.00  0.00    +0.080 C 
ATOM      7  C   UNL     1      32.825  -7.736 -23.231  0.00  0.00    +0.119 C 
ATOM      8  C   UNL     1      31.384  -8.028 -22.851  0.00  0.00    +0.049 C 
ATOM      9  C   UNL     1      32.646  -7.999 -20.824  0.00  0.00    +0.022 C 
ATOM     10  C   UNL     1      33.486  -7.315 -21.913  0.00  0.00    +0.031 C 
ATOM     11  C   UNL     1      33.404 -10.075 -22.883  0.00  0.00    +0.215 C 
ATOM     12  C   UNL     1      33.441 -11.321 -23.749  0.00  0.00    +0.147 C 
ATOM     13  C   UNL     1      31.904 -11.308 -21.315  0.00  0.00    +0.267 C 
ATOM     14  C   UNL     1      32.694 -12.537 -21.709  0.00  0.00    +0.143 C 
ATOM     15  C   UNL     1      34.140 -13.640 -23.276  0.00  0.00    +0.074 C 
ATOM     16  C   UNL     1      32.648 -13.624 -20.908  0.00  0.00    +0.191 C 
ATOM     17  C   UNL     1      34.182 -14.784 -22.583  0.00  0.00    +0.110 C 
ATOM     18  C   UNL     1      33.422 -14.844 -21.306  0.00  0.00    +0.236 C 
ENDROOT
BRANCH  17  21
ATOM     19  O   UNL     1      35.862 -15.712 -23.936  0.00  0.00    -0.270 OA
ATOM     20  N   UNL     1      34.576 -17.128 -22.602  0.00  0.00    -0.297 N 
ATOM     21  C   UNL     1      34.963 -15.900 -23.116  0.00  0.00    +0.251 C 
ATOM     22  H   UNL     1      33.840 -17.148 -21.949  0.00  0.00    +0.150 HD
BRANCH  20  23
ATOM     23  C   UNL     1      35.197 -18.379 -22.975  0.00  0.00    +0.121 C 
BRANCH  23  27
ATOM     24  F   UNL     1      37.812 -18.302 -21.900  0.00  0.00    -0.204 F 
ATOM     25  F   UNL     1      33.428 -20.098 -21.593  0.00  0.00    -0.204 F 
ATOM     26  F   UNL     1      36.747 -21.392 -18.479  0.00  0.00    -0.204 F 
ATOM     27  C   UNL     1      35.610 -19.181 -21.776  0.00  0.00    +0.053 C 
ATOM     28  C   UNL     1      36.917 -19.098 -21.297  0.00  0.00    +0.142 C 
ATOM     29  C   UNL     1      34.687 -20.011 -21.140  0.00  0.00    +0.142 C 
ATOM     30  C   UNL     1      37.301 -19.845 -20.183  0.00  0.00    +0.059 C 
ATOM     31  C   UNL     1      35.070 -20.757 -20.027  0.00  0.00    +0.059 C 
ATOM     32  C   UNL     1      36.377 -20.675 -19.549  0.00  0.00    +0.145 C 
ENDBRANCH  23  27
ENDBRANCH  20  23
ENDBRANCH  17  21
BRANCH  16  33
ATOM     33  O   UNL     1      31.941 -13.687 -19.728  0.00  0.00    -0.502 OA
ATOM     34  H   UNL     1      31.086 -14.071 -19.715  0.00  0.00    +0.292 HD
ENDBRANCH  16  33
TORSDOF 4
ENDMDL
MODEL 3
REMARK VINA RESULT:     -11.4      4.298      9.894
REMARK  Name = 90311989
REMARK  4 active torsions:
REMARK  status: ('A' for Active; 'I' for Inactive)
REMARK    1  A    between atoms: C_16  and  O_33
REMARK    2  A    between atoms: C_17  and  C_21
REMARK    3  A    between atoms: N_20  and  C_23
REMARK    4  A    between atoms: C_23  and  C_27
REMARK                            x       y       z     vdW  Elec       q    Type
REMARK                         _______ _______ _______ _____ _____    ______ ____
ROOT
ATOM      1  O   UNL     1      32.319 -12.660 -19.422  0.00  0.00    -0.339 OA
ATOM      2  O   UNL     1      33.477 -12.012 -23.966  0.00  0.00    -0.268 OA
ATOM      3  O   UNL     1      34.881 -16.718 -25.314  0.00  0.00    -0.283 OA
ATOM      4  N   UNL     1      32.794 -12.341 -21.782  0.00  0.00    -0.253 N 
ATOM      5  N   UNL     1      34.018 -14.866 -21.812  0.00  0.00    -0.275 N 
ATOM      6  C   UNL     1      32.168 -11.014 -21.671  0.00  0.00    +0.080 C 
ATOM      7  C   UNL     1      31.639 -11.402 -19.455  0.00  0.00    +0.119 C 
ATOM      8  C   UNL     1      32.468 -10.444 -20.293  0.00  0.00    +0.049 C 
ATOM      9  C   UNL     1      30.640 -11.157 -21.656  0.00  0.00    +0.022 C 
ATOM     10  C   UNL     1      30.297 -11.488 -20.195  0.00  0.00    +0.031 C 
ATOM     11  C   UNL     1      32.548 -13.291 -20.693  0.00  0.00    +0.215 C 
ATOM     12  C   UNL     1      33.746 -14.211 -20.537  0.00  0.00    +0.147 C 
ATOM     13  C   UNL     1      33.364 -12.750 -22.988  0.00  0.00    +0.267 C 
ATOM     14  C   UNL     1      33.859 -14.180 -23.024  0.00  0.00    +0.143 C 
ATOM     15  C   UNL     1      34.507 -16.165 -21.838  0.00  0.00    +0.074 C 
ATOM     16  C   UNL     1      34.132 -14.744 -24.221  0.00  0.00    +0.191 C 
ATOM     17  C   UNL     1      34.819 -16.844 -22.948  0.00  0.00    +0.110 C 
ATOM     18  C   UNL     1      34.633 -16.157 -24.253  0.00  0.00    +0.236 C 
ENDROOT
BRANCH  17  21
ATOM     19  O   UNL     1      35.372 -18.967 -23.787  0.00  0.00    -0.270 OA
ATOM     20  N   UNL     1      35.716 -18.523 -21.524  0.00  0.00    -0.297 N 
ATOM     21  C   UNL     1      35.323 -18.211 -22.815  0.00  0.00    +0.251 C 
ATOM     22  H   UNL     1      35.628 -17.830 -20.830  0.00  0.00    +0.150 HD
BRANCH  20  23
ATOM     23  C   UNL     1      36.247 -19.812 -21.142  0.00  0.00    +0.121 C 
BRANCH  23  27
ATOM     24  F   UNL     1      33.433 -19.623 -21.359  0.00  0.00    -0.204 F 
ATOM     25  F   UNL     1      37.135 -21.541 -19.088  0.00  0.00    -0.204 F 
ATOM     26  F   UNL     1      32.721 -22.627 -17.775  0.00  0.00    -0.204 F 
ATOM     27  C   UNL     1      35.308 -20.563 -20.245  0.00  0.00    +0.053 C 
ATOM     28  C   UNL     1      33.929 -20.424 -20.406  0.00  0.00    +0.142 C 
ATOM     29  C   UNL     1      35.812 -21.401 -19.250  0.00  0.00    +0.142 C 
ATOM     30  C   UNL     1      33.055 -21.122 -19.571  0.00  0.00    +0.059 C 
ATOM     31  C   UNL     1      34.939 -22.098 -18.417  0.00  0.00    +0.059 C 
ATOM     32  C   UNL     1      33.561 -21.958 -18.576  0.00  0.00    +0.145 C 
ENDBRANCH  23  27
ENDBRANCH  20  23
ENDBRANCH  17  21
BRANCH  16  33
ATOM     33  O   UNL     1      33.968 -14.109 -25.432  0.00  0.00    -0.502 OA
ATOM     34  H   UNL     1      34.274 -14.516 -26.219  0.00  0.00    +0.292 HD
ENDBRANCH  16  33
TORSDOF 4
ENDMDL
MODEL 4
REMARK VINA RESULT:     -11.4      4.298      9.948
REMARK  Name = 90311989
REMARK  4 active torsions:
REMARK  status: ('A' for Active; 'I' for Inactive)
REMARK    1  A    between atoms: C_16  and  O_33
REMARK    2  A    between atoms: C_17  and  C_21
REMARK    3  A    between atoms: N_20  and  C_23
REMARK    4  A    between atoms: C_23  and  C_27
REMARK                            x       y       z     vdW  Elec       q    Type
REMARK                         _______ _______ _______ _____ _____    ______ ____
ROOT
ATOM      1  O   UNL     1      32.317 -12.669 -19.417  0.00  0.00    -0.339 OA
ATOM      2  O   UNL     1      33.483 -12.012 -23.958  0.00  0.00    -0.268 OA
ATOM      3  O   UNL     1      34.886 -16.717 -25.313  0.00  0.00    -0.283 OA
ATOM      4  N   UNL     1      32.796 -12.345 -21.776  0.00  0.00    -0.253 N 
ATOM      5  N   UNL     1      34.018 -14.872 -21.809  0.00  0.00    -0.275 N 
ATOM      6  C   UNL     1      32.171 -11.018 -21.663  0.00  0.00    +0.080 C 
ATOM      7  C   UNL     1      31.638 -11.409 -19.449  0.00  0.00    +0.119 C 
ATOM      8  C   UNL     1      32.469 -10.451 -20.284  0.00  0.00    +0.049 C 
ATOM      9  C   UNL     1      30.643 -11.159 -21.651  0.00  0.00    +0.022 C 
ATOM     10  C   UNL     1      30.298 -11.493 -20.191  0.00  0.00    +0.031 C 
ATOM     11  C   UNL     1      32.548 -13.297 -20.689  0.00  0.00    +0.215 C 
ATOM     12  C   UNL     1      33.744 -14.218 -20.533  0.00  0.00    +0.147 C 
ATOM     13  C   UNL     1      33.368 -12.753 -22.982  0.00  0.00    +0.267 C 
ATOM     14  C   UNL     1      33.862 -14.183 -23.019  0.00  0.00    +0.143 C 
ATOM     15  C   UNL     1      34.506 -16.170 -21.836  0.00  0.00    +0.074 C 
ATOM     16  C   UNL     1      34.136 -14.745 -24.217  0.00  0.00    +0.191 C 
ATOM     17  C   UNL     1      34.820 -16.848 -22.946  0.00  0.00    +0.110 C 
ATOM     18  C   UNL     1      34.636 -16.158 -24.250  0.00  0.00    +0.236 C 
ENDROOT
BRANCH  17  21
ATOM     19  O   UNL     1      35.369 -18.971 -23.788  0.00  0.00    -0.270 OA
ATOM     20  N   UNL     1      35.716 -18.529 -21.525  0.00  0.00    -0.297 N 
ATOM     21  C   UNL     1      35.322 -18.216 -22.816  0.00  0.00    +0.251 C 
ATOM     22  H   UNL     1      35.629 -17.837 -20.831  0.00  0.00    +0.150 HD
BRANCH  20  23
ATOM     23  C   UNL     1      36.246 -19.819 -21.145  0.00  0.00    +0.121 C 
BRANCH  23  27
ATOM     24  F   UNL     1      37.134 -21.532 -19.076  0.00  0.00    -0.204 F 
ATOM     25  F   UNL     1      33.433 -19.644 -21.373  0.00  0.00    -0.204 F 
ATOM     26  F   UNL     1      32.721 -22.639 -17.780  0.00  0.00    -0.204 F 
ATOM     27  C   UNL     1      35.307 -20.570 -20.247  0.00  0.00    +0.053 C 
ATOM     28  C   UNL     1      35.811 -21.400 -19.246  0.00  0.00    +0.142 C 
ATOM     29  C   UNL     1      33.928 -20.439 -20.414  0.00  0.00    +0.142 C 
ATOM     30  C   UNL     1      34.938 -22.098 -18.412  0.00  0.00    +0.059 C 
ATOM     31  C   UNL     1      33.055 -21.137 -19.580  0.00  0.00    +0.059 C 
ATOM     32  C   UNL     1      33.559 -21.967 -18.580  0.00  0.00    +0.145 C 
ENDBRANCH  23  27
ENDBRANCH  20  23
ENDBRANCH  17  21
BRANCH  16  33
ATOM     33  O   UNL     1      33.975 -14.108 -25.427  0.00  0.00    -0.502 OA
ATOM     34  H   UNL     1      34.723 -13.785 -25.889  0.00  0.00    +0.292 HD
ENDBRANCH  16  33
TORSDOF 4
ENDMDL
MODEL 5
REMARK VINA RESULT:     -11.2      2.777      4.221
REMARK  Name = 90311989
REMARK  4 active torsions:
REMARK  status: ('A' for Active; 'I' for Inactive)
REMARK    1  A    between atoms: C_16  and  O_33
REMARK    2  A    between atoms: C_17  and  C_21
REMARK    3  A    between atoms: N_20  and  C_23
REMARK    4  A    between atoms: C_23  and  C_27
REMARK                            x       y       z     vdW  Elec       q    Type
REMARK                         _______ _______ _______ _____ _____    ______ ____
ROOT
ATOM      1  O   UNL     1      38.395 -24.102 -13.593  0.00  0.00    -0.339 OA
ATOM      2  O   UNL     1      33.819 -23.774 -12.427  0.00  0.00    -0.268 OA
ATOM      3  O   UNL     1      31.656 -23.308 -17.014  0.00  0.00    -0.283 OA
ATOM      4  N   UNL     1      36.043 -24.057 -12.991  0.00  0.00    -0.253 N 
ATOM      5  N   UNL     1      35.455 -23.215 -15.603  0.00  0.00    -0.275 N 
ATOM      6  C   UNL     1      36.440 -24.464 -11.634  0.00  0.00    +0.080 C 
ATOM      7  C   UNL     1      38.655 -24.599 -12.277  0.00  0.00    +0.119 C 
ATOM      8  C   UNL     1      37.781 -23.827 -11.304  0.00  0.00    +0.049 C 
ATOM      9  C   UNL     1      36.760 -25.964 -11.611  0.00  0.00    +0.022 C 
ATOM     10  C   UNL     1      38.211 -26.058 -12.110  0.00  0.00    +0.031 C 
ATOM     11  C   UNL     1      37.039 -24.212 -14.056  0.00  0.00    +0.215 C 
ATOM     12  C   UNL     1      36.828 -23.143 -15.112  0.00  0.00    +0.147 C 
ATOM     13  C   UNL     1      34.703 -23.793 -13.282  0.00  0.00    +0.267 C 
ATOM     14  C   UNL     1      34.395 -23.512 -14.736  0.00  0.00    +0.143 C 
ATOM     15  C   UNL     1      35.173 -22.920 -16.929  0.00  0.00    +0.074 C 
ATOM     16  C   UNL     1      33.109 -23.557 -15.149  0.00  0.00    +0.191 C 
ATOM     17  C   UNL     1      33.950 -22.925 -17.472  0.00  0.00    +0.110 C 
ATOM     18  C   UNL     1      32.805 -23.267 -16.588  0.00  0.00    +0.236 C 
ENDROOT
BRANCH  17  21
ATOM     19  O   UNL     1      33.724 -23.480 -19.743  0.00  0.00    -0.270 OA
ATOM     20  N   UNL     1      33.788 -21.230 -19.131  0.00  0.00    -0.297 N 
ATOM     21  C   UNL     1      33.810 -22.595 -18.891  0.00  0.00    +0.251 C 
ATOM     22  H   UNL     1      33.866 -20.621 -18.362  0.00  0.00    +0.150 HD
BRANCH  20  23
ATOM     23  C   UNL     1      33.659 -20.656 -20.451  0.00  0.00    +0.121 C 
BRANCH  23  27
ATOM     24  F   UNL     1      36.050 -20.729 -18.941  0.00  0.00    -0.204 F 
ATOM     25  F   UNL     1      33.883 -19.270 -22.905  0.00  0.00    -0.204 F 
ATOM     26  F   UNL     1      38.445 -18.246 -22.179  0.00  0.00    -0.204 F 
ATOM     27  C   UNL     1      34.935 -20.015 -20.912  0.00  0.00    +0.053 C 
ATOM     28  C   UNL     1      36.079 -20.087 -20.117  0.00  0.00    +0.142 C 
ATOM     29  C   UNL     1      34.977 -19.345 -22.135  0.00  0.00    +0.142 C 
ATOM     30  C   UNL     1      37.265 -19.490 -20.546  0.00  0.00    +0.059 C 
ATOM     31  C   UNL     1      36.163 -18.748 -22.563  0.00  0.00    +0.059 C 
ATOM     32  C   UNL     1      37.306 -18.820 -21.768  0.00  0.00    +0.145 C 
ENDBRANCH  23  27
ENDBRANCH  20  23
ENDBRANCH  17  21
BRANCH  16  33
ATOM     33  O   UNL     1      32.044 -23.866 -14.332  0.00  0.00    -0.502 OA
ATOM     34  H   UNL     1      31.762 -23.255 -13.680  0.00  0.00    +0.292 HD
ENDBRANCH  16  33
TORSDOF 4
ENDMDL
MODEL 6
REMARK VINA RESULT:     -10.7      5.702      9.570
REMARK  Name = 90311989
REMARK  4 active torsions:
REMARK  status: ('A' for Active; 'I' for Inactive)
REMARK    1  A    between atoms: C_16  and  O_33
REMARK    2  A    between atoms: C_17  and  C_21
REMARK    3  A    between atoms: N_20  and  C_23
REMARK    4  A    between atoms: C_23  and  C_27
REMARK                            x       y       z     vdW  Elec       q    Type
REMARK                         _______ _______ _______ _____ _____    ______ ____
ROOT
ATOM      1  O   UNL     1      34.638 -18.142 -20.383  0.00  0.00    -0.339 OA
ATOM      2  O   UNL     1      34.749 -15.947 -24.577  0.00  0.00    -0.268 OA
ATOM      3  O   UNL     1      33.141 -11.286 -23.300  0.00  0.00    -0.283 OA
ATOM      4  N   UNL     1      34.815 -16.994 -22.516  0.00  0.00    -0.253 N 
ATOM      5  N   UNL     1      33.327 -14.877 -21.428  0.00  0.00    -0.275 N 
ATOM      6  C   UNL     1      35.556 -18.160 -23.019  0.00  0.00    +0.080 C 
ATOM      7  C   UNL     1      35.459 -19.171 -20.944  0.00  0.00    +0.119 C 
ATOM      8  C   UNL     1      34.995 -19.416 -22.369  0.00  0.00    +0.049 C 
ATOM      9  C   UNL     1      37.000 -18.125 -22.502  0.00  0.00    +0.022 C 
ATOM     10  C   UNL     1      36.920 -18.730 -21.091  0.00  0.00    +0.031 C 
ATOM     11  C   UNL     1      34.656 -16.876 -21.063  0.00  0.00    +0.215 C 
ATOM     12  C   UNL     1      33.351 -16.168 -20.748  0.00  0.00    +0.147 C 
ATOM     13  C   UNL     1      34.518 -15.928 -23.368  0.00  0.00    +0.267 C 
ATOM     14  C   UNL     1      33.870 -14.729 -22.711  0.00  0.00    +0.143 C 
ATOM     15  C   UNL     1      32.698 -13.790 -20.838  0.00  0.00    +0.074 C 
ATOM     16  C   UNL     1      33.837 -13.558 -23.384  0.00  0.00    +0.191 C 
ATOM     17  C   UNL     1      32.591 -12.575 -21.388  0.00  0.00    +0.110 C 
ATOM     18  C   UNL     1      33.185 -12.374 -22.736  0.00  0.00    +0.236 C 
ENDROOT
BRANCH  17  21
ATOM     19  O   UNL     1      30.887 -11.772 -19.985  0.00  0.00    -0.270 OA
ATOM     20  N   UNL     1      32.505 -10.283 -20.763  0.00  0.00    -0.297 N 
ATOM     21  C   UNL     1      31.900 -11.524 -20.641  0.00  0.00    +0.251 C 
ATOM     22  H   UNL     1      33.315 -10.213 -21.319  0.00  0.00    +0.150 HD
BRANCH  20  23
ATOM     23  C   UNL     1      32.009  -9.088 -20.119  0.00  0.00    +0.121 C 
BRANCH  23  27
ATOM     24  F   UNL     1      32.998  -6.514 -19.486  0.00  0.00    -0.204 F 
ATOM     25  F   UNL     1      30.865  -9.285 -22.697  0.00  0.00    -0.204 F 
ATOM     26  F   UNL     1      31.719  -4.737 -23.680  0.00  0.00    -0.204 F 
ATOM     27  C   UNL     1      31.933  -7.929 -21.068  0.00  0.00    +0.053 C 
ATOM     28  C   UNL     1      32.439  -6.684 -20.693  0.00  0.00    +0.142 C 
ATOM     29  C   UNL     1      31.355  -8.094 -22.327  0.00  0.00    +0.142 C 
ATOM     30  C   UNL     1      32.367  -5.606 -21.575  0.00  0.00    +0.059 C 
ATOM     31  C   UNL     1      31.283  -7.017 -23.209  0.00  0.00    +0.059 C 
ATOM     32  C   UNL     1      31.789  -5.773 -22.833  0.00  0.00    +0.145 C 
ENDBRANCH  23  27
ENDBRANCH  20  23
ENDBRANCH  17  21
BRANCH  16  33
ATOM     33  O   UNL     1      34.379 -13.368 -24.636  0.00  0.00    -0.502 OA
ATOM     34  H   UNL     1      34.290 -14.034 -25.290  0.00  0.00    +0.292 HD
ENDBRANCH  16  33
TORSDOF 4
ENDMDL
MODEL 7
REMARK VINA RESULT:     -10.6      2.985      4.448
REMARK  Name = 90311989
REMARK  4 active torsions:
REMARK  status: ('A' for Active; 'I' for Inactive)
REMARK    1  A    between atoms: C_16  and  O_33
REMARK    2  A    between atoms: C_17  and  C_21
REMARK    3  A    between atoms: N_20  and  C_23
REMARK    4  A    between atoms: C_23  and  C_27
REMARK                            x       y       z     vdW  Elec       q    Type
REMARK                         _______ _______ _______ _____ _____    ______ ____
ROOT
ATOM      1  O   UNL     1      38.582 -24.112 -13.996  0.00  0.00    -0.339 OA
ATOM      2  O   UNL     1      34.311 -24.615 -12.016  0.00  0.00    -0.268 OA
ATOM      3  O   UNL     1      31.261 -23.521 -15.946  0.00  0.00    -0.283 OA
ATOM      4  N   UNL     1      36.399 -24.491 -13.003  0.00  0.00    -0.253 N 
ATOM      5  N   UNL     1      35.240 -23.226 -15.224  0.00  0.00    -0.275 N 
ATOM      6  C   UNL     1      37.088 -25.107 -11.858  0.00  0.00    +0.080 C 
ATOM      7  C   UNL     1      39.138 -24.825 -12.886  0.00  0.00    +0.119 C 
ATOM      8  C   UNL     1      38.406 -24.383 -11.631  0.00  0.00    +0.049 C 
ATOM      9  C   UNL     1      37.538 -26.528 -12.223  0.00  0.00    +0.022 C 
ATOM     10  C   UNL     1      38.866 -26.333 -12.972  0.00  0.00    +0.031 C 
ATOM     11  C   UNL     1      37.177 -24.301 -14.231  0.00  0.00    +0.215 C 
ATOM     12  C   UNL     1      36.670 -23.077 -14.972  0.00  0.00    +0.147 C 
ATOM     13  C   UNL     1      35.010 -24.348 -12.994  0.00  0.00    +0.267 C 
ATOM     14  C   UNL     1      34.400 -23.824 -14.275  0.00  0.00    +0.143 C 
ATOM     15  C   UNL     1      34.679 -22.709 -16.383  0.00  0.00    +0.074 C 
ATOM     16  C   UNL     1      33.067 -23.949 -14.460  0.00  0.00    +0.191 C 
ATOM     17  C   UNL     1      33.379 -22.762 -16.695  0.00  0.00    +0.110 C 
ATOM     18  C   UNL     1      32.463 -23.419 -15.725  0.00  0.00    +0.236 C 
ENDROOT
BRANCH  17  21
ATOM     19  O   UNL     1      31.739 -21.991 -18.190  0.00  0.00    -0.270 OA
ATOM     20  N   UNL     1      33.982 -21.871 -18.814  0.00  0.00    -0.297 N 
ATOM     21  C   UNL     1      32.935 -22.175 -17.960  0.00  0.00    +0.251 C 
ATOM     22  H   UNL     1      34.900 -22.067 -18.515  0.00  0.00    +0.150 HD
BRANCH  20  23
ATOM     23  C   UNL     1      33.799 -21.284 -20.122  0.00  0.00    +0.121 C 
BRANCH  23  27
ATOM     24  F   UNL     1      33.777 -19.591 -22.389  0.00  0.00    -0.204 F 
ATOM     25  F   UNL     1      36.254 -21.308 -18.721  0.00  0.00    -0.204 F 
ATOM     26  F   UNL     1      38.258 -18.235 -21.708  0.00  0.00    -0.204 F 
ATOM     27  C   UNL     1      34.986 -20.470 -20.544  0.00  0.00    +0.053 C 
ATOM     28  C   UNL     1      34.909 -19.655 -21.674  0.00  0.00    +0.142 C 
ATOM     29  C   UNL     1      36.170 -20.528 -19.808  0.00  0.00    +0.142 C 
ATOM     30  C   UNL     1      36.014 -18.900 -22.067  0.00  0.00    +0.059 C 
ATOM     31  C   UNL     1      37.274 -19.773 -20.200  0.00  0.00    +0.059 C 
ATOM     32  C   UNL     1      37.196 -18.960 -21.330  0.00  0.00    +0.145 C 
ENDBRANCH  23  27
ENDBRANCH  20  23
ENDBRANCH  17  21
BRANCH  16  33
ATOM     33  O   UNL     1      32.214 -24.550 -13.561  0.00  0.00    -0.502 OA
ATOM     34  H   UNL     1      32.522 -25.253 -13.022  0.00  0.00    +0.292 HD
ENDBRANCH  16  33
TORSDOF 4
ENDMDL
MODEL 8
REMARK VINA RESULT:     -10.5      5.765      9.611
REMARK  Name = 90311989
REMARK  4 active torsions:
REMARK  status: ('A' for Active; 'I' for Inactive)
REMARK    1  A    between atoms: C_16  and  O_33
REMARK    2  A    between atoms: C_17  and  C_21
REMARK    3  A    between atoms: N_20  and  C_23
REMARK    4  A    between atoms: C_23  and  C_27
REMARK                            x       y       z     vdW  Elec       q    Type
REMARK                         _______ _______ _______ _____ _____    ______ ____
ROOT
ATOM      1  O   UNL     1      34.816 -17.752 -20.488  0.00  0.00    -0.339 OA
ATOM      2  O   UNL     1      34.682 -16.588 -25.074  0.00  0.00    -0.268 OA
ATOM      3  O   UNL     1      33.536 -11.632 -24.808  0.00  0.00    -0.283 OA
ATOM      4  N   UNL     1      34.870 -17.140 -22.837  0.00  0.00    -0.253 N 
ATOM      5  N   UNL     1      33.645 -14.705 -22.165  0.00  0.00    -0.275 N 
ATOM      6  C   UNL     1      35.475 -18.453 -23.108  0.00  0.00    +0.080 C 
ATOM      7  C   UNL     1      35.505 -18.952 -20.852  0.00  0.00    +0.119 C 
ATOM      8  C   UNL     1      34.891 -19.471 -22.140  0.00  0.00    +0.049 C 
ATOM      9  C   UNL     1      36.961 -18.432 -22.725  0.00  0.00    +0.022 C 
ATOM     10  C   UNL     1      36.974 -18.691 -21.210  0.00  0.00    +0.031 C 
ATOM     11  C   UNL     1      34.859 -16.681 -21.445  0.00  0.00    +0.215 C 
ATOM     12  C   UNL     1      33.643 -15.804 -21.205  0.00  0.00    +0.147 C 
ATOM     13  C   UNL     1      34.569 -16.274 -23.890  0.00  0.00    +0.267 C 
ATOM     14  C   UNL     1      34.073 -14.903 -23.485  0.00  0.00    +0.143 C 
ATOM     15  C   UNL     1      33.154 -13.460 -21.800  0.00  0.00    +0.074 C 
ATOM     16  C   UNL     1      34.059 -13.917 -24.409  0.00  0.00    +0.191 C 
ATOM     17  C   UNL     1      33.081 -12.397 -22.610  0.00  0.00    +0.110 C 
ATOM     18  C   UNL     1      33.556 -12.563 -24.009  0.00  0.00    +0.236 C 
ENDROOT
BRANCH  17  21
ATOM     19  O   UNL     1      31.672 -11.148 -21.206  0.00  0.00    -0.270 OA
ATOM     20  N   UNL     1      33.105 -10.021 -22.660  0.00  0.00    -0.297 N 
ATOM     21  C   UNL     1      32.541 -11.145 -22.080  0.00  0.00    +0.251 C 
ATOM     22  H   UNL     1      33.793 -10.150 -23.352  0.00  0.00    +0.150 HD
BRANCH  20  23
ATOM     23  C   UNL     1      32.735  -8.670 -22.303  0.00  0.00    +0.121 C 
BRANCH  23  27
ATOM     24  F   UNL     1      35.412  -8.668 -23.218  0.00  0.00    -0.204 F 
ATOM     25  F   UNL     1      31.136  -6.615 -23.405  0.00  0.00    -0.204 F 
ATOM     26  F   UNL     1      34.708  -4.899 -25.989  0.00  0.00    -0.204 F 
ATOM     27  C   UNL     1      33.261  -7.666 -23.287  0.00  0.00    +0.053 C 
ATOM     28  C   UNL     1      34.593  -7.721 -23.696  0.00  0.00    +0.142 C 
ATOM     29  C   UNL     1      32.417  -6.676 -23.792  0.00  0.00    +0.142 C 
ATOM     30  C   UNL     1      35.082  -6.786 -24.609  0.00  0.00    +0.059 C 
ATOM     31  C   UNL     1      32.906  -5.742 -24.705  0.00  0.00    +0.059 C 
ATOM     32  C   UNL     1      34.238  -5.797 -25.113  0.00  0.00    +0.145 C 
ENDBRANCH  23  27
ENDBRANCH  20  23
ENDBRANCH  17  21
BRANCH  16  33
ATOM     33  O   UNL     1      34.491 -14.068 -25.708  0.00  0.00    -0.502 OA
ATOM     34  H   UNL     1      33.988 -14.578 -26.313  0.00  0.00    +0.292 HD
ENDBRANCH  16  33
TORSDOF 4
ENDMDL
MODEL 9
REMARK VINA RESULT:     -10.3      4.428      9.566
REMARK  Name = 90311989
REMARK  4 active torsions:
REMARK  status: ('A' for Active; 'I' for Inactive)
REMARK    1  A    between atoms: C_16  and  O_33
REMARK    2  A    between atoms: C_17  and  C_21
REMARK    3  A    between atoms: N_20  and  C_23
REMARK    4  A    between atoms: C_23  and  C_27
REMARK                            x       y       z     vdW  Elec       q    Type
REMARK                         _______ _______ _______ _____ _____    ______ ____
ROOT
ATOM      1  O   UNL     1      37.213 -19.262 -21.193  0.00  0.00    -0.339 OA
ATOM      2  O   UNL     1      32.912 -21.093 -20.440  0.00  0.00    -0.268 OA
ATOM      3  O   UNL     1      33.579 -23.375 -15.936  0.00  0.00    -0.283 OA
ATOM      4  N   UNL     1      34.972 -20.092 -20.761  0.00  0.00    -0.253 N 
ATOM      5  N   UNL     1      36.020 -21.653 -18.678  0.00  0.00    -0.275 N 
ATOM      6  C   UNL     1      34.510 -19.273 -21.892  0.00  0.00    +0.080 C 
ATOM      7  C   UNL     1      36.637 -18.425 -22.201  0.00  0.00    +0.119 C 
ATOM      8  C   UNL     1      35.601 -19.241 -22.952  0.00  0.00    +0.049 C 
ATOM      9  C   UNL     1      34.408 -17.802 -21.464  0.00  0.00    +0.022 C 
ATOM     10  C   UNL     1      35.840 -17.260 -21.600  0.00  0.00    +0.031 C 
ATOM     11  C   UNL     1      36.302 -19.799 -20.219  0.00  0.00    +0.215 C 
ATOM     12  C   UNL     1      36.921 -21.070 -19.667  0.00  0.00    +0.147 C 
ATOM     13  C   UNL     1      34.076 -20.918 -20.080  0.00  0.00    +0.267 C 
ATOM     14  C   UNL     1      34.631 -21.613 -18.855  0.00  0.00    +0.143 C 
ATOM     15  C   UNL     1      36.534 -22.322 -17.575  0.00  0.00    +0.074 C 
ATOM     16  C   UNL     1      33.769 -22.169 -17.976  0.00  0.00    +0.191 C 
ATOM     17  C   UNL     1      35.800 -22.918 -16.629  0.00  0.00    +0.110 C 
ATOM     18  C   UNL     1      34.321 -22.866 -16.770  0.00  0.00    +0.236 C 
ENDROOT
BRANCH  17  21
ATOM     19  O   UNL     1      37.341 -22.992 -14.858  0.00  0.00    -0.270 OA
ATOM     20  N   UNL     1      36.071 -24.890 -15.331  0.00  0.00    -0.297 N 
ATOM     21  C   UNL     1      36.487 -23.582 -15.521  0.00  0.00    +0.251 C 
ATOM     22  H   UNL     1      35.378 -25.250 -15.929  0.00  0.00    +0.150 HD
BRANCH  20  23
ATOM     23  C   UNL     1      36.603 -25.753 -14.299  0.00  0.00    +0.121 C 
BRANCH  23  27
ATOM     24  F   UNL     1      34.291 -24.867 -12.931  0.00  0.00    -0.204 F 
ATOM     25  F   UNL     1      39.024 -25.234 -12.935  0.00  0.00    -0.204 F 
ATOM     26  F   UNL     1      36.805 -23.175  -9.298  0.00  0.00    -0.204 F 
ATOM     27  C   UNL     1      36.656 -25.067 -12.966  0.00  0.00    +0.053 C 
ATOM     28  C   UNL     1      35.477 -24.654 -12.345  0.00  0.00    +0.142 C 
ATOM     29  C   UNL     1      37.885 -24.841 -12.346  0.00  0.00    +0.142 C 
ATOM     30  C   UNL     1      35.528 -24.015 -11.106  0.00  0.00    +0.059 C 
ATOM     31  C   UNL     1      37.936 -24.203 -11.107  0.00  0.00    +0.059 C 
ATOM     32  C   UNL     1      36.757 -23.789 -10.488  0.00  0.00    +0.145 C 
ENDBRANCH  23  27
ENDBRANCH  20  23
ENDBRANCH  17  21
BRANCH  16  33
ATOM     33  O   UNL     1      32.398 -22.130 -18.106  0.00  0.00    -0.502 OA
ATOM     34  H   UNL     1      31.913 -22.927 -18.195  0.00  0.00    +0.292 HD
ENDBRANCH  16  33
TORSDOF 4
ENDMDL
