MODEL 1
REMARK VINA RESULT:     -11.1      0.000      0.000
REMARK  Name = 8969
REMARK  3 active torsions:
REMARK  status: ('A' for Active; 'I' for Inactive)
REMARK    1  A    between atoms: C_7  and  C_27
REMARK    2  A    between atoms: C_10  and  O_24
REMARK    3  A    between atoms: C_27  and  O_28
REMARK                            x       y       z     vdW  Elec       q    Type
REMARK                         _______ _______ _______ _____ _____    ______ ____
ROOT
ATOM      1  N   UNL     1      34.222 -23.338 -15.832  0.00  0.00    +0.392 N 
ATOM      2  N   UNL     1      33.155 -21.858 -19.100  0.00  0.00    -0.358 N 
ATOM      3  C   UNL     1      31.372 -23.889 -15.450  0.00  0.00    +0.009 C 
ATOM      4  C   UNL     1      32.400 -23.965 -14.300  0.00  0.00    -0.020 C 
ATOM      5  C   UNL     1      31.884 -22.908 -16.521  0.00  0.00    -0.015 C 
ATOM      6  C   UNL     1      33.291 -23.309 -16.994  0.00  0.00    -0.019 C 
ATOM      7  C   UNL     1      29.987 -23.499 -14.897  0.00  0.00    +0.126 C 
ATOM      8  C   UNL     1      33.794 -24.329 -14.836  0.00  0.00    -0.077 C 
ATOM      9  C   UNL     1      31.945 -24.949 -13.216  0.00  0.00    +0.000 C 
ATOM     10  C   UNL     1      29.522 -24.473 -13.800  0.00  0.00    +0.121 C 
ATOM     11  C   UNL     1      30.559 -24.579 -12.680  0.00  0.00    +0.030 C 
ATOM     12  C   UNL     1      33.835 -22.379 -18.036  0.00  0.00    +0.010 A 
ATOM     13  C   UNL     1      35.621 -23.564 -16.253  0.00  0.00    -0.072 C 
ATOM     14  C   UNL     1      35.148 -21.962 -18.114  0.00  0.00    -0.013 A 
ATOM     15  C   UNL     1      36.150 -22.380 -17.097  0.00  0.00    +0.005 C 
ATOM     16  C   UNL     1      35.268 -21.125 -19.256  0.00  0.00    +0.013 A 
ATOM     17  C   UNL     1      34.004 -21.077 -19.856  0.00  0.00    +0.056 A 
ATOM     18  C   UNL     1      36.326 -20.405 -19.845  0.00  0.00    +0.001 C 
ATOM     19  C   UNL     1      33.751 -20.341 -21.020  0.00  0.00    +0.017 C 
ATOM     20  C   UNL     1      36.084 -19.664 -21.008  0.00  0.00    +0.000 C 
ATOM     21  C   UNL     1      34.817 -19.634 -21.584  0.00  0.00    +0.001 C 
ATOM     22  H   UNL     1      34.188 -22.419 -15.392  0.00  0.00    -0.079 HD
ATOM     23  H   UNL     1      32.204 -22.016 -19.298  0.00  0.00    +0.166 HD
ENDROOT
BRANCH  10  24
ATOM     24  O   UNL     1      29.321 -25.771 -14.363  0.00  0.00    -0.384 OA
ATOM     25  H   UNL     1      29.765 -26.435 -13.813  0.00  0.00    +0.210 HD
ENDBRANCH  10  24
BRANCH   7  27
ATOM     26  O   UNL     1      28.592 -24.447 -16.619  0.00  0.00    -0.250 OA
ATOM     27  C   UNL     1      28.951 -23.465 -15.983  0.00  0.00    +0.319 C 
BRANCH  27  28
ATOM     28  O   UNL     1      28.493 -22.190 -16.136  0.00  0.00    -0.444 OA
ATOM     29  C   UNL     1      27.098 -22.069 -16.428  0.00  0.00    +0.256 C 
ENDBRANCH  27  28
ENDBRANCH   7  27
TORSDOF 3
ENDMDL
MODEL 2
REMARK VINA RESULT:      -9.2     12.368     15.548
REMARK  Name = 8969
REMARK  3 active torsions:
REMARK  status: ('A' for Active; 'I' for Inactive)
REMARK    1  A    between atoms: C_7  and  C_27
REMARK    2  A    between atoms: C_10  and  O_24
REMARK    3  A    between atoms: C_27  and  O_28
REMARK                            x       y       z     vdW  Elec       q    Type
REMARK                         _______ _______ _______ _____ _____    ______ ____
ROOT
ATOM      1  N   UNL     1      31.856  -8.376 -21.023  0.00  0.00    +0.392 N 
ATOM      2  N   UNL     1      33.394  -7.026 -24.156  0.00  0.00    -0.358 N 
ATOM      3  C   UNL     1      32.909 -10.954 -21.928  0.00  0.00    +0.009 C 
ATOM      4  C   UNL     1      31.855 -10.828 -20.806  0.00  0.00    -0.020 C 
ATOM      5  C   UNL     1      32.797  -9.736 -22.864  0.00  0.00    -0.015 C 
ATOM      6  C   UNL     1      32.917  -8.426 -22.066  0.00  0.00    -0.019 C 
ATOM      7  C   UNL     1      32.736 -12.294 -22.669  0.00  0.00    +0.126 C 
ATOM      8  C   UNL     1      31.996  -9.485 -20.071  0.00  0.00    -0.077 C 
ATOM      9  C   UNL     1      31.940 -12.009 -19.832  0.00  0.00    +0.000 C 
ATOM     10  C   UNL     1      32.809 -13.488 -21.701  0.00  0.00    +0.121 C 
ATOM     11  C   UNL     1      31.793 -13.344 -20.567  0.00  0.00    +0.030 C 
ATOM     12  C   UNL     1      32.810  -7.210 -22.935  0.00  0.00    +0.010 A 
ATOM     13  C   UNL     1      31.826  -7.069 -20.331  0.00  0.00    -0.072 C 
ATOM     14  C   UNL     1      32.151  -6.049 -22.591  0.00  0.00    -0.013 A 
ATOM     15  C   UNL     1      31.422  -5.932 -21.298  0.00  0.00    +0.005 C 
ATOM     16  C   UNL     1      32.312  -5.127 -23.659  0.00  0.00    +0.013 A 
ATOM     17  C   UNL     1      33.096  -5.764 -24.628  0.00  0.00    +0.056 A 
ATOM     18  C   UNL     1      31.874  -3.810 -23.901  0.00  0.00    +0.001 C 
ATOM     19  C   UNL     1      33.462  -5.144 -25.829  0.00  0.00    +0.017 C 
ATOM     20  C   UNL     1      32.232  -3.179 -25.099  0.00  0.00    +0.000 C 
ATOM     21  C   UNL     1      33.014  -3.837 -26.045  0.00  0.00    +0.001 C 
ATOM     22  H   UNL     1      30.959  -8.483 -21.496  0.00  0.00    -0.079 HD
ATOM     23  H   UNL     1      33.945  -7.691 -24.629  0.00  0.00    +0.166 HD
ENDROOT
BRANCH  10  24
ATOM     24  O   UNL     1      34.119 -13.568 -21.135  0.00  0.00    -0.384 OA
ATOM     25  H   UNL     1      34.733 -13.936 -21.790  0.00  0.00    +0.210 HD
ENDBRANCH  10  24
BRANCH   7  27
ATOM     26  O   UNL     1      34.391 -11.546 -24.253  0.00  0.00    -0.250 OA
ATOM     27  C   UNL     1      33.778 -12.470 -23.735  0.00  0.00    +0.319 C 
BRANCH  27  28
ATOM     28  O   UNL     1      33.919 -13.796 -24.020  0.00  0.00    -0.444 OA
ATOM     29  C   UNL     1      33.307 -14.232 -25.237  0.00  0.00    +0.256 C 
ENDBRANCH  27  28
ENDBRANCH   7  27
TORSDOF 3
ENDMDL
MODEL 3
REMARK VINA RESULT:      -8.9     11.109     14.074
REMARK  Name = 8969
REMARK  3 active torsions:
REMARK  status: ('A' for Active; 'I' for Inactive)
REMARK    1  A    between atoms: C_7  and  C_27
REMARK    2  A    between atoms: C_10  and  O_24
REMARK    3  A    between atoms: C_27  and  O_28
REMARK                            x       y       z     vdW  Elec       q    Type
REMARK                         _______ _______ _______ _____ _____    ______ ____
ROOT
ATOM      1  N   UNL     1      32.457 -11.708 -20.415  0.00  0.00    +0.392 N 
ATOM      2  N   UNL     1      33.263 -12.912 -23.866  0.00  0.00    -0.358 N 
ATOM      3  C   UNL     1      32.212  -9.075 -21.675  0.00  0.00    +0.009 C 
ATOM      4  C   UNL     1      32.313  -9.265 -20.145  0.00  0.00    -0.020 C 
ATOM      5  C   UNL     1      32.895 -10.263 -22.377  0.00  0.00    -0.015 C 
ATOM      6  C   UNL     1      32.300 -11.596 -21.892  0.00  0.00    -0.019 C 
ATOM      7  C   UNL     1      32.812  -7.715 -22.081  0.00  0.00    +0.126 C 
ATOM      8  C   UNL     1      31.741 -10.628 -19.724  0.00  0.00    -0.077 C 
ATOM      9  C   UNL     1      31.625  -8.115 -19.399  0.00  0.00    +0.000 C 
ATOM     10  C   UNL     1      32.137  -6.553 -21.331  0.00  0.00    +0.121 C 
ATOM     11  C   UNL     1      32.202  -6.760 -19.817  0.00  0.00    +0.030 C 
ATOM     12  C   UNL     1      32.938 -12.784 -22.545  0.00  0.00    +0.010 A 
ATOM     13  C   UNL     1      32.044 -13.037 -19.917  0.00  0.00    -0.072 C 
ATOM     14  C   UNL     1      33.232 -13.972 -21.909  0.00  0.00    -0.013 A 
ATOM     15  C   UNL     1      32.974 -14.150 -20.454  0.00  0.00    +0.005 C 
ATOM     16  C   UNL     1      33.788 -14.853 -22.875  0.00  0.00    +0.013 A 
ATOM     17  C   UNL     1      33.797 -14.164 -24.093  0.00  0.00    +0.056 A 
ATOM     18  C   UNL     1      34.284 -16.171 -22.838  0.00  0.00    +0.001 C 
ATOM     19  C   UNL     1      34.278 -14.734 -25.278  0.00  0.00    +0.017 C 
ATOM     20  C   UNL     1      34.770 -16.752 -24.016  0.00  0.00    +0.000 C 
ATOM     21  C   UNL     1      34.766 -16.043 -25.215  0.00  0.00    +0.001 C 
ATOM     22  H   UNL     1      33.450 -11.606 -20.207  0.00  0.00    -0.079 HD
ATOM     23  H   UNL     1      33.136 -12.218 -24.552  0.00  0.00    +0.166 HD
ENDROOT
BRANCH  10  24
ATOM     24  O   UNL     1      30.766  -6.461 -21.723  0.00  0.00    -0.384 OA
ATOM     25  H   UNL     1      30.555  -7.180 -22.338  0.00  0.00    +0.210 HD
ENDBRANCH  10  24
BRANCH   7  27
ATOM     26  O   UNL     1      31.660  -7.678 -24.198  0.00  0.00    -0.250 OA
ATOM     27  C   UNL     1      32.684  -7.478 -23.558  0.00  0.00    +0.319 C 
BRANCH  27  28
ATOM     28  O   UNL     1      33.868  -7.014 -24.049  0.00  0.00    -0.444 OA
ATOM     29  C   UNL     1      35.033  -7.399 -23.312  0.00  0.00    +0.256 C 
ENDBRANCH  27  28
ENDBRANCH   7  27
TORSDOF 3
ENDMDL
