MODEL 1
REMARK VINA RESULT:     -12.7      0.000      0.000
REMARK  Name = 5291
REMARK  6 active torsions:
REMARK  status: ('A' for Active; 'I' for Inactive)
REMARK    1  A    between atoms: C_1  and  N_23
REMARK    2  A    between atoms: C_2  and  N_8
REMARK    3  A    between atoms: C_12  and  C_17
REMARK    4  A    between atoms: C_24  and  C_31
REMARK    5  A    between atoms: C_26  and  C_32
REMARK    6  A    between atoms: C_32  and  N_33
REMARK                            x       y       z     vdW  Elec       q    Type
REMARK                         _______ _______ _______ _____ _____    ______ ____
ROOT
ATOM      1  C   UNL     1      31.780 -22.811 -16.422  0.00  0.00    +0.052 C 
ATOM      2  C   UNL     1      31.815 -23.923 -14.299  0.00  0.00    +0.055 C 
ATOM      3  C   UNL     1      32.487 -23.240 -15.311  0.00  0.00    +0.030 C 
ATOM      4  C   UNL     1      30.446 -24.168 -14.412  0.00  0.00    -0.008 C 
ATOM      5  C   UNL     1      30.422 -23.045 -16.551  0.00  0.00    +0.014 C 
ATOM      6  C   UNL     1      29.750 -23.730 -15.538  0.00  0.00    -0.002 C 
ATOM      7  C   UNL     1      29.701 -24.900 -13.343  0.00  0.00    +0.032 C 
ENDROOT
BRANCH   2   8
ATOM      8  N   UNL     1      32.534 -24.360 -13.164  0.00  0.00    -0.248 N 
ATOM      9  N   UNL     1      34.747 -23.907 -13.802  0.00  0.00    -0.337 NA
ATOM     10  N   UNL     1      34.253 -24.882 -11.655  0.00  0.00    -0.170 NA
ATOM     11  C   UNL     1      33.908 -24.384 -12.859  0.00  0.00    +0.149 C 
ATOM     12  C   UNL     1      36.056 -23.946 -13.479  0.00  0.00    +0.147 C 
ATOM     13  C   UNL     1      36.534 -24.430 -12.278  0.00  0.00    +0.055 C 
ATOM     14  C   UNL     1      35.578 -24.890 -11.396  0.00  0.00    +0.114 C 
ATOM     15  H   UNL     1      31.963 -24.717 -12.446  0.00  0.00    +0.165 HD
BRANCH  12  17
ATOM     16  N   UNL     1      39.113 -23.528 -15.568  0.00  0.00    -0.242 NA
ATOM     17  C   UNL     1      36.952 -23.435 -14.487  0.00  0.00    +0.050 C 
ATOM     18  C   UNL     1      36.566 -22.400 -15.334  0.00  0.00    +0.006 C 
ATOM     19  C   UNL     1      38.225 -23.959 -14.645  0.00  0.00    +0.101 C 
ATOM     20  C   UNL     1      37.451 -21.929 -16.296  0.00  0.00    +0.021 C 
ATOM     21  C   UNL     1      38.702 -22.521 -16.372  0.00  0.00    +0.099 C 
ENDBRANCH  12  17
ENDBRANCH   2   8
BRANCH   1  23
ATOM     22  O   UNL     1      33.782 -23.793 -18.427  0.00  0.00    -0.270 OA
ATOM     23  N   UNL     1      32.462 -22.116 -17.450  0.00  0.00    -0.280 N 
ATOM     24  C   UNL     1      33.396 -22.614 -18.371  0.00  0.00    +0.249 C 
ATOM     25  H   UNL     1      32.255 -21.157 -17.528  0.00  0.00    +0.155 HD
BRANCH  24  31
ATOM     26  C   UNL     1      35.015 -19.787 -21.069  0.00  0.00    -0.043 C 
ATOM     27  C   UNL     1      35.868 -20.606 -20.344  0.00  0.00    -0.006 C 
ATOM     28  C   UNL     1      33.637 -19.882 -20.923  0.00  0.00    -0.006 C 
ATOM     29  C   UNL     1      35.334 -21.538 -19.454  0.00  0.00    +0.004 C 
ATOM     30  C   UNL     1      33.103 -20.814 -20.034  0.00  0.00    +0.004 C 
ATOM     31  C   UNL     1      33.952 -21.643 -19.300  0.00  0.00    +0.054 C 
BRANCH  26  32
ATOM     32  C   UNL     1      35.590 -18.781 -22.030  0.00  0.00    -0.050 C 
BRANCH  32  33
ATOM     33  N   UNL     1      34.776 -17.568 -22.101  0.00  0.00    +0.387 N 
ATOM     34  N   UNL     1      34.431 -14.703 -22.281  0.00  0.00    +0.383 N 
ATOM     35  C   UNL     1      35.020 -16.849 -23.357  0.00  0.00    -0.100 C 
ATOM     36  C   UNL     1      35.041 -16.696 -20.951  0.00  0.00    -0.100 C 
ATOM     37  C   UNL     1      34.168 -15.577 -23.431  0.00  0.00    -0.101 C 
ATOM     38  C   UNL     1      34.190 -15.423 -21.024  0.00  0.00    -0.101 C 
ATOM     39  C   UNL     1      33.616 -13.493 -22.352  0.00  0.00    -0.101 C 
ATOM     40  H   UNL     1      33.796 -17.847 -22.074  0.00  0.00    -0.079 HD
ATOM     41  H   UNL     1      35.412 -14.425 -22.308  0.00  0.00    -0.080 HD
ENDBRANCH  32  33
ENDBRANCH  26  32
ENDBRANCH  24  31
ENDBRANCH   1  23
TORSDOF 6
ENDMDL
MODEL 2
REMARK VINA RESULT:     -12.3      1.021      1.614
REMARK  Name = 5291
REMARK  6 active torsions:
REMARK  status: ('A' for Active; 'I' for Inactive)
REMARK    1  A    between atoms: C_1  and  N_23
REMARK    2  A    between atoms: C_2  and  N_8
REMARK    3  A    between atoms: C_12  and  C_17
REMARK    4  A    between atoms: C_24  and  C_31
REMARK    5  A    between atoms: C_26  and  C_32
REMARK    6  A    between atoms: C_32  and  N_33
REMARK                            x       y       z     vdW  Elec       q    Type
REMARK                         _______ _______ _______ _____ _____    ______ ____
ROOT
ATOM      1  C   UNL     1      32.742 -23.091 -15.993  0.00  0.00    +0.052 C 
ATOM      2  C   UNL     1      32.773 -23.860 -13.723  0.00  0.00    +0.055 C 
ATOM      3  C   UNL     1      33.355 -23.121 -14.752  0.00  0.00    +0.030 C 
ATOM      4  C   UNL     1      31.586 -24.558 -13.950  0.00  0.00    -0.008 C 
ATOM      5  C   UNL     1      31.565 -23.777 -16.236  0.00  0.00    +0.014 C 
ATOM      6  C   UNL     1      30.983 -24.517 -15.207  0.00  0.00    -0.002 C 
ATOM      7  C   UNL     1      30.941 -25.359 -12.866  0.00  0.00    +0.032 C 
ENDROOT
BRANCH   2   8
ATOM      8  N   UNL     1      33.396 -23.891 -12.456  0.00  0.00    -0.248 N 
ATOM      9  N   UNL     1      35.659 -24.093 -13.046  0.00  0.00    -0.337 NA
ATOM     10  N   UNL     1      34.987 -23.997 -10.734  0.00  0.00    -0.170 NA
ATOM     11  C   UNL     1      34.742 -23.998 -12.060  0.00  0.00    +0.149 C 
ATOM     12  C   UNL     1      36.939 -24.196 -12.632  0.00  0.00    +0.147 C 
ATOM     13  C   UNL     1      37.316 -24.205 -11.304  0.00  0.00    +0.055 C 
ATOM     14  C   UNL     1      36.288 -24.102 -10.390  0.00  0.00    +0.114 C 
ATOM     15  H   UNL     1      32.766 -23.823 -11.703  0.00  0.00    +0.165 HD
BRANCH  12  17
ATOM     16  N   UNL     1      38.784 -23.467 -15.787  0.00  0.00    -0.242 NA
ATOM     17  C   UNL     1      37.918 -24.296 -13.687  0.00  0.00    +0.050 C 
ATOM     18  C   UNL     1      38.914 -25.267 -13.652  0.00  0.00    +0.006 C 
ATOM     19  C   UNL     1      37.897 -23.428 -14.767  0.00  0.00    +0.101 C 
ATOM     20  C   UNL     1      39.844 -25.338 -14.683  0.00  0.00    +0.021 C 
ATOM     21  C   UNL     1      39.736 -24.424 -15.718  0.00  0.00    +0.099 C 
ENDBRANCH  12  17
ENDBRANCH   2   8
BRANCH   1  23
ATOM     22  O   UNL     1      33.689 -23.953 -18.704  0.00  0.00    -0.270 OA
ATOM     23  N   UNL     1      33.333 -22.339 -17.038  0.00  0.00    -0.280 N 
ATOM     24  C   UNL     1      33.764 -22.783 -18.297  0.00  0.00    +0.249 C 
ATOM     25  H   UNL     1      33.458 -21.380 -16.857  0.00  0.00    +0.155 HD
BRANCH  24  31
ATOM     26  C   UNL     1      35.501 -19.847 -20.798  0.00  0.00    -0.043 C 
ATOM     27  C   UNL     1      34.120 -19.938 -20.710  0.00  0.00    -0.006 C 
ATOM     28  C   UNL     1      36.322 -20.705 -20.078  0.00  0.00    -0.006 C 
ATOM     29  C   UNL     1      33.547 -20.905 -19.885  0.00  0.00    +0.004 C 
ATOM     30  C   UNL     1      35.749 -21.672 -19.253  0.00  0.00    +0.004 C 
ATOM     31  C   UNL     1      34.362 -21.773 -19.156  0.00  0.00    +0.054 C 
BRANCH  26  32
ATOM     32  C   UNL     1      36.121 -18.802 -21.687  0.00  0.00    -0.050 C 
BRANCH  32  33
ATOM     33  N   UNL     1      35.170 -17.745 -22.030  0.00  0.00    +0.387 N 
ATOM     34  N   UNL     1      34.479 -15.021 -22.708  0.00  0.00    +0.383 N 
ATOM     35  C   UNL     1      35.461 -17.194 -23.359  0.00  0.00    -0.100 C 
ATOM     36  C   UNL     1      35.186 -16.682 -21.019  0.00  0.00    -0.100 C 
ATOM     37  C   UNL     1      34.464 -16.085 -23.718  0.00  0.00    -0.101 C 
ATOM     38  C   UNL     1      34.192 -15.572 -21.377  0.00  0.00    -0.101 C 
ATOM     39  C   UNL     1      33.528 -13.967 -23.050  0.00  0.00    -0.101 C 
ATOM     40  H   UNL     1      34.237 -18.157 -22.049  0.00  0.00    -0.079 HD
ATOM     41  H   UNL     1      35.412 -14.609 -22.688  0.00  0.00    -0.080 HD
ENDBRANCH  32  33
ENDBRANCH  26  32
ENDBRANCH  24  31
ENDBRANCH   1  23
TORSDOF 6
ENDMDL
MODEL 3
REMARK VINA RESULT:     -10.9      2.143      5.378
REMARK  Name = 5291
REMARK  6 active torsions:
REMARK  status: ('A' for Active; 'I' for Inactive)
REMARK    1  A    between atoms: C_1  and  N_23
REMARK    2  A    between atoms: C_2  and  N_8
REMARK    3  A    between atoms: C_12  and  C_17
REMARK    4  A    between atoms: C_24  and  C_31
REMARK    5  A    between atoms: C_26  and  C_32
REMARK    6  A    between atoms: C_32  and  N_33
REMARK                            x       y       z     vdW  Elec       q    Type
REMARK                         _______ _______ _______ _____ _____    ______ ____
ROOT
ATOM      1  C   UNL     1      34.221 -20.302 -20.190  0.00  0.00    +0.052 C 
ATOM      2  C   UNL     1      33.091 -21.868 -18.769  0.00  0.00    +0.055 C 
ATOM      3  C   UNL     1      33.099 -20.657 -19.460  0.00  0.00    +0.030 C 
ATOM      4  C   UNL     1      34.205 -22.706 -18.818  0.00  0.00    -0.008 C 
ATOM      5  C   UNL     1      35.334 -21.122 -20.250  0.00  0.00    +0.014 C 
ATOM      6  C   UNL     1      35.327 -22.333 -19.557  0.00  0.00    -0.002 C 
ATOM      7  C   UNL     1      34.225 -24.009 -18.086  0.00  0.00    +0.032 C 
ENDROOT
BRANCH   2   8
ATOM      8  N   UNL     1      31.947 -22.232 -18.024  0.00  0.00    -0.248 N 
ATOM      9  N   UNL     1      32.903 -22.926 -15.996  0.00  0.00    -0.337 NA
ATOM     10  N   UNL     1      30.516 -22.978 -16.321  0.00  0.00    -0.170 NA
ATOM     11  C   UNL     1      31.781 -22.735 -16.721  0.00  0.00    +0.149 C 
ATOM     12  C   UNL     1      32.708 -23.410 -14.752  0.00  0.00    +0.147 C 
ATOM     13  C   UNL     1      31.464 -23.698 -14.228  0.00  0.00    +0.055 C 
ATOM     14  C   UNL     1      30.394 -23.460 -15.066  0.00  0.00    +0.114 C 
ATOM     15  H   UNL     1      31.101 -22.108 -18.512  0.00  0.00    +0.165 HD
BRANCH  12  17
ATOM     16  N   UNL     1      34.945 -24.419 -11.947  0.00  0.00    -0.242 NA
ATOM     17  C   UNL     1      33.908 -23.613 -13.978  0.00  0.00    +0.050 C 
ATOM     18  C   UNL     1      35.153 -23.228 -14.468  0.00  0.00    +0.006 C 
ATOM     19  C   UNL     1      33.860 -24.199 -12.723  0.00  0.00    +0.101 C 
ATOM     20  C   UNL     1      36.291 -23.437 -13.699  0.00  0.00    +0.021 C 
ATOM     21  C   UNL     1      36.135 -24.031 -12.457  0.00  0.00    +0.099 C 
ENDBRANCH  12  17
ENDBRANCH   2   8
BRANCH   1  23
ATOM     22  O   UNL     1      36.430 -18.315 -20.595  0.00  0.00    -0.270 OA
ATOM     23  N   UNL     1      34.229 -19.073 -20.893  0.00  0.00    -0.280 N 
ATOM     24  C   UNL     1      35.288 -18.169 -21.060  0.00  0.00    +0.249 C 
ATOM     25  H   UNL     1      33.379 -18.819 -21.321  0.00  0.00    +0.155 HD
BRANCH  24  31
ATOM     26  C   UNL     1      34.395 -14.671 -23.263  0.00  0.00    -0.043 C 
ATOM     27  C   UNL     1      34.323 -14.642 -21.878  0.00  0.00    -0.006 C 
ATOM     28  C   UNL     1      34.755 -15.829 -23.937  0.00  0.00    -0.006 C 
ATOM     29  C   UNL     1      34.618 -15.795 -21.152  0.00  0.00    +0.004 C 
ATOM     30  C   UNL     1      35.050 -16.983 -23.211  0.00  0.00    +0.004 C 
ATOM     31  C   UNL     1      34.982 -16.966 -21.818  0.00  0.00    +0.054 C 
BRANCH  26  32
ATOM     32  C   UNL     1      34.078 -13.426 -24.049  0.00  0.00    -0.050 C 
BRANCH  32  33
ATOM     33  N   UNL     1      33.777 -12.292 -23.175  0.00  0.00    +0.387 N 
ATOM     34  N   UNL     1      32.229  -9.977 -22.398  0.00  0.00    +0.383 N 
ATOM     35  C   UNL     1      32.443 -12.433 -22.580  0.00  0.00    -0.100 C 
ATOM     36  C   UNL     1      33.880 -11.026 -23.910  0.00  0.00    -0.100 C 
ATOM     37  C   UNL     1      32.127 -11.245 -21.664  0.00  0.00    -0.101 C 
ATOM     38  C   UNL     1      33.563  -9.837 -22.996  0.00  0.00    -0.101 C 
ATOM     39  C   UNL     1      31.930  -8.846 -21.524  0.00  0.00    -0.101 C 
ATOM     40  H   UNL     1      34.466 -12.285 -22.423  0.00  0.00    -0.079 HD
ATOM     41  H   UNL     1      31.540  -9.985 -23.150  0.00  0.00    -0.080 HD
ENDBRANCH  32  33
ENDBRANCH  26  32
ENDBRANCH  24  31
ENDBRANCH   1  23
TORSDOF 6
ENDMDL
