MODEL 1
REMARK VINA RESULT:     -12.2      0.000      0.000
REMARK  Name = 10430360
REMARK  6 active torsions:
REMARK  status: ('A' for Active; 'I' for Inactive)
REMARK    1  A    between atoms: C_4  and  C_18
REMARK    2  A    between atoms: C_7  and  C_14
REMARK    3  A    between atoms: C_17  and  O_23
REMARK    4  A    between atoms: O_23  and  C_24
REMARK    5  A    between atoms: C_24  and  C_25
REMARK    6  A    between atoms: C_25  and  N_26
REMARK                            x       y       z     vdW  Elec       q    Type
REMARK                         _______ _______ _______ _____ _____    ______ ____
ROOT
ATOM      1  N   UNL     1      33.923 -24.891 -13.450  0.00  0.00    -0.276 N 
ATOM      2  N   UNL     1      34.868 -24.373 -14.255  0.00  0.00    -0.173 NA
ATOM      3  C   UNL     1      32.766 -23.872 -15.010  0.00  0.00    +0.036 A 
ATOM      4  C   UNL     1      34.162 -23.752 -15.207  0.00  0.00    +0.102 A 
ATOM      5  C   UNL     1      32.641 -24.626 -13.849  0.00  0.00    +0.075 A 
ATOM      6  C   UNL     1      31.608 -23.435 -15.676  0.00  0.00    +0.006 C 
ATOM      7  C   UNL     1      30.360 -23.777 -15.140  0.00  0.00    +0.033 C 
ATOM      8  C   UNL     1      31.407 -24.977 -13.299  0.00  0.00    +0.019 C 
ATOM      9  C   UNL     1      30.263 -24.535 -13.972  0.00  0.00    +0.004 C 
ATOM     10  H   UNL     1      34.136 -25.414 -12.645  0.00  0.00    +0.189 HD
ENDROOT
BRANCH   7  14
ATOM     11  N   UNL     1      28.557 -24.056 -16.793  0.00  0.00    -0.218 N 
ATOM     12  N   UNL     1      28.485 -22.236 -15.586  0.00  0.00    -0.206 NA
ATOM     13  N   UNL     1      27.460 -23.430 -17.246  0.00  0.00    -0.157 NA
ATOM     14  C   UNL     1      29.157 -23.339 -15.808  0.00  0.00    +0.149 C 
ATOM     15  C   UNL     1      27.461 -22.335 -16.484  0.00  0.00    +0.218 C 
ATOM     16  H   UNL     1      28.883 -24.922 -17.130  0.00  0.00    +0.176 HD
ENDBRANCH   7  14
BRANCH   4  18
ATOM     17  C   UNL     1      34.824 -22.147 -18.498  0.00  0.00    +0.138 C 
ATOM     18  C   UNL     1      34.833 -23.062 -16.272  0.00  0.00    +0.022 C 
ATOM     19  C   UNL     1      34.167 -22.816 -17.473  0.00  0.00    +0.038 C 
ATOM     20  C   UNL     1      36.137 -21.720 -18.340  0.00  0.00    +0.037 C 
ATOM     21  C   UNL     1      36.150 -22.637 -16.105  0.00  0.00    +0.002 C 
ATOM     22  C   UNL     1      36.803 -21.965 -17.139  0.00  0.00    +0.003 C 
BRANCH  17  23
ATOM     23  O   UNL     1      34.170 -21.904 -19.678  0.00  0.00    -0.478 OA
BRANCH  23  24
ATOM     24  C   UNL     1      33.980 -20.541 -20.037  0.00  0.00    +0.183 C 
BRANCH  24  25
ATOM     25  C   UNL     1      35.103 -20.122 -20.973  0.00  0.00    -0.029 C 
BRANCH  25  26
ATOM     26  N   UNL     1      34.740 -18.908 -21.703  0.00  0.00    +0.389 N 
ATOM     27  C   UNL     1      35.256 -17.718 -21.013  0.00  0.00    -0.077 C 
ATOM     28  C   UNL     1      35.229 -18.974 -23.087  0.00  0.00    -0.077 C 
ATOM     29  C   UNL     1      34.843 -16.436 -21.739  0.00  0.00    -0.023 C 
ATOM     30  C   UNL     1      34.815 -17.734 -23.880  0.00  0.00    -0.023 C 
ATOM     31  C   UNL     1      35.288 -16.455 -23.197  0.00  0.00    -0.004 C 
ATOM     32  H   UNL     1      33.722 -18.836 -21.734  0.00  0.00    -0.080 HD
ENDBRANCH  25  26
ENDBRANCH  24  25
ENDBRANCH  23  24
ENDBRANCH  17  23
ENDBRANCH   4  18
TORSDOF 6
ENDMDL
MODEL 2
REMARK VINA RESULT:     -12.1      2.014      4.638
REMARK  Name = 10430360
REMARK  6 active torsions:
REMARK  status: ('A' for Active; 'I' for Inactive)
REMARK    1  A    between atoms: C_4  and  C_18
REMARK    2  A    between atoms: C_7  and  C_14
REMARK    3  A    between atoms: C_17  and  O_23
REMARK    4  A    between atoms: O_23  and  C_24
REMARK    5  A    between atoms: C_24  and  C_25
REMARK    6  A    between atoms: C_25  and  N_26
REMARK                            x       y       z     vdW  Elec       q    Type
REMARK                         _______ _______ _______ _____ _____    ______ ____
ROOT
ATOM      1  N   UNL     1      31.464 -23.006 -16.773  0.00  0.00    -0.276 N 
ATOM      2  N   UNL     1      32.132 -22.402 -17.770  0.00  0.00    -0.173 NA
ATOM      3  C   UNL     1      33.566 -23.208 -16.179  0.00  0.00    +0.036 A 
ATOM      4  C   UNL     1      33.414 -22.524 -17.408  0.00  0.00    +0.102 A 
ATOM      5  C   UNL     1      32.267 -23.511 -15.786  0.00  0.00    +0.075 A 
ATOM      6  C   UNL     1      34.641 -23.599 -15.363  0.00  0.00    +0.006 C 
ATOM      7  C   UNL     1      34.363 -24.286 -14.175  0.00  0.00    +0.033 C 
ATOM      8  C   UNL     1      31.969 -24.195 -14.606  0.00  0.00    +0.019 C 
ATOM      9  C   UNL     1      33.050 -24.577 -13.804  0.00  0.00    +0.004 C 
ATOM     10  H   UNL     1      30.483 -23.079 -16.754  0.00  0.00    +0.189 HD
ENDROOT
BRANCH   7  14
ATOM     11  N   UNL     1      35.282 -25.035 -12.018  0.00  0.00    -0.218 N 
ATOM     12  N   UNL     1      36.718 -24.802 -13.648  0.00  0.00    -0.206 NA
ATOM     13  N   UNL     1      36.450 -25.376 -11.451  0.00  0.00    -0.157 NA
ATOM     14  C   UNL     1      35.453 -24.696 -13.322  0.00  0.00    +0.149 C 
ATOM     15  C   UNL     1      37.286 -25.218 -12.478  0.00  0.00    +0.218 C 
ATOM     16  H   UNL     1      34.416 -25.032 -11.549  0.00  0.00    +0.176 HD
ENDBRANCH   7  14
BRANCH   4  18
ATOM     17  C   UNL     1      35.146 -20.777 -20.201  0.00  0.00    +0.138 C 
ATOM     18  C   UNL     1      34.456 -21.992 -18.240  0.00  0.00    +0.022 C 
ATOM     19  C   UNL     1      34.132 -21.290 -19.401  0.00  0.00    +0.038 C 
ATOM     20  C   UNL     1      36.481 -20.958 -19.856  0.00  0.00    +0.037 C 
ATOM     21  C   UNL     1      35.792 -22.177 -17.888  0.00  0.00    +0.002 C 
ATOM     22  C   UNL     1      36.805 -21.660 -18.695  0.00  0.00    +0.003 C 
BRANCH  17  23
ATOM     23  O   UNL     1      34.829 -20.086 -21.341  0.00  0.00    -0.478 OA
BRANCH  23  24
ATOM     24  C   UNL     1      34.946 -18.670 -21.286  0.00  0.00    +0.183 C 
BRANCH  24  25
ATOM     25  C   UNL     1      36.058 -18.236 -22.226  0.00  0.00    -0.029 C 
BRANCH  25  26
ATOM     26  N   UNL     1      35.690 -17.005 -22.927  0.00  0.00    +0.389 N 
ATOM     27  C   UNL     1      34.941 -17.315 -24.153  0.00  0.00    -0.077 C 
ATOM     28  C   UNL     1      34.920 -16.121 -22.042  0.00  0.00    -0.077 C 
ATOM     29  C   UNL     1      34.591 -16.041 -24.922  0.00  0.00    -0.023 C 
ATOM     30  C   UNL     1      34.569 -14.807 -22.743  0.00  0.00    -0.023 C 
ATOM     31  C   UNL     1      33.821 -15.058 -24.048  0.00  0.00    -0.004 C 
ATOM     32  H   UNL     1      36.543 -16.514 -23.196  0.00  0.00    -0.080 HD
ENDBRANCH  25  26
ENDBRANCH  24  25
ENDBRANCH  23  24
ENDBRANCH  17  23
ENDBRANCH   4  18
TORSDOF 6
ENDMDL
MODEL 3
REMARK VINA RESULT:     -11.8      6.719     11.821
REMARK  Name = 10430360
REMARK  6 active torsions:
REMARK  status: ('A' for Active; 'I' for Inactive)
REMARK    1  A    between atoms: C_4  and  C_18
REMARK    2  A    between atoms: C_7  and  C_14
REMARK    3  A    between atoms: C_17  and  O_23
REMARK    4  A    between atoms: O_23  and  C_24
REMARK    5  A    between atoms: C_24  and  C_25
REMARK    6  A    between atoms: C_25  and  N_26
REMARK                            x       y       z     vdW  Elec       q    Type
REMARK                         _______ _______ _______ _____ _____    ______ ____
ROOT
ATOM      1  N   UNL     1      33.731 -14.300 -25.231  0.00  0.00    -0.276 N 
ATOM      2  N   UNL     1      33.161 -13.394 -24.419  0.00  0.00    -0.173 NA
ATOM      3  C   UNL     1      33.929 -15.199 -23.241  0.00  0.00    +0.036 A 
ATOM      4  C   UNL     1      33.281 -13.942 -23.204  0.00  0.00    +0.102 A 
ATOM      5  C   UNL     1      34.212 -15.407 -24.586  0.00  0.00    +0.075 A 
ATOM      6  C   UNL     1      34.303 -16.174 -22.300  0.00  0.00    +0.006 C 
ATOM      7  C   UNL     1      34.953 -17.328 -22.756  0.00  0.00    +0.033 C 
ATOM      8  C   UNL     1      34.858 -16.550 -25.061  0.00  0.00    +0.019 C 
ATOM      9  C   UNL     1      35.224 -17.511 -24.112  0.00  0.00    +0.004 C 
ATOM     10  H   UNL     1      33.796 -14.177 -26.205  0.00  0.00    +0.189 HD
ENDROOT
BRANCH   7  14
ATOM     11  N   UNL     1      36.491 -18.270 -21.080  0.00  0.00    -0.218 N 
ATOM     12  N   UNL     1      34.696 -19.441 -21.508  0.00  0.00    -0.206 NA
ATOM     13  N   UNL     1      36.620 -19.337 -20.276  0.00  0.00    -0.157 NA
ATOM     14  C   UNL     1      35.345 -18.343 -21.806  0.00  0.00    +0.149 C 
ATOM     15  C   UNL     1      35.510 -20.014 -20.572  0.00  0.00    +0.218 C 
ATOM     16  H   UNL     1      37.140 -17.533 -21.135  0.00  0.00    +0.176 HD
ENDBRANCH   7  14
BRANCH   4  18
ATOM     17  C   UNL     1      31.916 -11.262 -21.013  0.00  0.00    +0.138 C 
ATOM     18  C   UNL     1      32.781 -13.257 -22.046  0.00  0.00    +0.022 C 
ATOM     19  C   UNL     1      32.400 -11.918 -22.139  0.00  0.00    +0.038 C 
ATOM     20  C   UNL     1      31.809 -11.925 -19.796  0.00  0.00    +0.037 C 
ATOM     21  C   UNL     1      32.676 -13.929 -20.829  0.00  0.00    +0.002 C 
ATOM     22  C   UNL     1      32.190 -13.264 -19.704  0.00  0.00    +0.003 C 
BRANCH  17  23
ATOM     23  O   UNL     1      31.540  -9.947 -21.104  0.00  0.00    -0.478 OA
BRANCH  23  24
ATOM     24  C   UNL     1      31.883  -9.262 -22.302  0.00  0.00    +0.183 C 
BRANCH  24  25
ATOM     25  C   UNL     1      31.702  -7.770 -22.080  0.00  0.00    -0.029 C 
BRANCH  25  26
ATOM     26  N   UNL     1      32.830  -7.024 -22.639  0.00  0.00    +0.389 N 
ATOM     27  C   UNL     1      33.990  -7.907 -22.822  0.00  0.00    -0.077 C 
ATOM     28  C   UNL     1      32.446  -6.383 -23.905  0.00  0.00    -0.077 C 
ATOM     29  C   UNL     1      35.194  -7.132 -23.360  0.00  0.00    -0.023 C 
ATOM     30  C   UNL     1      33.599  -5.558 -24.478  0.00  0.00    -0.023 C 
ATOM     31  C   UNL     1      34.853  -6.408 -24.657  0.00  0.00    -0.004 C 
ATOM     32  H   UNL     1      33.094  -6.289 -21.983  0.00  0.00    -0.080 HD
ENDBRANCH  25  26
ENDBRANCH  24  25
ENDBRANCH  23  24
ENDBRANCH  17  23
ENDBRANCH   4  18
TORSDOF 6
ENDMDL
MODEL 4
REMARK VINA RESULT:     -11.6      5.582     11.629
REMARK  Name = 10430360
REMARK  6 active torsions:
REMARK  status: ('A' for Active; 'I' for Inactive)
REMARK    1  A    between atoms: C_4  and  C_18
REMARK    2  A    between atoms: C_7  and  C_14
REMARK    3  A    between atoms: C_17  and  O_23
REMARK    4  A    between atoms: O_23  and  C_24
REMARK    5  A    between atoms: C_24  and  C_25
REMARK    6  A    between atoms: C_25  and  N_26
REMARK                            x       y       z     vdW  Elec       q    Type
REMARK                         _______ _______ _______ _____ _____    ______ ____
ROOT
ATOM      1  N   UNL     1      31.995 -13.750 -19.625  0.00  0.00    -0.276 N 
ATOM      2  N   UNL     1      32.525 -14.664 -20.455  0.00  0.00    -0.173 NA
ATOM      3  C   UNL     1      32.510 -12.584 -21.409  0.00  0.00    +0.036 A 
ATOM      4  C   UNL     1      32.839 -13.952 -21.544  0.00  0.00    +0.102 A 
ATOM      5  C   UNL     1      31.956 -12.482 -20.138  0.00  0.00    +0.075 A 
ATOM      6  C   UNL     1      32.614 -11.432 -22.208  0.00  0.00    +0.006 C 
ATOM      7  C   UNL     1      32.153 -10.215 -21.691  0.00  0.00    +0.033 C 
ATOM      8  C   UNL     1      31.491 -11.279 -19.604  0.00  0.00    +0.019 C 
ATOM      9  C   UNL     1      31.602 -10.142 -20.411  0.00  0.00    +0.004 C 
ATOM     10  H   UNL     1      31.662 -13.975 -18.726  0.00  0.00    +0.189 HD
ENDROOT
BRANCH   7  14
ATOM     11  N   UNL     1      33.438  -8.471 -22.861  0.00  0.00    -0.218 N 
ATOM     12  N   UNL     1      31.262  -8.308 -22.977  0.00  0.00    -0.206 NA
ATOM     13  N   UNL     1      33.251  -7.369 -23.604  0.00  0.00    -0.157 NA
ATOM     14  C   UNL     1      32.250  -9.020 -22.496  0.00  0.00    +0.149 C 
ATOM     15  C   UNL     1      31.919  -7.313 -23.644  0.00  0.00    +0.218 C 
ATOM     16  H   UNL     1      34.319  -8.834 -22.616  0.00  0.00    +0.176 HD
ENDBRANCH   7  14
BRANCH   4  18
ATOM     17  C   UNL     1      34.850 -16.316 -23.598  0.00  0.00    +0.138 C 
ATOM     18  C   UNL     1      33.445 -14.592 -22.678  0.00  0.00    +0.022 C 
ATOM     19  C   UNL     1      34.268 -15.703 -22.495  0.00  0.00    +0.038 C 
ATOM     20  C   UNL     1      34.621 -15.833 -24.882  0.00  0.00    +0.037 C 
ATOM     21  C   UNL     1      33.210 -14.102 -23.962  0.00  0.00    +0.002 C 
ATOM     22  C   UNL     1      33.797 -14.722 -25.065  0.00  0.00    +0.003 C 
BRANCH  17  23
ATOM     23  O   UNL     1      35.658 -17.409 -23.419  0.00  0.00    -0.478 OA
BRANCH  23  24
ATOM     24  C   UNL     1      35.110 -18.499 -22.689  0.00  0.00    +0.183 C 
BRANCH  24  25
ATOM     25  C   UNL     1      36.088 -18.893 -21.593  0.00  0.00    -0.029 C 
BRANCH  25  26
ATOM     26  N   UNL     1      35.401 -19.619 -20.526  0.00  0.00    +0.389 N 
ATOM     27  C   UNL     1      34.027 -19.950 -20.929  0.00  0.00    -0.077 C 
ATOM     28  C   UNL     1      36.153 -20.828 -20.160  0.00  0.00    -0.077 C 
ATOM     29  C   UNL     1      33.279 -20.668 -19.805  0.00  0.00    -0.023 C 
ATOM     30  C   UNL     1      35.474 -21.574 -19.010  0.00  0.00    -0.023 C 
ATOM     31  C   UNL     1      34.027 -21.915 -19.348  0.00  0.00    -0.004 C 
ATOM     32  H   UNL     1      35.351 -19.020 -19.701  0.00  0.00    -0.080 HD
ENDBRANCH  25  26
ENDBRANCH  24  25
ENDBRANCH  23  24
ENDBRANCH  17  23
ENDBRANCH   4  18
TORSDOF 6
ENDMDL
MODEL 5
REMARK VINA RESULT:     -11.5      3.301      5.959
REMARK  Name = 10430360
REMARK  6 active torsions:
REMARK  status: ('A' for Active; 'I' for Inactive)
REMARK    1  A    between atoms: C_4  and  C_18
REMARK    2  A    between atoms: C_7  and  C_14
REMARK    3  A    between atoms: C_17  and  O_23
REMARK    4  A    between atoms: O_23  and  C_24
REMARK    5  A    between atoms: C_24  and  C_25
REMARK    6  A    between atoms: C_25  and  N_26
REMARK                            x       y       z     vdW  Elec       q    Type
REMARK                         _______ _______ _______ _____ _____    ______ ____
ROOT
ATOM      1  N   UNL     1      32.629 -24.940 -13.779  0.00  0.00    -0.276 N 
ATOM      2  N   UNL     1      33.620 -24.505 -14.576  0.00  0.00    -0.173 NA
ATOM      3  C   UNL     1      31.583 -23.755 -15.300  0.00  0.00    +0.036 A 
ATOM      4  C   UNL     1      32.982 -23.782 -15.504  0.00  0.00    +0.102 A 
ATOM      5  C   UNL     1      31.381 -24.525 -14.160  0.00  0.00    +0.075 A 
ATOM      6  C   UNL     1      30.477 -23.175 -15.943  0.00  0.00    +0.006 C 
ATOM      7  C   UNL     1      29.201 -23.393 -15.407  0.00  0.00    +0.033 C 
ATOM      8  C   UNL     1      30.118 -24.755 -13.610  0.00  0.00    +0.019 C 
ATOM      9  C   UNL     1      29.027 -24.171 -14.261  0.00  0.00    +0.004 C 
ATOM     10  H   UNL     1      32.787 -25.508 -12.991  0.00  0.00    +0.189 HD
ENDROOT
BRANCH   7  14
ATOM     11  N   UNL     1      26.946 -22.407 -15.371  0.00  0.00    -0.218 N 
ATOM     12  N   UNL     1      27.892 -22.578 -17.333  0.00  0.00    -0.206 NA
ATOM     13  N   UNL     1      26.024 -21.899 -16.203  0.00  0.00    -0.157 NA
ATOM     14  C   UNL     1      28.050 -22.807 -16.053  0.00  0.00    +0.149 C 
ATOM     15  C   UNL     1      26.644 -22.025 -17.377  0.00  0.00    +0.218 C 
ATOM     16  H   UNL     1      26.836 -22.479 -14.396  0.00  0.00    +0.176 HD
ENDBRANCH   7  14
BRANCH   4  18
ATOM     17  C   UNL     1      35.786 -22.248 -17.411  0.00  0.00    +0.138 C 
ATOM     18  C   UNL     1      33.720 -23.138 -16.554  0.00  0.00    +0.022 C 
ATOM     19  C   UNL     1      35.079 -22.871 -16.389  0.00  0.00    +0.038 C 
ATOM     20  C   UNL     1      35.152 -21.886 -18.594  0.00  0.00    +0.037 C 
ATOM     21  C   UNL     1      33.077 -22.779 -17.738  0.00  0.00    +0.002 C 
ATOM     22  C   UNL     1      33.792 -22.153 -18.759  0.00  0.00    +0.003 C 
BRANCH  17  23
ATOM     23  O   UNL     1      37.121 -21.986 -17.251  0.00  0.00    -0.478 OA
BRANCH  23  24
ATOM     24  C   UNL     1      37.621 -21.993 -15.919  0.00  0.00    +0.183 C 
BRANCH  24  25
ATOM     25  C   UNL     1      38.581 -23.161 -15.764  0.00  0.00    -0.029 C 
BRANCH  25  26
ATOM     26  N   UNL     1      38.014 -24.182 -14.883  0.00  0.00    +0.389 N 
ATOM     27  C   UNL     1      39.030 -25.185 -14.535  0.00  0.00    -0.077 C 
ATOM     28  C   UNL     1      37.445 -23.562 -13.678  0.00  0.00    -0.077 C 
ATOM     29  C   UNL     1      38.440 -26.286 -13.653  0.00  0.00    -0.023 C 
ATOM     30  C   UNL     1      36.803 -24.611 -12.768  0.00  0.00    -0.023 C 
ATOM     31  C   UNL     1      37.796 -25.707 -12.399  0.00  0.00    -0.004 C 
ATOM     32  H   UNL     1      37.258 -24.658 -15.377  0.00  0.00    -0.080 HD
ENDBRANCH  25  26
ENDBRANCH  24  25
ENDBRANCH  23  24
ENDBRANCH  17  23
ENDBRANCH   4  18
TORSDOF 6
ENDMDL
MODEL 6
REMARK VINA RESULT:     -11.4      2.641      5.493
REMARK  Name = 10430360
REMARK  6 active torsions:
REMARK  status: ('A' for Active; 'I' for Inactive)
REMARK    1  A    between atoms: C_4  and  C_18
REMARK    2  A    between atoms: C_7  and  C_14
REMARK    3  A    between atoms: C_17  and  O_23
REMARK    4  A    between atoms: O_23  and  C_24
REMARK    5  A    between atoms: C_24  and  C_25
REMARK    6  A    between atoms: C_25  and  N_26
REMARK                            x       y       z     vdW  Elec       q    Type
REMARK                         _______ _______ _______ _____ _____    ______ ____
ROOT
ATOM      1  N   UNL     1      32.267 -22.666 -17.804  0.00  0.00    -0.276 N 
ATOM      2  N   UNL     1      32.775 -21.922 -18.801  0.00  0.00    -0.173 NA
ATOM      3  C   UNL     1      34.412 -22.596 -17.352  0.00  0.00    +0.036 A 
ATOM      4  C   UNL     1      34.083 -21.879 -18.526  0.00  0.00    +0.102 A 
ATOM      5  C   UNL     1      33.199 -23.101 -16.900  0.00  0.00    +0.075 A 
ATOM      6  C   UNL     1      35.585 -22.872 -16.628  0.00  0.00    +0.006 C 
ATOM      7  C   UNL     1      35.487 -23.651 -15.469  0.00  0.00    +0.033 C 
ATOM      8  C   UNL     1      33.080 -23.880 -15.747  0.00  0.00    +0.019 C 
ATOM      9  C   UNL     1      34.256 -24.146 -15.038  0.00  0.00    +0.004 C 
ATOM     10  H   UNL     1      31.309 -22.878 -17.730  0.00  0.00    +0.189 HD
ENDROOT
BRANCH   7  14
ATOM     11  N   UNL     1      37.923 -23.938 -15.256  0.00  0.00    -0.218 N 
ATOM     12  N   UNL     1      36.753 -24.254 -13.439  0.00  0.00    -0.206 NA
ATOM     13  N   UNL     1      38.854 -24.245 -14.340  0.00  0.00    -0.157 NA
ATOM     14  C   UNL     1      36.680 -23.946 -14.710  0.00  0.00    +0.149 C 
ATOM     15  C   UNL     1      38.095 -24.427 -13.258  0.00  0.00    +0.218 C 
ATOM     16  H   UNL     1      38.117 -23.732 -16.199  0.00  0.00    +0.176 HD
ENDBRANCH   7  14
BRANCH   4  18
ATOM     17  C   UNL     1      35.354 -19.691 -21.255  0.00  0.00    +0.138 C 
ATOM     18  C   UNL     1      34.982 -21.162 -19.386  0.00  0.00    +0.022 C 
ATOM     19  C   UNL     1      34.478 -20.382 -20.427  0.00  0.00    +0.038 C 
ATOM     20  C   UNL     1      36.728 -19.769 -21.056  0.00  0.00    +0.037 C 
ATOM     21  C   UNL     1      36.358 -21.245 -19.180  0.00  0.00    +0.002 C 
ATOM     22  C   UNL     1      37.232 -20.548 -20.015  0.00  0.00    +0.003 C 
BRANCH  17  23
ATOM     23  O   UNL     1      34.860 -18.924 -22.277  0.00  0.00    -0.478 OA
BRANCH  23  24
ATOM     24  C   UNL     1      35.692 -17.873 -22.751  0.00  0.00    +0.183 C 
BRANCH  24  25
ATOM     25  C   UNL     1      35.208 -16.560 -22.157  0.00  0.00    -0.029 C 
BRANCH  25  26
ATOM     26  N   UNL     1      34.863 -15.611 -23.215  0.00  0.00    +0.389 N 
ATOM     27  C   UNL     1      34.532 -16.323 -24.458  0.00  0.00    -0.077 C 
ATOM     28  C   UNL     1      33.756 -14.744 -22.788  0.00  0.00    -0.077 C 
ATOM     29  C   UNL     1      34.216 -15.342 -25.588  0.00  0.00    -0.023 C 
ATOM     30  C   UNL     1      33.416 -13.712 -23.864  0.00  0.00    -0.023 C 
ATOM     31  C   UNL     1      33.098 -14.383 -25.196  0.00  0.00    -0.004 C 
ATOM     32  H   UNL     1      35.673 -15.018 -23.399  0.00  0.00    -0.080 HD
ENDBRANCH  25  26
ENDBRANCH  24  25
ENDBRANCH  23  24
ENDBRANCH  17  23
ENDBRANCH   4  18
TORSDOF 6
ENDMDL
MODEL 7
REMARK VINA RESULT:     -11.0      2.855      5.804
REMARK  Name = 10430360
REMARK  6 active torsions:
REMARK  status: ('A' for Active; 'I' for Inactive)
REMARK    1  A    between atoms: C_4  and  C_18
REMARK    2  A    between atoms: C_7  and  C_14
REMARK    3  A    between atoms: C_17  and  O_23
REMARK    4  A    between atoms: O_23  and  C_24
REMARK    5  A    between atoms: C_24  and  C_25
REMARK    6  A    between atoms: C_25  and  N_26
REMARK                            x       y       z     vdW  Elec       q    Type
REMARK                         _______ _______ _______ _____ _____    ______ ____
ROOT
ATOM      1  N   UNL     1      33.668 -23.713 -13.083  0.00  0.00    -0.276 N 
ATOM      2  N   UNL     1      33.293 -23.184 -14.260  0.00  0.00    -0.173 NA
ATOM      3  C   UNL     1      35.418 -24.027 -14.368  0.00  0.00    +0.036 A 
ATOM      4  C   UNL     1      34.361 -23.375 -15.044  0.00  0.00    +0.102 A 
ATOM      5  C   UNL     1      34.934 -24.236 -13.081  0.00  0.00    +0.075 A 
ATOM      6  C   UNL     1      36.715 -24.459 -14.693  0.00  0.00    +0.006 C 
ATOM      7  C   UNL     1      37.479 -25.088 -13.703  0.00  0.00    +0.033 C 
ATOM      8  C   UNL     1      35.678 -24.861 -12.079  0.00  0.00    +0.019 C 
ATOM      9  C   UNL     1      36.968 -25.285 -12.419  0.00  0.00    +0.004 C 
ATOM     10  H   UNL     1      33.084 -23.723 -12.292  0.00  0.00    +0.189 HD
ENDROOT
BRANCH   7  14
ATOM     11  N   UNL     1      39.410 -25.306 -15.213  0.00  0.00    -0.218 N 
ATOM     12  N   UNL     1      39.626 -26.211 -13.236  0.00  0.00    -0.206 NA
ATOM     13  N   UNL     1      40.646 -25.829 -15.247  0.00  0.00    -0.157 NA
ATOM     14  C   UNL     1      38.814 -25.539 -14.015  0.00  0.00    +0.149 C 
ATOM     15  C   UNL     1      40.728 -26.365 -14.028  0.00  0.00    +0.218 C 
ATOM     16  H   UNL     1      38.992 -24.818 -15.959  0.00  0.00    +0.176 HD
ENDBRANCH   7  14
BRANCH   4  18
ATOM     17  C   UNL     1      35.473 -21.984 -18.312  0.00  0.00    +0.138 C 
ATOM     18  C   UNL     1      34.344 -22.936 -16.411  0.00  0.00    +0.022 C 
ATOM     19  C   UNL     1      35.498 -22.406 -16.988  0.00  0.00    +0.038 C 
ATOM     20  C   UNL     1      34.309 -22.084 -19.067  0.00  0.00    +0.037 C 
ATOM     21  C   UNL     1      33.173 -23.040 -17.162  0.00  0.00    +0.002 C 
ATOM     22  C   UNL     1      33.155 -22.615 -18.490  0.00  0.00    +0.003 C 
BRANCH  17  23
ATOM     23  O   UNL     1      36.606 -21.464 -18.880  0.00  0.00    -0.478 OA
BRANCH  23  24
ATOM     24  C   UNL     1      36.511 -21.048 -20.237  0.00  0.00    +0.183 C 
BRANCH  24  25
ATOM     25  C   UNL     1      36.701 -19.541 -20.300  0.00  0.00    -0.029 C 
BRANCH  25  26
ATOM     26  N   UNL     1      35.746 -18.940 -21.230  0.00  0.00    +0.389 N 
ATOM     27  C   UNL     1      36.066 -17.523 -21.452  0.00  0.00    -0.077 C 
ATOM     28  C   UNL     1      35.724 -19.684 -22.497  0.00  0.00    -0.077 C 
ATOM     29  C   UNL     1      35.047 -16.867 -22.385  0.00  0.00    -0.023 C 
ATOM     30  C   UNL     1      34.694 -19.098 -23.464  0.00  0.00    -0.023 C 
ATOM     31  C   UNL     1      34.945 -17.614 -23.709  0.00  0.00    -0.004 C 
ATOM     32  H   UNL     1      34.813 -18.991 -20.820  0.00  0.00    -0.080 HD
ENDBRANCH  25  26
ENDBRANCH  24  25
ENDBRANCH  23  24
ENDBRANCH  17  23
ENDBRANCH   4  18
TORSDOF 6
ENDMDL
MODEL 8
REMARK VINA RESULT:     -11.0      5.789     10.235
REMARK  Name = 10430360
REMARK  6 active torsions:
REMARK  status: ('A' for Active; 'I' for Inactive)
REMARK    1  A    between atoms: C_4  and  C_18
REMARK    2  A    between atoms: C_7  and  C_14
REMARK    3  A    between atoms: C_17  and  O_23
REMARK    4  A    between atoms: O_23  and  C_24
REMARK    5  A    between atoms: C_24  and  C_25
REMARK    6  A    between atoms: C_25  and  N_26
REMARK                            x       y       z     vdW  Elec       q    Type
REMARK                         _______ _______ _______ _____ _____    ______ ____
ROOT
ATOM      1  N   UNL     1      35.775 -16.259 -23.891  0.00  0.00    -0.276 N 
ATOM      2  N   UNL     1      35.117 -15.169 -23.460  0.00  0.00    -0.173 NA
ATOM      3  C   UNL     1      34.667 -16.985 -22.143  0.00  0.00    +0.036 A 
ATOM      4  C   UNL     1      34.441 -15.612 -22.394  0.00  0.00    +0.102 A 
ATOM      5  C   UNL     1      35.547 -17.383 -23.144  0.00  0.00    +0.075 A 
ATOM      6  C   UNL     1      34.233 -17.927 -21.196  0.00  0.00    +0.006 C 
ATOM      7  C   UNL     1      34.705 -19.242 -21.294  0.00  0.00    +0.033 C 
ATOM      8  C   UNL     1      36.030 -18.688 -23.259  0.00  0.00    +0.019 C 
ATOM      9  C   UNL     1      35.588 -19.614 -22.309  0.00  0.00    +0.004 C 
ATOM     10  H   UNL     1      36.368 -16.249 -24.676  0.00  0.00    +0.189 HD
ENDROOT
BRANCH   7  14
ATOM     11  N   UNL     1      32.961 -20.457 -20.051  0.00  0.00    -0.218 N 
ATOM     12  N   UNL     1      35.027 -21.014 -19.607  0.00  0.00    -0.206 NA
ATOM     13  N   UNL     1      32.828 -21.417 -19.124  0.00  0.00    -0.157 NA
ATOM     14  C   UNL     1      34.270 -20.226 -20.331  0.00  0.00    +0.149 C 
ATOM     15  C   UNL     1      34.106 -21.721 -18.887  0.00  0.00    +0.218 C 
ATOM     16  H   UNL     1      32.209 -19.984 -20.474  0.00  0.00    +0.176 HD
ENDBRANCH   7  14
BRANCH   4  18
ATOM     17  C   UNL     1      32.457 -12.612 -21.438  0.00  0.00    +0.138 C 
ATOM     18  C   UNL     1      33.604 -14.719 -21.644  0.00  0.00    +0.022 C 
ATOM     19  C   UNL     1      33.268 -13.471 -22.170  0.00  0.00    +0.038 C 
ATOM     20  C   UNL     1      31.977 -12.984 -20.187  0.00  0.00    +0.037 C 
ATOM     21  C   UNL     1      33.127 -15.099 -20.390  0.00  0.00    +0.002 C 
ATOM     22  C   UNL     1      32.313 -14.232 -19.661  0.00  0.00    +0.003 C 
BRANCH  17  23
ATOM     23  O   UNL     1      32.126 -11.387 -21.954  0.00  0.00    -0.478 OA
BRANCH  23  24
ATOM     24  C   UNL     1      31.243 -10.583 -21.181  0.00  0.00    +0.183 C 
BRANCH  24  25
ATOM     25  C   UNL     1      31.987  -9.335 -20.732  0.00  0.00    -0.029 C 
BRANCH  25  26
ATOM     26  N   UNL     1      32.406  -8.541 -21.887  0.00  0.00    +0.389 N 
ATOM     27  C   UNL     1      31.240  -7.937 -22.547  0.00  0.00    -0.077 C 
ATOM     28  C   UNL     1      33.377  -7.515 -21.481  0.00  0.00    -0.077 C 
ATOM     29  C   UNL     1      31.657  -7.142 -23.785  0.00  0.00    -0.023 C 
ATOM     30  C   UNL     1      33.863  -6.707 -22.685  0.00  0.00    -0.023 C 
ATOM     31  C   UNL     1      32.696  -6.082 -23.441  0.00  0.00    -0.004 C 
ATOM     32  H   UNL     1      32.864  -9.157 -22.559  0.00  0.00    -0.080 HD
ENDBRANCH  25  26
ENDBRANCH  24  25
ENDBRANCH  23  24
ENDBRANCH  17  23
ENDBRANCH   4  18
TORSDOF 6
ENDMDL
MODEL 9
REMARK VINA RESULT:     -10.9     10.306     16.626
REMARK  Name = 10430360
REMARK  6 active torsions:
REMARK  status: ('A' for Active; 'I' for Inactive)
REMARK    1  A    between atoms: C_4  and  C_18
REMARK    2  A    between atoms: C_7  and  C_14
REMARK    3  A    between atoms: C_17  and  O_23
REMARK    4  A    between atoms: O_23  and  C_24
REMARK    5  A    between atoms: C_24  and  C_25
REMARK    6  A    between atoms: C_25  and  N_26
REMARK                            x       y       z     vdW  Elec       q    Type
REMARK                         _______ _______ _______ _____ _____    ______ ____
ROOT
ATOM      1  N   UNL     1      35.289  -7.364 -24.389  0.00  0.00    -0.276 N 
ATOM      2  N   UNL     1      34.912  -8.125 -23.347  0.00  0.00    -0.173 NA
ATOM      3  C   UNL     1      33.472  -6.374 -23.661  0.00  0.00    +0.036 A 
ATOM      4  C   UNL     1      33.803  -7.521 -22.903  0.00  0.00    +0.102 A 
ATOM      5  C   UNL     1      34.466  -6.296 -24.630  0.00  0.00    +0.075 A 
ATOM      6  C   UNL     1      32.456  -5.403 -23.639  0.00  0.00    +0.006 C 
ATOM      7  C   UNL     1      32.482  -4.386 -24.600  0.00  0.00    +0.033 C 
ATOM      8  C   UNL     1      34.511  -5.290 -25.597  0.00  0.00    +0.019 C 
ATOM      9  C   UNL     1      33.493  -4.331 -25.561  0.00  0.00    +0.004 C 
ATOM     10  H   UNL     1      36.087  -7.557 -24.930  0.00  0.00    +0.189 HD
ENDROOT
BRANCH   7  14
ATOM     11  N   UNL     1      30.685  -3.109 -23.504  0.00  0.00    -0.218 N 
ATOM     12  N   UNL     1      31.096  -2.599 -25.588  0.00  0.00    -0.206 NA
ATOM     13  N   UNL     1      29.801  -2.133 -23.762  0.00  0.00    -0.157 NA
ATOM     14  C   UNL     1      31.448  -3.377 -24.595  0.00  0.00    +0.149 C 
ATOM     15  C   UNL     1      30.090  -1.859 -25.035  0.00  0.00    +0.218 C 
ATOM     16  H   UNL     1      30.769  -3.569 -22.637  0.00  0.00    +0.176 HD
ENDBRANCH   7  14
BRANCH   4  18
ATOM     17  C   UNL     1      31.756  -9.790 -20.779  0.00  0.00    +0.138 C 
ATOM     18  C   UNL     1      33.091  -8.052 -21.775  0.00  0.00    +0.022 C 
ATOM     19  C   UNL     1      32.442  -9.283 -21.876  0.00  0.00    +0.038 C 
ATOM     20  C   UNL     1      31.709  -9.083 -19.583  0.00  0.00    +0.037 C 
ATOM     21  C   UNL     1      33.049  -7.337 -20.579  0.00  0.00    +0.002 C 
ATOM     22  C   UNL     1      32.358  -7.852 -19.482  0.00  0.00    +0.003 C 
BRANCH  17  23
ATOM     23  O   UNL     1      31.119 -10.999 -20.877  0.00  0.00    -0.478 OA
BRANCH  23  24
ATOM     24  C   UNL     1      31.788 -12.019 -21.608  0.00  0.00    +0.183 C 
BRANCH  24  25
ATOM     25  C   UNL     1      32.356 -13.031 -20.627  0.00  0.00    -0.029 C 
BRANCH  25  26
ATOM     26  N   UNL     1      32.906 -14.185 -21.338  0.00  0.00    +0.389 N 
ATOM     27  C   UNL     1      33.301 -13.810 -22.702  0.00  0.00    -0.077 C 
ATOM     28  C   UNL     1      34.039 -14.755 -20.594  0.00  0.00    -0.077 C 
ATOM     29  C   UNL     1      33.834 -15.017 -23.475  0.00  0.00    -0.023 C 
ATOM     30  C   UNL     1      34.595 -15.994 -21.298  0.00  0.00    -0.023 C 
ATOM     31  C   UNL     1      34.990 -15.683 -22.738  0.00  0.00    -0.004 C 
ATOM     32  H   UNL     1      32.184 -14.903 -21.406  0.00  0.00    -0.080 HD
ENDBRANCH  25  26
ENDBRANCH  24  25
ENDBRANCH  23  24
ENDBRANCH  17  23
ENDBRANCH   4  18
TORSDOF 6
ENDMDL
