MODEL 1
REMARK VINA RESULT:     -12.6      0.000      0.000
REMARK  Name = 25191001
REMARK  7 active torsions:
REMARK  status: ('A' for Active; 'I' for Inactive)
REMARK    1  A    between atoms: C_1  and  N_9
REMARK    2  A    between atoms: C_2  and  O_24
REMARK    3  A    between atoms: N_8  and  C_14
REMARK    4  A    between atoms: C_15  and  C_23
REMARK    5  A    between atoms: O_24  and  C_26
REMARK    6  A    between atoms: C_28  and  C_33
REMARK    7  A    between atoms: N_32  and  C_35
REMARK                            x       y       z     vdW  Elec       q    Type
REMARK                         _______ _______ _______ _____ _____    ______ ____
ROOT
ATOM      1  C   UNL     1      35.190 -21.879 -18.430  0.00  0.00    +0.052 C 
ATOM      2  C   UNL     1      34.322 -23.515 -16.343  0.00  0.00    +0.145 C 
ATOM      3  C   UNL     1      35.993 -22.059 -17.303  0.00  0.00    +0.018 C 
ATOM      4  C   UNL     1      33.952 -22.518 -18.513  0.00  0.00    +0.018 C 
ATOM      5  C   UNL     1      35.559 -22.877 -16.260  0.00  0.00    +0.039 C 
ATOM      6  C   UNL     1      33.518 -23.336 -17.469  0.00  0.00    +0.039 C 
ENDROOT
BRANCH   1   9
ATOM      7  O   UNL     1      33.645 -20.039 -20.204  0.00  0.00    -0.252 OA
ATOM      8  N   UNL     1      35.688 -19.542 -21.237  0.00  0.00    -0.268 N 
ATOM      9  N   UNL     1      35.629 -21.048 -19.487  0.00  0.00    -0.268 N 
ATOM     10  C   UNL     1      34.858 -20.197 -20.295  0.00  0.00    +0.308 C 
ATOM     11  H   UNL     1      36.645 -19.768 -21.193  0.00  0.00    +0.156 HD
ATOM     12  H   UNL     1      36.594 -21.069 -19.680  0.00  0.00    +0.156 HD
BRANCH   8  14
ATOM     13 CL   UNL     1      34.171 -15.660 -25.428  0.00  0.00    -0.082 Cl
ATOM     14  C   UNL     1      35.329 -18.619 -22.220  0.00  0.00    +0.052 C 
ATOM     15  C   UNL     1      34.721 -16.369 -22.855  0.00  0.00    +0.083 C 
ATOM     16  C   UNL     1      35.080 -17.291 -21.872  0.00  0.00    +0.019 C 
ATOM     17  C   UNL     1      35.219 -19.024 -23.550  0.00  0.00    +0.016 C 
ATOM     18  C   UNL     1      34.612 -16.773 -24.185  0.00  0.00    +0.062 C 
ATOM     19  C   UNL     1      34.861 -18.102 -24.533  0.00  0.00    +0.013 C 
BRANCH  15  23
ATOM     20  F   UNL     1      35.058 -14.034 -23.252  0.00  0.00    -0.166 F 
ATOM     21  F   UNL     1      33.139 -14.625 -22.434  0.00  0.00    -0.166 F 
ATOM     22  F   UNL     1      34.917 -14.689 -21.184  0.00  0.00    -0.166 F 
ATOM     23  C   UNL     1      34.463 -14.956 -22.441  0.00  0.00    +0.419 C 
ENDBRANCH  15  23
ENDBRANCH   8  14
ENDBRANCH   1   9
BRANCH   2  24
ATOM     24  O   UNL     1      33.897 -24.312 -15.324  0.00  0.00    -0.453 OA
BRANCH  24  26
ATOM     25  N   UNL     1      36.664 -25.308 -12.354  0.00  0.00    -0.239 NA
ATOM     26  C   UNL     1      34.814 -24.643 -14.341  0.00  0.00    +0.149 C 
ATOM     27  C   UNL     1      35.988 -25.308 -14.675  0.00  0.00    +0.061 C 
ATOM     28  C   UNL     1      36.873 -25.616 -13.655  0.00  0.00    +0.137 C 
ATOM     29  C   UNL     1      34.564 -24.309 -13.015  0.00  0.00    +0.058 C 
ATOM     30  C   UNL     1      35.512 -24.661 -12.067  0.00  0.00    +0.102 C 
BRANCH  28  33
ATOM     31  O   UNL     1      38.101 -27.490 -14.343  0.00  0.00    -0.269 OA
ATOM     32  N   UNL     1      39.303 -25.587 -13.782  0.00  0.00    -0.313 N 
ATOM     33  C   UNL     1      38.115 -26.310 -13.946  0.00  0.00    +0.263 C 
ATOM     34  H   UNL     1      39.241 -24.658 -13.464  0.00  0.00    +0.149 HD
ATOM     35  C   UNL     1      40.614 -26.131 -14.053  0.00  0.00    +0.128 C 
ENDBRANCH  28  33
ENDBRANCH  24  26
ENDBRANCH   2  24
TORSDOF 6
ENDMDL
MODEL 2
REMARK VINA RESULT:     -12.3      5.607      9.565
REMARK  Name = 25191001
REMARK  7 active torsions:
REMARK  status: ('A' for Active; 'I' for Inactive)
REMARK    1  A    between atoms: C_1  and  N_9
REMARK    2  A    between atoms: C_2  and  O_24
REMARK    3  A    between atoms: N_8  and  C_14
REMARK    4  A    between atoms: C_15  and  C_23
REMARK    5  A    between atoms: O_24  and  C_26
REMARK    6  A    between atoms: C_28  and  C_33
REMARK    7  A    between atoms: N_32  and  C_35
REMARK                            x       y       z     vdW  Elec       q    Type
REMARK                         _______ _______ _______ _____ _____    ______ ____
ROOT
ATOM      1  C   UNL     1      33.660 -14.090 -22.594  0.00  0.00    +0.052 C 
ATOM      2  C   UNL     1      34.831 -16.577 -23.074  0.00  0.00    +0.145 C 
ATOM      3  C   UNL     1      33.685 -14.612 -23.888  0.00  0.00    +0.018 C 
ATOM      4  C   UNL     1      34.222 -14.812 -21.541  0.00  0.00    +0.018 C 
ATOM      5  C   UNL     1      34.270 -15.855 -24.128  0.00  0.00    +0.039 C 
ATOM      6  C   UNL     1      34.807 -16.056 -21.780  0.00  0.00    +0.039 C 
ENDROOT
BRANCH   1   9
ATOM      7  O   UNL     1      34.192 -11.437 -23.859  0.00  0.00    -0.252 OA
ATOM      8  N   UNL     1      32.536 -10.583 -22.439  0.00  0.00    -0.268 N 
ATOM      9  N   UNL     1      33.068 -12.828 -22.351  0.00  0.00    -0.268 N 
ATOM     10  C   UNL     1      33.356 -11.605 -22.976  0.00  0.00    +0.308 C 
ATOM     11  H   UNL     1      31.909 -10.865 -21.734  0.00  0.00    +0.156 HD
ATOM     12  H   UNL     1      32.370 -12.806 -21.659  0.00  0.00    +0.156 HD
BRANCH   8  14
ATOM     13 CL   UNL     1      32.337  -4.848 -23.855  0.00  0.00    -0.082 Cl
ATOM     14  C   UNL     1      32.498  -9.229 -22.776  0.00  0.00    +0.052 C 
ATOM     15  C   UNL     1      33.598  -7.253 -23.625  0.00  0.00    +0.083 C 
ATOM     16  C   UNL     1      33.636  -8.606 -23.288  0.00  0.00    +0.019 C 
ATOM     17  C   UNL     1      31.323  -8.500 -22.599  0.00  0.00    +0.016 C 
ATOM     18  C   UNL     1      32.422  -6.523 -23.450  0.00  0.00    +0.062 C 
ATOM     19  C   UNL     1      31.284  -7.147 -22.936  0.00  0.00    +0.013 C 
BRANCH  15  23
ATOM     20  F   UNL     1      35.287  -7.209 -25.319  0.00  0.00    -0.166 F 
ATOM     21  F   UNL     1      34.685  -5.302 -24.481  0.00  0.00    -0.166 F 
ATOM     22  F   UNL     1      35.881  -6.678 -23.296  0.00  0.00    -0.166 F 
ATOM     23  C   UNL     1      34.838  -6.622 -24.172  0.00  0.00    +0.419 C 
ENDBRANCH  15  23
ENDBRANCH   8  14
ENDBRANCH   1   9
BRANCH   2  24
ATOM     24  O   UNL     1      35.404 -17.789 -23.309  0.00  0.00    -0.453 OA
BRANCH  24  26
ATOM     25  N   UNL     1      36.234 -20.219 -20.010  0.00  0.00    -0.239 NA
ATOM     26  C   UNL     1      35.678 -18.593 -22.215  0.00  0.00    +0.149 C 
ATOM     27  C   UNL     1      34.664 -19.339 -21.624  0.00  0.00    +0.061 C 
ATOM     28  C   UNL     1      34.990 -20.129 -20.534  0.00  0.00    +0.137 C 
ATOM     29  C   UNL     1      36.970 -18.660 -21.705  0.00  0.00    +0.058 C 
ATOM     30  C   UNL     1      37.194 -19.480 -20.611  0.00  0.00    +0.102 C 
BRANCH  28  33
ATOM     31  O   UNL     1      32.773 -20.810 -20.194  0.00  0.00    -0.269 OA
ATOM     32  N   UNL     1      34.403 -21.838 -18.904  0.00  0.00    -0.313 N 
ATOM     33  C   UNL     1      33.971 -20.928 -19.877  0.00  0.00    +0.263 C 
ATOM     34  H   UNL     1      35.365 -21.880 -18.702  0.00  0.00    +0.149 HD
ATOM     35  C   UNL     1      33.515 -22.719 -18.181  0.00  0.00    +0.128 C 
ENDBRANCH  28  33
ENDBRANCH  24  26
ENDBRANCH   2  24
TORSDOF 6
ENDMDL
MODEL 3
REMARK VINA RESULT:     -12.2      5.912     11.848
REMARK  Name = 25191001
REMARK  7 active torsions:
REMARK  status: ('A' for Active; 'I' for Inactive)
REMARK    1  A    between atoms: C_1  and  N_9
REMARK    2  A    between atoms: C_2  and  O_24
REMARK    3  A    between atoms: N_8  and  C_14
REMARK    4  A    between atoms: C_15  and  C_23
REMARK    5  A    between atoms: O_24  and  C_26
REMARK    6  A    between atoms: C_28  and  C_33
REMARK    7  A    between atoms: N_32  and  C_35
REMARK                            x       y       z     vdW  Elec       q    Type
REMARK                         _______ _______ _______ _____ _____    ______ ____
ROOT
ATOM      1  C   UNL     1      35.292 -21.374 -19.378  0.00  0.00    +0.052 C 
ATOM      2  C   UNL     1      35.630 -19.410 -21.331  0.00  0.00    +0.145 C 
ATOM      3  C   UNL     1      34.184 -20.862 -20.052  0.00  0.00    +0.018 C 
ATOM      4  C   UNL     1      36.570 -20.902 -19.680  0.00  0.00    +0.018 C 
ATOM      5  C   UNL     1      34.352 -19.881 -21.029  0.00  0.00    +0.039 C 
ATOM      6  C   UNL     1      36.739 -19.920 -20.657  0.00  0.00    +0.039 C 
ENDROOT
BRANCH   1   9
ATOM      7  O   UNL     1      36.235 -21.451 -16.544  0.00  0.00    -0.252 OA
ATOM      8  N   UNL     1      35.199 -23.548 -16.402  0.00  0.00    -0.268 N 
ATOM      9  N   UNL     1      35.121 -22.368 -18.386  0.00  0.00    -0.268 N 
ATOM     10  C   UNL     1      35.587 -22.356 -17.062  0.00  0.00    +0.308 C 
ATOM     11  H   UNL     1      34.680 -24.186 -16.944  0.00  0.00    +0.156 HD
ATOM     12  H   UNL     1      34.613 -23.165 -18.658  0.00  0.00    +0.156 HD
BRANCH   8  14
ATOM     13 CL   UNL     1      36.237 -25.191 -10.821  0.00  0.00    -0.082 Cl
ATOM     14  C   UNL     1      35.453 -23.937 -15.086  0.00  0.00    +0.052 C 
ATOM     15  C   UNL     1      36.998 -24.690 -13.389  0.00  0.00    +0.083 C 
ATOM     16  C   UNL     1      36.744 -24.301 -14.704  0.00  0.00    +0.019 C 
ATOM     17  C   UNL     1      34.415 -23.964 -14.155  0.00  0.00    +0.016 C 
ATOM     18  C   UNL     1      35.961 -24.716 -12.456  0.00  0.00    +0.062 C 
ATOM     19  C   UNL     1      34.669 -24.353 -12.840  0.00  0.00    +0.013 C 
BRANCH  15  23
ATOM     20  F   UNL     1      38.902 -24.342 -11.982  0.00  0.00    -0.166 F 
ATOM     21  F   UNL     1      38.519 -26.374 -12.633  0.00  0.00    -0.166 F 
ATOM     22  F   UNL     1      39.271 -24.906 -14.049  0.00  0.00    -0.166 F 
ATOM     23  C   UNL     1      38.395 -25.071 -13.018  0.00  0.00    +0.419 C 
ENDBRANCH  15  23
ENDBRANCH   8  14
ENDBRANCH   1   9
BRANCH   2  24
ATOM     24  O   UNL     1      35.795 -18.450 -22.282  0.00  0.00    -0.453 OA
BRANCH  24  26
ATOM     25  N   UNL     1      34.011 -14.730 -21.614  0.00  0.00    -0.239 NA
ATOM     26  C   UNL     1      35.205 -17.217 -22.062  0.00  0.00    +0.149 C 
ATOM     27  C   UNL     1      34.905 -16.384 -23.133  0.00  0.00    +0.061 C 
ATOM     28  C   UNL     1      34.314 -15.161 -22.859  0.00  0.00    +0.137 C 
ATOM     29  C   UNL     1      34.907 -16.809 -20.766  0.00  0.00    +0.058 C 
ATOM     30  C   UNL     1      34.316 -15.567 -20.597  0.00  0.00    +0.102 C 
BRANCH  28  33
ATOM     31  O   UNL     1      34.175 -13.026 -23.818  0.00  0.00    -0.269 OA
ATOM     32  N   UNL     1      33.459 -14.813 -25.111  0.00  0.00    -0.313 N 
ATOM     33  C   UNL     1      33.979 -14.250 -23.940  0.00  0.00    +0.263 C 
ATOM     34  H   UNL     1      33.330 -15.788 -25.140  0.00  0.00    +0.149 HD
ATOM     35  C   UNL     1      33.102 -14.042 -26.279  0.00  0.00    +0.128 C 
ENDBRANCH  28  33
ENDBRANCH  24  26
ENDBRANCH   2  24
TORSDOF 6
ENDMDL
MODEL 4
REMARK VINA RESULT:     -12.2      2.896      4.641
REMARK  Name = 25191001
REMARK  7 active torsions:
REMARK  status: ('A' for Active; 'I' for Inactive)
REMARK    1  A    between atoms: C_1  and  N_9
REMARK    2  A    between atoms: C_2  and  O_24
REMARK    3  A    between atoms: N_8  and  C_14
REMARK    4  A    between atoms: C_15  and  C_23
REMARK    5  A    between atoms: O_24  and  C_26
REMARK    6  A    between atoms: C_28  and  C_33
REMARK    7  A    between atoms: N_32  and  C_35
REMARK                            x       y       z     vdW  Elec       q    Type
REMARK                         _______ _______ _______ _____ _____    ______ ____
ROOT
ATOM      1  C   UNL     1      35.370 -21.492 -18.955  0.00  0.00    +0.052 C 
ATOM      2  C   UNL     1      34.650 -23.227 -16.892  0.00  0.00    +0.145 C 
ATOM      3  C   UNL     1      34.151 -22.169 -19.006  0.00  0.00    +0.018 C 
ATOM      4  C   UNL     1      36.229 -21.682 -17.873  0.00  0.00    +0.018 C 
ATOM      5  C   UNL     1      33.792 -23.036 -17.974  0.00  0.00    +0.039 C 
ATOM      6  C   UNL     1      35.869 -22.550 -16.840  0.00  0.00    +0.039 C 
ENDROOT
BRANCH   1   9
ATOM      7  O   UNL     1      33.713 -19.552 -20.510  0.00  0.00    -0.252 OA
ATOM      8  N   UNL     1      35.674 -19.024 -21.677  0.00  0.00    -0.268 N 
ATOM      9  N   UNL     1      35.735 -20.614 -20.003  0.00  0.00    -0.268 N 
ATOM     10  C   UNL     1      34.913 -19.717 -20.704  0.00  0.00    +0.308 C 
ATOM     11  H   UNL     1      36.629 -19.260 -21.720  0.00  0.00    +0.156 HD
ATOM     12  H   UNL     1      36.681 -20.634 -20.272  0.00  0.00    +0.156 HD
BRANCH   8  14
ATOM     13 CL   UNL     1      33.883 -14.926 -25.542  0.00  0.00    -0.082 Cl
ATOM     14  C   UNL     1      35.250 -18.051 -22.583  0.00  0.00    +0.052 C 
ATOM     15  C   UNL     1      34.552 -15.785 -23.043  0.00  0.00    +0.083 C 
ATOM     16  C   UNL     1      34.975 -16.757 -22.138  0.00  0.00    +0.019 C 
ATOM     17  C   UNL     1      35.103 -18.371 -23.932  0.00  0.00    +0.016 C 
ATOM     18  C   UNL     1      34.404 -16.104 -24.393  0.00  0.00    +0.062 C 
ATOM     19  C   UNL     1      34.679 -17.398 -24.837  0.00  0.00    +0.013 C 
BRANCH  15  23
ATOM     20  F   UNL     1      32.942 -14.088 -22.539  0.00  0.00    -0.166 F 
ATOM     21  F   UNL     1      34.670 -14.220 -21.237  0.00  0.00    -0.166 F 
ATOM     22  F   UNL     1      34.890 -13.441 -23.255  0.00  0.00    -0.166 F 
ATOM     23  C   UNL     1      34.267 -14.411 -22.527  0.00  0.00    +0.419 C 
ENDBRANCH  15  23
ENDBRANCH   8  14
ENDBRANCH   1   9
BRANCH   2  24
ATOM     24  O   UNL     1      34.301 -24.074 -15.886  0.00  0.00    -0.453 OA
BRANCH  24  26
ATOM     25  N   UNL     1      30.841 -23.194 -13.711  0.00  0.00    -0.239 NA
ATOM     26  C   UNL     1      33.155 -23.782 -15.166  0.00  0.00    +0.149 C 
ATOM     27  C   UNL     1      31.985 -23.426 -15.828  0.00  0.00    +0.061 C 
ATOM     28  C   UNL     1      30.866 -23.144 -15.063  0.00  0.00    +0.137 C 
ATOM     29  C   UNL     1      33.169 -23.845 -13.777  0.00  0.00    +0.058 C 
ATOM     30  C   UNL     1      31.997 -23.543 -13.102  0.00  0.00    +0.102 C 
BRANCH  28  33
ATOM     31  O   UNL     1      29.588 -22.474 -16.911  0.00  0.00    -0.269 OA
ATOM     32  N   UNL     1      28.465 -22.775 -14.904  0.00  0.00    -0.313 N 
ATOM     33  C   UNL     1      29.617 -22.767 -15.701  0.00  0.00    +0.263 C 
ATOM     34  H   UNL     1      28.559 -23.017 -13.955  0.00  0.00    +0.149 HD
ATOM     35  C   UNL     1      27.148 -22.448 -15.398  0.00  0.00    +0.128 C 
ENDBRANCH  28  33
ENDBRANCH  24  26
ENDBRANCH   2  24
TORSDOF 6
ENDMDL
MODEL 5
REMARK VINA RESULT:     -12.0      5.804     11.663
REMARK  Name = 25191001
REMARK  7 active torsions:
REMARK  status: ('A' for Active; 'I' for Inactive)
REMARK    1  A    between atoms: C_1  and  N_9
REMARK    2  A    between atoms: C_2  and  O_24
REMARK    3  A    between atoms: N_8  and  C_14
REMARK    4  A    between atoms: C_15  and  C_23
REMARK    5  A    between atoms: O_24  and  C_26
REMARK    6  A    between atoms: C_28  and  C_33
REMARK    7  A    between atoms: N_32  and  C_35
REMARK                            x       y       z     vdW  Elec       q    Type
REMARK                         _______ _______ _______ _____ _____    ______ ____
ROOT
ATOM      1  C   UNL     1      36.584 -19.882 -20.113  0.00  0.00    +0.052 C 
ATOM      2  C   UNL     1      35.702 -18.908 -22.575  0.00  0.00    +0.145 C 
ATOM      3  C   UNL     1      37.424 -19.082 -20.889  0.00  0.00    +0.018 C 
ATOM      4  C   UNL     1      35.304 -20.196 -20.570  0.00  0.00    +0.018 C 
ATOM      5  C   UNL     1      36.983 -18.594 -22.119  0.00  0.00    +0.039 C 
ATOM      6  C   UNL     1      34.862 -19.709 -21.801  0.00  0.00    +0.039 C 
ENDROOT
BRANCH   1   9
ATOM      7  O   UNL     1      35.609 -22.196 -18.496  0.00  0.00    -0.252 OA
ATOM      8  N   UNL     1      37.267 -21.631 -16.941  0.00  0.00    -0.268 N 
ATOM      9  N   UNL     1      37.033 -20.377 -18.866  0.00  0.00    -0.268 N 
ATOM     10  C   UNL     1      36.537 -21.475 -18.144  0.00  0.00    +0.308 C 
ATOM     11  H   UNL     1      37.987 -20.977 -16.790  0.00  0.00    +0.156 HD
ATOM     12  H   UNL     1      37.784 -19.893 -18.455  0.00  0.00    +0.156 HD
BRANCH   8  14
ATOM     13 CL   UNL     1      36.536 -25.684 -12.702  0.00  0.00    -0.082 Cl
ATOM     14  C   UNL     1      37.103 -22.591 -15.941  0.00  0.00    +0.052 C 
ATOM     15  C   UNL     1      38.008 -24.371 -14.582  0.00  0.00    +0.083 C 
ATOM     16  C   UNL     1      38.172 -23.412 -15.581  0.00  0.00    +0.019 C 
ATOM     17  C   UNL     1      35.871 -22.729 -15.303  0.00  0.00    +0.016 C 
ATOM     18  C   UNL     1      36.776 -24.509 -13.942  0.00  0.00    +0.062 C 
ATOM     19  C   UNL     1      35.707 -23.688 -14.304  0.00  0.00    +0.013 C 
BRANCH  15  23
ATOM     20  F   UNL     1      38.932 -26.566 -14.355  0.00  0.00    -0.166 F 
ATOM     21  F   UNL     1      40.282 -24.992 -14.989  0.00  0.00    -0.166 F 
ATOM     22  F   UNL     1      39.579 -25.054 -12.933  0.00  0.00    -0.166 F 
ATOM     23  C   UNL     1      39.177 -25.230 -14.224  0.00  0.00    +0.419 C 
ENDBRANCH  15  23
ENDBRANCH   8  14
ENDBRANCH   1   9
BRANCH   2  24
ATOM     24  O   UNL     1      35.272 -18.435 -23.777  0.00  0.00    -0.453 OA
BRANCH  24  26
ATOM     25  N   UNL     1      33.897 -14.491 -23.934  0.00  0.00    -0.239 NA
ATOM     26  C   UNL     1      34.816 -17.129 -23.828  0.00  0.00    +0.149 C 
ATOM     27  C   UNL     1      34.544 -16.437 -22.653  0.00  0.00    +0.061 C 
ATOM     28  C   UNL     1      34.091 -15.132 -22.759  0.00  0.00    +0.137 C 
ATOM     29  C   UNL     1      34.630 -16.504 -25.056  0.00  0.00    +0.058 C 
ATOM     30  C   UNL     1      34.172 -15.195 -25.055  0.00  0.00    +0.102 C 
BRANCH  28  33
ATOM     31  O   UNL     1      34.564 -14.380 -20.589  0.00  0.00    -0.269 OA
ATOM     32  N   UNL     1      32.621 -13.591 -21.580  0.00  0.00    -0.313 N 
ATOM     33  C   UNL     1      33.791 -14.361 -21.565  0.00  0.00    +0.263 C 
ATOM     34  H   UNL     1      32.055 -13.622 -22.385  0.00  0.00    +0.149 HD
ATOM     35  C   UNL     1      32.200 -12.754 -20.481  0.00  0.00    +0.128 C 
ENDBRANCH  28  33
ENDBRANCH  24  26
ENDBRANCH   2  24
TORSDOF 6
ENDMDL
MODEL 6
REMARK VINA RESULT:     -11.9      3.661      5.585
REMARK  Name = 25191001
REMARK  7 active torsions:
REMARK  status: ('A' for Active; 'I' for Inactive)
REMARK    1  A    between atoms: C_1  and  N_9
REMARK    2  A    between atoms: C_2  and  O_24
REMARK    3  A    between atoms: N_8  and  C_14
REMARK    4  A    between atoms: C_15  and  C_23
REMARK    5  A    between atoms: O_24  and  C_26
REMARK    6  A    between atoms: C_28  and  C_33
REMARK    7  A    between atoms: N_32  and  C_35
REMARK                            x       y       z     vdW  Elec       q    Type
REMARK                         _______ _______ _______ _____ _____    ______ ____
ROOT
ATOM      1  C   UNL     1      35.338 -18.490 -21.445  0.00  0.00    +0.052 C 
ATOM      2  C   UNL     1      36.322 -20.684 -20.031  0.00  0.00    +0.145 C 
ATOM      3  C   UNL     1      34.473 -19.510 -21.049  0.00  0.00    +0.018 C 
ATOM      4  C   UNL     1      36.695 -18.568 -21.134  0.00  0.00    +0.018 C 
ATOM      5  C   UNL     1      34.964 -20.607 -20.342  0.00  0.00    +0.039 C 
ATOM      6  C   UNL     1      37.188 -19.665 -20.426  0.00  0.00    +0.039 C 
ENDROOT
BRANCH   1   9
ATOM      7  O   UNL     1      34.694 -15.726 -20.515  0.00  0.00    -0.252 OA
ATOM      8  N   UNL     1      34.069 -15.275 -22.727  0.00  0.00    -0.268 N 
ATOM      9  N   UNL     1      34.839 -17.378 -22.164  0.00  0.00    -0.268 N 
ATOM     10  C   UNL     1      34.551 -16.093 -21.677  0.00  0.00    +0.308 C 
ATOM     11  H   UNL     1      34.007 -15.706 -23.611  0.00  0.00    +0.156 HD
ATOM     12  H   UNL     1      34.673 -17.524 -23.123  0.00  0.00    +0.156 HD
BRANCH   8  14
ATOM     13 CL   UNL     1      32.401  -9.608 -22.549  0.00  0.00    -0.082 Cl
ATOM     14  C   UNL     1      33.670 -13.939 -22.678  0.00  0.00    +0.052 C 
ATOM     15  C   UNL     1      32.470 -12.153 -21.579  0.00  0.00    +0.083 C 
ATOM     16  C   UNL     1      32.868 -13.489 -21.629  0.00  0.00    +0.019 C 
ATOM     17  C   UNL     1      34.074 -13.053 -23.676  0.00  0.00    +0.016 C 
ATOM     18  C   UNL     1      32.874 -11.267 -22.577  0.00  0.00    +0.062 C 
ATOM     19  C   UNL     1      33.676 -11.718 -23.627  0.00  0.00    +0.013 C 
BRANCH  15  23
ATOM     20  F   UNL     1      32.024 -10.544 -19.866  0.00  0.00    -0.166 F 
ATOM     21  F   UNL     1      30.309 -11.496 -20.790  0.00  0.00    -0.166 F 
ATOM     22  F   UNL     1      31.573 -12.625 -19.428  0.00  0.00    -0.166 F 
ATOM     23  C   UNL     1      31.610 -11.711 -20.439  0.00  0.00    +0.419 C 
ENDBRANCH  15  23
ENDBRANCH   8  14
ENDBRANCH   1   9
BRANCH   2  24
ATOM     24  O   UNL     1      36.803 -21.756 -19.342  0.00  0.00    -0.453 OA
BRANCH  24  26
ATOM     25  N   UNL     1      35.016 -22.677 -15.677  0.00  0.00    -0.239 NA
ATOM     26  C   UNL     1      36.210 -22.060 -18.129  0.00  0.00    +0.149 C 
ATOM     27  C   UNL     1      34.858 -22.377 -18.071  0.00  0.00    +0.061 C 
ATOM     28  C   UNL     1      34.313 -22.675 -16.832  0.00  0.00    +0.137 C 
ATOM     29  C   UNL     1      36.967 -22.051 -16.962  0.00  0.00    +0.058 C 
ATOM     30  C   UNL     1      36.328 -22.363 -15.772  0.00  0.00    +0.102 C 
BRANCH  28  33
ATOM     31  O   UNL     1      32.116 -22.771 -17.644  0.00  0.00    -0.269 OA
ATOM     32  N   UNL     1      32.498 -23.637 -15.527  0.00  0.00    -0.313 N 
ATOM     33  C   UNL     1      32.905 -23.013 -16.713  0.00  0.00    +0.263 C 
ATOM     34  H   UNL     1      33.175 -23.799 -14.831  0.00  0.00    +0.149 HD
ATOM     35  C   UNL     1      31.140 -24.055 -15.268  0.00  0.00    +0.128 C 
ENDBRANCH  28  33
ENDBRANCH  24  26
ENDBRANCH   2  24
TORSDOF 6
ENDMDL
MODEL 7
REMARK VINA RESULT:     -11.9      5.244     11.175
REMARK  Name = 25191001
REMARK  7 active torsions:
REMARK  status: ('A' for Active; 'I' for Inactive)
REMARK    1  A    between atoms: C_1  and  N_9
REMARK    2  A    between atoms: C_2  and  O_24
REMARK    3  A    between atoms: N_8  and  C_14
REMARK    4  A    between atoms: C_15  and  C_23
REMARK    5  A    between atoms: O_24  and  C_26
REMARK    6  A    between atoms: C_28  and  C_33
REMARK    7  A    between atoms: N_32  and  C_35
REMARK                            x       y       z     vdW  Elec       q    Type
REMARK                         _______ _______ _______ _____ _____    ______ ____
ROOT
ATOM      1  C   UNL     1      35.716 -20.221 -20.541  0.00  0.00    +0.052 C 
ATOM      2  C   UNL     1      35.670 -18.581 -22.798  0.00  0.00    +0.145 C 
ATOM      3  C   UNL     1      36.810 -19.406 -20.834  0.00  0.00    +0.018 C 
ATOM      4  C   UNL     1      34.600 -20.217 -21.377  0.00  0.00    +0.018 C 
ATOM      5  C   UNL     1      36.787 -18.586 -21.961  0.00  0.00    +0.039 C 
ATOM      6  C   UNL     1      34.576 -19.397 -22.506  0.00  0.00    +0.039 C 
ENDROOT
BRANCH   1   9
ATOM      7  O   UNL     1      33.472 -21.268 -18.872  0.00  0.00    -0.252 OA
ATOM      8  N   UNL     1      35.111 -22.329 -17.578  0.00  0.00    -0.268 N 
ATOM      9  N   UNL     1      35.741 -21.054 -19.398  0.00  0.00    -0.268 N 
ATOM     10  C   UNL     1      34.651 -21.520 -18.645  0.00  0.00    +0.308 C 
ATOM     11  H   UNL     1      36.088 -22.444 -17.519  0.00  0.00    +0.156 HD
ATOM     12  H   UNL     1      36.631 -21.342 -19.093  0.00  0.00    +0.156 HD
BRANCH   8  14
ATOM     13 CL   UNL     1      31.984 -25.127 -13.415  0.00  0.00    -0.082 Cl
ATOM     14  C   UNL     1      34.365 -22.986 -16.598  0.00  0.00    +0.052 C 
ATOM     15  C   UNL     1      32.230 -23.530 -15.610  0.00  0.00    +0.083 C 
ATOM     16  C   UNL     1      32.975 -22.873 -16.588  0.00  0.00    +0.019 C 
ATOM     17  C   UNL     1      35.010 -23.755 -15.630  0.00  0.00    +0.016 C 
ATOM     18  C   UNL     1      32.873 -24.300 -14.641  0.00  0.00    +0.062 C 
ATOM     19  C   UNL     1      34.265 -24.413 -14.652  0.00  0.00    +0.013 C 
BRANCH  15  23
ATOM     20  F   UNL     1      30.081 -24.569 -15.781  0.00  0.00    -0.166 F 
ATOM     21  F   UNL     1      30.232 -22.829 -14.495  0.00  0.00    -0.166 F 
ATOM     22  F   UNL     1      30.312 -22.591 -16.655  0.00  0.00    -0.166 F 
ATOM     23  C   UNL     1      30.742 -23.384 -15.633  0.00  0.00    +0.419 C 
ENDBRANCH  15  23
ENDBRANCH   8  14
ENDBRANCH   1   9
BRANCH   2  24
ATOM     24  O   UNL     1      35.648 -17.783 -23.900  0.00  0.00    -0.453 OA
BRANCH  24  26
ATOM     25  N   UNL     1      33.383 -14.274 -23.717  0.00  0.00    -0.239 NA
ATOM     26  C   UNL     1      34.897 -16.621 -23.838  0.00  0.00    +0.149 C 
ATOM     27  C   UNL     1      34.658 -16.007 -22.614  0.00  0.00    +0.061 C 
ATOM     28  C   UNL     1      33.903 -14.846 -22.606  0.00  0.00    +0.137 C 
ATOM     29  C   UNL     1      34.381 -16.063 -25.002  0.00  0.00    +0.058 C 
ATOM     30  C   UNL     1      33.636 -14.899 -24.889  0.00  0.00    +0.102 C 
BRANCH  28  33
ATOM     31  O   UNL     1      34.405 -14.258 -20.393  0.00  0.00    -0.269 OA
ATOM     32  N   UNL     1      32.457 -13.386 -21.302  0.00  0.00    -0.313 N 
ATOM     33  C   UNL     1      33.621 -14.163 -21.356  0.00  0.00    +0.263 C 
ATOM     34  H   UNL     1      31.882 -13.355 -22.099  0.00  0.00    +0.149 HD
ATOM     35  C   UNL     1      32.054 -12.629 -20.139  0.00  0.00    +0.128 C 
ENDBRANCH  28  33
ENDBRANCH  24  26
ENDBRANCH   2  24
TORSDOF 6
ENDMDL
MODEL 8
REMARK VINA RESULT:     -11.9      5.873     11.872
REMARK  Name = 25191001
REMARK  7 active torsions:
REMARK  status: ('A' for Active; 'I' for Inactive)
REMARK    1  A    between atoms: C_1  and  N_9
REMARK    2  A    between atoms: C_2  and  O_24
REMARK    3  A    between atoms: N_8  and  C_14
REMARK    4  A    between atoms: C_15  and  C_23
REMARK    5  A    between atoms: O_24  and  C_26
REMARK    6  A    between atoms: C_28  and  C_33
REMARK    7  A    between atoms: N_32  and  C_35
REMARK                            x       y       z     vdW  Elec       q    Type
REMARK                         _______ _______ _______ _____ _____    ______ ____
ROOT
ATOM      1  C   UNL     1      35.708 -20.890 -19.665  0.00  0.00    +0.052 C 
ATOM      2  C   UNL     1      35.726 -18.947 -21.668  0.00  0.00    +0.145 C 
ATOM      3  C   UNL     1      34.523 -20.549 -20.318  0.00  0.00    +0.018 C 
ATOM      4  C   UNL     1      36.902 -20.258 -20.014  0.00  0.00    +0.018 C 
ATOM      5  C   UNL     1      34.532 -19.579 -21.319  0.00  0.00    +0.039 C 
ATOM      6  C   UNL     1      36.911 -19.287 -21.016  0.00  0.00    +0.039 C 
ENDROOT
BRANCH   1   9
ATOM      7  O   UNL     1      37.182 -20.992 -17.070  0.00  0.00    -0.252 OA
ATOM      8  N   UNL     1      36.119 -23.048 -16.705  0.00  0.00    -0.268 N 
ATOM      9  N   UNL     1      35.698 -21.873 -18.648  0.00  0.00    -0.268 N 
ATOM     10  C   UNL     1      36.413 -21.874 -17.440  0.00  0.00    +0.308 C 
ATOM     11  H   UNL     1      35.482 -23.668 -17.127  0.00  0.00    +0.156 HD
ATOM     12  H   UNL     1      35.118 -22.652 -18.807  0.00  0.00    +0.156 HD
BRANCH   8  14
ATOM     13 CL   UNL     1      38.239 -24.720 -11.447  0.00  0.00    -0.082 Cl
ATOM     14  C   UNL     1      36.611 -23.441 -15.460  0.00  0.00    +0.052 C 
ATOM     15  C   UNL     1      36.241 -23.928 -13.123  0.00  0.00    +0.083 C 
ATOM     16  C   UNL     1      35.749 -23.535 -14.367  0.00  0.00    +0.019 C 
ATOM     17  C   UNL     1      37.965 -23.741 -15.308  0.00  0.00    +0.016 C 
ATOM     18  C   UNL     1      37.595 -24.229 -12.970  0.00  0.00    +0.062 C 
ATOM     19  C   UNL     1      38.457 -24.135 -14.064  0.00  0.00    +0.013 C 
BRANCH  15  23
ATOM     20  F   UNL     1      34.003 -23.690 -12.311  0.00  0.00    -0.166 F 
ATOM     21  F   UNL     1      35.206 -25.265 -11.430  0.00  0.00    -0.166 F 
ATOM     22  F   UNL     1      35.622 -23.185 -10.951  0.00  0.00    -0.166 F 
ATOM     23  C   UNL     1      35.285 -24.017 -11.977  0.00  0.00    +0.419 C 
ENDBRANCH  15  23
ENDBRANCH   8  14
ENDBRANCH   1   9
BRANCH   2  24
ATOM     24  O   UNL     1      35.735 -17.998 -22.644  0.00  0.00    -0.453 OA
BRANCH  24  26
ATOM     25  N   UNL     1      33.915 -14.331 -21.800  0.00  0.00    -0.239 NA
ATOM     26  C   UNL     1      35.133 -16.783 -22.365  0.00  0.00    +0.149 C 
ATOM     27  C   UNL     1      34.831 -15.900 -23.395  0.00  0.00    +0.061 C 
ATOM     28  C   UNL     1      34.228 -14.698 -23.064  0.00  0.00    +0.137 C 
ATOM     29  C   UNL     1      34.827 -16.442 -21.052  0.00  0.00    +0.058 C 
ATOM     30  C   UNL     1      34.224 -15.215 -20.824  0.00  0.00    +0.102 C 
BRANCH  28  33
ATOM     31  O   UNL     1      33.955 -12.514 -23.873  0.00  0.00    -0.269 OA
ATOM     32  N   UNL     1      33.518 -14.249 -25.348  0.00  0.00    -0.313 N 
ATOM     33  C   UNL     1      33.890 -13.737 -24.099  0.00  0.00    +0.263 C 
ATOM     34  H   UNL     1      33.487 -15.227 -25.459  0.00  0.00    +0.149 HD
ATOM     35  C   UNL     1      33.177 -13.423 -26.483  0.00  0.00    +0.128 C 
ENDBRANCH  28  33
ENDBRANCH  24  26
ENDBRANCH   2  24
TORSDOF 6
ENDMDL
MODEL 9
REMARK VINA RESULT:     -11.9      3.164      5.192
REMARK  Name = 25191001
REMARK  7 active torsions:
REMARK  status: ('A' for Active; 'I' for Inactive)
REMARK    1  A    between atoms: C_1  and  N_9
REMARK    2  A    between atoms: C_2  and  O_24
REMARK    3  A    between atoms: N_8  and  C_14
REMARK    4  A    between atoms: C_15  and  C_23
REMARK    5  A    between atoms: O_24  and  C_26
REMARK    6  A    between atoms: C_28  and  C_33
REMARK    7  A    between atoms: N_32  and  C_35
REMARK                            x       y       z     vdW  Elec       q    Type
REMARK                         _______ _______ _______ _____ _____    ______ ____
ROOT
ATOM      1  C   UNL     1      35.362 -18.338 -21.489  0.00  0.00    +0.052 C 
ATOM      2  C   UNL     1      36.299 -20.552 -20.072  0.00  0.00    +0.145 C 
ATOM      3  C   UNL     1      34.476 -19.343 -21.098  0.00  0.00    +0.018 C 
ATOM      4  C   UNL     1      36.716 -18.441 -21.172  0.00  0.00    +0.018 C 
ATOM      5  C   UNL     1      34.945 -20.449 -20.389  0.00  0.00    +0.039 C 
ATOM      6  C   UNL     1      37.186 -19.548 -20.463  0.00  0.00    +0.039 C 
ENDROOT
BRANCH   1   9
ATOM      7  O   UNL     1      34.622 -15.607 -20.533  0.00  0.00    -0.252 OA
ATOM      8  N   UNL     1      34.116 -15.113 -22.766  0.00  0.00    -0.268 N 
ATOM      9  N   UNL     1      34.887 -17.217 -22.209  0.00  0.00    -0.268 N 
ATOM     10  C   UNL     1      34.551 -15.949 -21.710  0.00  0.00    +0.308 C 
ATOM     11  H   UNL     1      34.112 -15.523 -23.661  0.00  0.00    +0.156 HD
ATOM     12  H   UNL     1      34.778 -17.342 -23.179  0.00  0.00    +0.156 HD
BRANCH   8  14
ATOM     13 CL   UNL     1      32.348  -9.477 -22.552  0.00  0.00    -0.082 Cl
ATOM     14  C   UNL     1      33.694 -13.784 -22.708  0.00  0.00    +0.052 C 
ATOM     15  C   UNL     1      32.444 -12.032 -21.610  0.00  0.00    +0.083 C 
ATOM     16  C   UNL     1      32.866 -13.360 -21.668  0.00  0.00    +0.019 C 
ATOM     17  C   UNL     1      34.100 -12.880 -23.689  0.00  0.00    +0.016 C 
ATOM     18  C   UNL     1      32.850 -11.127 -22.591  0.00  0.00    +0.062 C 
ATOM     19  C   UNL     1      33.678 -11.552 -23.632  0.00  0.00    +0.013 C 
BRANCH  15  23
ATOM     20  F   UNL     1      31.949 -10.457 -19.879  0.00  0.00    -0.166 F 
ATOM     21  F   UNL     1      30.262 -11.409 -20.854  0.00  0.00    -0.166 F 
ATOM     22  F   UNL     1      31.509 -12.550 -19.487  0.00  0.00    -0.166 F 
ATOM     23  C   UNL     1      31.558 -11.618 -20.480  0.00  0.00    +0.419 C 
ENDBRANCH  15  23
ENDBRANCH   8  14
ENDBRANCH   1   9
BRANCH   2  24
ATOM     24  O   UNL     1      36.757 -21.632 -19.383  0.00  0.00    -0.453 OA
BRANCH  24  26
ATOM     25  N   UNL     1      34.480 -22.974 -16.144  0.00  0.00    -0.239 NA
ATOM     26  C   UNL     1      36.004 -22.078 -18.310  0.00  0.00    +0.149 C 
ATOM     27  C   UNL     1      36.595 -22.247 -17.063  0.00  0.00    +0.061 C 
ATOM     28  C   UNL     1      35.798 -22.693 -16.022  0.00  0.00    +0.137 C 
ATOM     29  C   UNL     1      34.652 -22.356 -18.476  0.00  0.00    +0.058 C 
ATOM     30  C   UNL     1      33.940 -22.798 -17.372  0.00  0.00    +0.102 C 
BRANCH  28  33
ATOM     31  O   UNL     1      37.566 -22.654 -14.483  0.00  0.00    -0.269 OA
ATOM     32  N   UNL     1      35.491 -23.321 -13.691  0.00  0.00    -0.313 N 
ATOM     33  C   UNL     1      36.362 -22.888 -14.697  0.00  0.00    +0.263 C 
ATOM     34  H   UNL     1      34.551 -23.487 -13.929  0.00  0.00    +0.149 HD
ATOM     35  C   UNL     1      35.895 -23.536 -12.321  0.00  0.00    +0.128 C 
ENDBRANCH  28  33
ENDBRANCH  24  26
ENDBRANCH   2  24
TORSDOF 6
ENDMDL
