MODEL 1
REMARK VINA RESULT:     -12.1      0.000      0.000
REMARK  Name = 447546
REMARK  10 active torsions:
REMARK  status: ('A' for Active; 'I' for Inactive)
REMARK    1  A    between atoms: N_1  and  C_23
REMARK    2  A    between atoms: C_8  and  N_11
REMARK    3  A    between atoms: N_12  and  C_16
REMARK    4  A    between atoms: C_16  and  C_17
REMARK    5  A    between atoms: C_23  and  C_24
REMARK    6  A    between atoms: C_24  and  C_25
REMARK    7  A    between atoms: C_25  and  N_26
REMARK    8  A    between atoms: C_25  and  C_36
REMARK    9  A    between atoms: C_30  and  C_33
REMARK   10  A    between atoms: C_36  and  O_37
REMARK                            x       y       z     vdW  Elec       q    Type
REMARK                         _______ _______ _______ _____ _____    ______ ____
ROOT
ATOM      1  N   UNL     1      33.455 -23.406 -15.921  0.00  0.00    -0.286 N 
ATOM      2  C   UNL     1      34.312 -22.801 -16.812  0.00  0.00    +0.053 C 
ATOM      3  C   UNL     1      35.597 -22.889 -16.270  0.00  0.00    +0.015 C 
ATOM      4  C   UNL     1      34.152 -23.873 -14.838  0.00  0.00    +0.065 C 
ATOM      5  C   UNL     1      35.479 -23.567 -15.026  0.00  0.00    +0.017 C 
ATOM      6  C   UNL     1      34.051 -22.189 -18.044  0.00  0.00    +0.030 C 
ATOM      7  C   UNL     1      36.675 -22.339 -16.992  0.00  0.00    +0.003 C 
ATOM      8  C   UNL     1      35.137 -21.651 -18.740  0.00  0.00    +0.053 C 
ATOM      9  C   UNL     1      36.430 -21.725 -18.225  0.00  0.00    +0.015 C 
ENDROOT
BRANCH   8  11
ATOM     10  O   UNL     1      36.784 -19.619 -20.212  0.00  0.00    -0.252 OA
ATOM     11  N   UNL     1      34.921 -21.034 -19.974  0.00  0.00    -0.268 N 
ATOM     12  N   UNL     1      35.158 -19.709 -21.854  0.00  0.00    -0.285 N 
ATOM     13  C   UNL     1      35.726 -20.081 -20.630  0.00  0.00    +0.305 C 
ATOM     14  H   UNL     1      34.100 -21.301 -20.447  0.00  0.00    +0.156 HD
ATOM     15  H   UNL     1      34.307 -20.123 -22.122  0.00  0.00    +0.151 HD
BRANCH  12  16
ATOM     16  C   UNL     1      35.765 -18.746 -22.743  0.00  0.00    +0.118 C 
BRANCH  16  17
ATOM     17  C   UNL     1      35.172 -17.376 -22.578  0.00  0.00    -0.003 C 
ATOM     18  C   UNL     1      34.844 -16.618 -23.700  0.00  0.00    -0.003 C 
ATOM     19  C   UNL     1      34.947 -16.864 -21.300  0.00  0.00    -0.003 C 
ATOM     20  C   UNL     1      34.293 -15.346 -23.546  0.00  0.00    -0.000 C 
ATOM     21  C   UNL     1      34.396 -15.592 -21.146  0.00  0.00    -0.000 C 
ATOM     22  C   UNL     1      34.069 -14.833 -22.269  0.00  0.00    -0.000 C 
ENDBRANCH  16  17
ENDBRANCH  12  16
ENDBRANCH   8  11
BRANCH   1  23
ATOM     23  C   UNL     1      32.023 -23.538 -16.087  0.00  0.00    +0.097 C 
BRANCH  23  24
ATOM     24  C   UNL     1      31.196 -22.928 -14.947  0.00  0.00    +0.040 C 
BRANCH  24  25
ATOM     25  C   UNL     1      29.855 -23.639 -14.656  0.00  0.00    +0.091 C 
BRANCH  25  26
ATOM     26  N   UNL     1      28.851 -23.461 -15.719  0.00  0.00    -0.246 NA
ATOM     27  N   UNL     1      27.460 -23.813 -17.413  0.00  0.00    -0.251 NA
ATOM     28  C   UNL     1      28.186 -22.302 -16.031  0.00  0.00    +0.125 C 
ATOM     29  C   UNL     1      28.390 -24.351 -16.570  0.00  0.00    +0.201 C 
ATOM     30  C   UNL     1      27.316 -22.495 -17.079  0.00  0.00    +0.124 C 
BRANCH  30  33
ATOM     31  O   UNL     1      26.224 -20.410 -17.289  0.00  0.00    -0.269 OA
ATOM     32  N   UNL     1      25.803 -21.971 -18.895  0.00  0.00    -0.324 N 
ATOM     33  C   UNL     1      26.440 -21.569 -17.715  0.00  0.00    +0.257 C 
ATOM     34  H   UNL     1      25.191 -21.355 -19.359  0.00  0.00    +0.145 HD
ATOM     35  H   UNL     1      25.966 -22.870 -19.262  0.00  0.00    +0.145 HD
ENDBRANCH  30  33
ENDBRANCH  25  26
BRANCH  25  36
ATOM     36  C   UNL     1      30.086 -25.135 -14.381  0.00  0.00    +0.153 C 
BRANCH  36  37
ATOM     37  O   UNL     1      30.684 -25.299 -13.100  0.00  0.00    -0.381 OA
ATOM     38  H   UNL     1      30.733 -24.439 -12.654  0.00  0.00    +0.210 HD
ENDBRANCH  36  37
ENDBRANCH  25  36
ENDBRANCH  24  25
ENDBRANCH  23  24
ENDBRANCH   1  23
TORSDOF 10
ENDMDL
MODEL 2
REMARK VINA RESULT:     -11.8      6.742     11.964
REMARK  Name = 447546
REMARK  10 active torsions:
REMARK  status: ('A' for Active; 'I' for Inactive)
REMARK    1  A    between atoms: N_1  and  C_23
REMARK    2  A    between atoms: C_8  and  N_11
REMARK    3  A    between atoms: N_12  and  C_16
REMARK    4  A    between atoms: C_16  and  C_17
REMARK    5  A    between atoms: C_23  and  C_24
REMARK    6  A    between atoms: C_24  and  C_25
REMARK    7  A    between atoms: C_25  and  N_26
REMARK    8  A    between atoms: C_25  and  C_36
REMARK    9  A    between atoms: C_30  and  C_33
REMARK   10  A    between atoms: C_36  and  O_37
REMARK                            x       y       z     vdW  Elec       q    Type
REMARK                         _______ _______ _______ _____ _____    ______ ____
ROOT
ATOM      1  N   UNL     1      32.957 -13.880 -22.016  0.00  0.00    -0.286 N 
ATOM      2  C   UNL     1      32.431 -12.689 -21.569  0.00  0.00    +0.053 C 
ATOM      3  C   UNL     1      32.071 -12.876 -20.231  0.00  0.00    +0.015 C 
ATOM      4  C   UNL     1      32.944 -14.810 -21.010  0.00  0.00    +0.065 C 
ATOM      5  C   UNL     1      32.402 -14.217 -19.894  0.00  0.00    +0.017 C 
ATOM      6  C   UNL     1      32.246 -11.474 -22.239  0.00  0.00    +0.030 C 
ATOM      7  C   UNL     1      31.500 -11.798 -19.527  0.00  0.00    +0.003 C 
ATOM      8  C   UNL     1      31.678 -10.420 -21.518  0.00  0.00    +0.053 C 
ATOM      9  C   UNL     1      31.311 -10.576 -20.183  0.00  0.00    +0.015 C 
ENDROOT
BRANCH   8  11
ATOM     10  O   UNL     1      33.134  -7.815 -21.201  0.00  0.00    -0.252 OA
ATOM     11  N   UNL     1      31.479  -9.190 -22.148  0.00  0.00    -0.268 N 
ATOM     12  N   UNL     1      31.680  -6.978 -22.791  0.00  0.00    -0.285 N 
ATOM     13  C   UNL     1      32.191  -7.987 -21.968  0.00  0.00    +0.305 C 
ATOM     14  H   UNL     1      30.746  -9.159 -22.805  0.00  0.00    +0.156 HD
ATOM     15  H   UNL     1      30.921  -7.192 -23.380  0.00  0.00    +0.151 HD
BRANCH  12  16
ATOM     16  C   UNL     1      32.215  -5.636 -22.817  0.00  0.00    +0.118 C 
BRANCH  16  17
ATOM     17  C   UNL     1      33.105  -5.409 -24.004  0.00  0.00    -0.003 C 
ATOM     18  C   UNL     1      32.730  -4.503 -24.995  0.00  0.00    -0.003 C 
ATOM     19  C   UNL     1      34.309  -6.105 -24.116  0.00  0.00    -0.003 C 
ATOM     20  C   UNL     1      33.557  -4.293 -26.098  0.00  0.00    -0.000 C 
ATOM     21  C   UNL     1      35.137  -5.895 -25.219  0.00  0.00    -0.000 C 
ATOM     22  C   UNL     1      34.760  -4.988 -26.210  0.00  0.00    -0.000 C 
ENDBRANCH  16  17
ENDBRANCH  12  16
ENDBRANCH   8  11
BRANCH   1  23
ATOM     23  C   UNL     1      33.455 -14.131 -23.351  0.00  0.00    +0.097 C 
BRANCH  23  24
ATOM     24  C   UNL     1      34.841 -14.789 -23.395  0.00  0.00    +0.040 C 
BRANCH  24  25
ATOM     25  C   UNL     1      34.963 -15.999 -24.349  0.00  0.00    +0.091 C 
BRANCH  25  26
ATOM     26  N   UNL     1      35.032 -17.295 -23.651  0.00  0.00    -0.246 NA
ATOM     27  N   UNL     1      34.884 -19.452 -23.150  0.00  0.00    -0.251 NA
ATOM     28  C   UNL     1      35.506 -17.517 -22.382  0.00  0.00    +0.125 C 
ATOM     29  C   UNL     1      34.666 -18.480 -24.085  0.00  0.00    +0.201 C 
ATOM     30  C   UNL     1      35.425 -18.850 -22.049  0.00  0.00    +0.124 C 
BRANCH  30  33
ATOM     31  O   UNL     1      35.043 -20.270 -20.198  0.00  0.00    -0.269 OA
ATOM     32  N   UNL     1      37.105 -19.313 -20.367  0.00  0.00    -0.324 N 
ATOM     33  C   UNL     1      35.803 -19.509 -20.844  0.00  0.00    +0.257 C 
ATOM     34  H   UNL     1      37.397 -19.753 -19.538  0.00  0.00    +0.145 HD
ATOM     35  H   UNL     1      37.729 -18.733 -20.862  0.00  0.00    +0.145 HD
ENDBRANCH  30  33
ENDBRANCH  25  26
BRANCH  25  36
ATOM     36  C   UNL     1      33.813 -16.000 -25.370  0.00  0.00    +0.153 C 
BRANCH  36  37
ATOM     37  O   UNL     1      34.179 -15.220 -26.503  0.00  0.00    -0.381 OA
ATOM     38  H   UNL     1      34.561 -15.797 -27.182  0.00  0.00    +0.210 HD
ENDBRANCH  36  37
ENDBRANCH  25  36
ENDBRANCH  24  25
ENDBRANCH  23  24
ENDBRANCH   1  23
TORSDOF 10
ENDMDL
MODEL 3
REMARK VINA RESULT:     -11.7      1.449      1.989
REMARK  Name = 447546
REMARK  10 active torsions:
REMARK  status: ('A' for Active; 'I' for Inactive)
REMARK    1  A    between atoms: N_1  and  C_23
REMARK    2  A    between atoms: C_8  and  N_11
REMARK    3  A    between atoms: N_12  and  C_16
REMARK    4  A    between atoms: C_16  and  C_17
REMARK    5  A    between atoms: C_23  and  C_24
REMARK    6  A    between atoms: C_24  and  C_25
REMARK    7  A    between atoms: C_25  and  N_26
REMARK    8  A    between atoms: C_25  and  C_36
REMARK    9  A    between atoms: C_30  and  C_33
REMARK   10  A    between atoms: C_36  and  O_37
REMARK                            x       y       z     vdW  Elec       q    Type
REMARK                         _______ _______ _______ _____ _____    ______ ____
ROOT
ATOM      1  N   UNL     1      34.519 -24.105 -14.781  0.00  0.00    -0.286 N 
ATOM      2  C   UNL     1      35.477 -23.411 -15.485  0.00  0.00    +0.053 C 
ATOM      3  C   UNL     1      36.703 -23.659 -14.863  0.00  0.00    +0.015 C 
ATOM      4  C   UNL     1      35.095 -24.782 -13.740  0.00  0.00    +0.065 C 
ATOM      5  C   UNL     1      36.446 -24.525 -13.765  0.00  0.00    +0.017 C 
ATOM      6  C   UNL     1      35.354 -22.591 -16.613  0.00  0.00    +0.030 C 
ATOM      7  C   UNL     1      37.864 -23.060 -15.391  0.00  0.00    +0.003 C 
ATOM      8  C   UNL     1      36.520 -22.008 -17.118  0.00  0.00    +0.053 C 
ATOM      9  C   UNL     1      37.757 -22.238 -16.518  0.00  0.00    +0.015 C 
ENDROOT
BRANCH   8  11
ATOM     10  O   UNL     1      34.740 -22.175 -19.528  0.00  0.00    -0.252 OA
ATOM     11  N   UNL     1      36.442 -21.185 -18.243  0.00  0.00    -0.268 N 
ATOM     12  N   UNL     1      35.821 -20.272 -20.275  0.00  0.00    -0.285 N 
ATOM     13  C   UNL     1      35.586 -21.301 -19.356  0.00  0.00    +0.305 C 
ATOM     14  H   UNL     1      37.066 -20.423 -18.260  0.00  0.00    +0.156 HD
ATOM     15  H   UNL     1      36.516 -19.608 -20.067  0.00  0.00    +0.151 HD
BRANCH  12  16
ATOM     16  C   UNL     1      35.088 -20.139 -21.513  0.00  0.00    +0.118 C 
BRANCH  16  17
ATOM     17  C   UNL     1      35.048 -18.716 -21.992  0.00  0.00    -0.003 C 
ATOM     18  C   UNL     1      35.015 -17.671 -21.071  0.00  0.00    -0.003 C 
ATOM     19  C   UNL     1      35.045 -18.441 -23.360  0.00  0.00    -0.003 C 
ATOM     20  C   UNL     1      34.977 -16.349 -21.516  0.00  0.00    -0.000 C 
ATOM     21  C   UNL     1      35.007 -17.120 -23.805  0.00  0.00    -0.000 C 
ATOM     22  C   UNL     1      34.973 -16.074 -22.883  0.00  0.00    -0.000 C 
ENDBRANCH  16  17
ENDBRANCH  12  16
ENDBRANCH   8  11
BRANCH   1  23
ATOM     23  C   UNL     1      33.104 -24.126 -15.084  0.00  0.00    +0.097 C 
BRANCH  23  24
ATOM     24  C   UNL     1      32.309 -22.963 -14.473  0.00  0.00    +0.040 C 
BRANCH  24  25
ATOM     25  C   UNL     1      30.874 -23.315 -14.021  0.00  0.00    +0.091 C 
BRANCH  25  26
ATOM     26  N   UNL     1      29.844 -22.985 -15.022  0.00  0.00    -0.246 NA
ATOM     27  N   UNL     1      28.780 -22.595 -16.930  0.00  0.00    -0.251 NA
ATOM     28  C   UNL     1      28.535 -22.656 -14.772  0.00  0.00    +0.125 C 
ATOM     29  C   UNL     1      29.958 -22.939 -16.331  0.00  0.00    +0.201 C 
ATOM     30  C   UNL     1      27.854 -22.410 -15.942  0.00  0.00    +0.124 C 
BRANCH  30  33
ATOM     31  O   UNL     1      25.588 -22.238 -15.293  0.00  0.00    -0.269 OA
ATOM     32  N   UNL     1      26.151 -21.401 -17.336  0.00  0.00    -0.324 N 
ATOM     33  C   UNL     1      26.493 -22.041 -16.139  0.00  0.00    +0.257 C 
ATOM     34  H   UNL     1      25.219 -21.134 -17.503  0.00  0.00    +0.145 HD
ATOM     35  H   UNL     1      26.843 -21.219 -18.013  0.00  0.00    +0.145 HD
ENDBRANCH  30  33
ENDBRANCH  25  26
BRANCH  25  36
ATOM     36  C   UNL     1      30.780 -24.798 -13.624  0.00  0.00    +0.153 C 
BRANCH  36  37
ATOM     37  O   UNL     1      30.464 -24.904 -12.241  0.00  0.00    -0.381 OA
ATOM     38  H   UNL     1      31.283 -24.909 -11.722  0.00  0.00    +0.210 HD
ENDBRANCH  36  37
ENDBRANCH  25  36
ENDBRANCH  24  25
ENDBRANCH  23  24
ENDBRANCH   1  23
TORSDOF 10
ENDMDL
MODEL 4
REMARK VINA RESULT:     -11.5      5.956     11.565
REMARK  Name = 447546
REMARK  10 active torsions:
REMARK  status: ('A' for Active; 'I' for Inactive)
REMARK    1  A    between atoms: N_1  and  C_23
REMARK    2  A    between atoms: C_8  and  N_11
REMARK    3  A    between atoms: N_12  and  C_16
REMARK    4  A    between atoms: C_16  and  C_17
REMARK    5  A    between atoms: C_23  and  C_24
REMARK    6  A    between atoms: C_24  and  C_25
REMARK    7  A    between atoms: C_25  and  N_26
REMARK    8  A    between atoms: C_25  and  C_36
REMARK    9  A    between atoms: C_30  and  C_33
REMARK   10  A    between atoms: C_36  and  O_37
REMARK                            x       y       z     vdW  Elec       q    Type
REMARK                         _______ _______ _______ _____ _____    ______ ____
ROOT
ATOM      1  N   UNL     1      33.179 -13.848 -21.866  0.00  0.00    -0.286 N 
ATOM      2  C   UNL     1      33.914 -14.991 -22.087  0.00  0.00    +0.053 C 
ATOM      3  C   UNL     1      34.172 -15.053 -23.459  0.00  0.00    +0.015 C 
ATOM      4  C   UNL     1      32.966 -13.187 -23.046  0.00  0.00    +0.065 C 
ATOM      5  C   UNL     1      33.569 -13.908 -24.050  0.00  0.00    +0.017 C 
ATOM      6  C   UNL     1      34.364 -15.964 -21.188  0.00  0.00    +0.030 C 
ATOM      7  C   UNL     1      34.917 -16.140 -23.959  0.00  0.00    +0.003 C 
ATOM      8  C   UNL     1      35.101 -17.032 -21.709  0.00  0.00    +0.053 C 
ATOM      9  C   UNL     1      35.375 -17.120 -23.072  0.00  0.00    +0.015 C 
ENDROOT
BRANCH   8  11
ATOM     10  O   UNL     1      35.039 -20.022 -21.966  0.00  0.00    -0.252 OA
ATOM     11  N   UNL     1      35.571 -18.024 -20.846  0.00  0.00    -0.268 N 
ATOM     12  N   UNL     1      36.104 -20.072 -19.914  0.00  0.00    -0.285 N 
ATOM     13  C   UNL     1      35.521 -19.423 -21.008  0.00  0.00    +0.305 C 
ATOM     14  H   UNL     1      35.994 -17.704 -20.016  0.00  0.00    +0.156 HD
ATOM     15  H   UNL     1      36.470 -19.524 -19.184  0.00  0.00    +0.151 HD
BRANCH  12  16
ATOM     16  C   UNL     1      36.193 -21.510 -19.807  0.00  0.00    +0.118 C 
BRANCH  16  17
ATOM     17  C   UNL     1      35.404 -22.038 -18.644  0.00  0.00    -0.003 C 
ATOM     18  C   UNL     1      34.045 -22.310 -18.789  0.00  0.00    -0.003 C 
ATOM     19  C   UNL     1      36.033 -22.257 -17.418  0.00  0.00    -0.003 C 
ATOM     20  C   UNL     1      33.313 -22.800 -17.707  0.00  0.00    -0.000 C 
ATOM     21  C   UNL     1      35.300 -22.747 -16.337  0.00  0.00    -0.000 C 
ATOM     22  C   UNL     1      33.940 -23.019 -16.482  0.00  0.00    -0.000 C 
ENDBRANCH  16  17
ENDBRANCH  12  16
ENDBRANCH   8  11
BRANCH   1  23
ATOM     23  C   UNL     1      32.693 -13.396 -20.580  0.00  0.00    +0.097 C 
BRANCH  23  24
ATOM     24  C   UNL     1      31.683 -12.242 -20.655  0.00  0.00    +0.040 C 
BRANCH  24  25
ATOM     25  C   UNL     1      32.162 -10.910 -20.035  0.00  0.00    +0.091 C 
BRANCH  25  26
ATOM     26  N   UNL     1      31.939  -9.742 -20.904  0.00  0.00    -0.246 NA
ATOM     27  N   UNL     1      31.456  -8.440 -22.636  0.00  0.00    -0.251 NA
ATOM     28  C   UNL     1      32.093  -8.423 -20.559  0.00  0.00    +0.125 C 
ATOM     29  C   UNL     1      31.555  -9.718 -22.161  0.00  0.00    +0.201 C 
ATOM     30  C   UNL     1      31.798  -7.596 -21.618  0.00  0.00    +0.124 C 
BRANCH  30  33
ATOM     31  O   UNL     1      32.667  -5.528 -22.364  0.00  0.00    -0.269 OA
ATOM     32  N   UNL     1      30.845  -5.458 -20.997  0.00  0.00    -0.324 N 
ATOM     33  C   UNL     1      31.826  -6.173 -21.693  0.00  0.00    +0.257 C 
ATOM     34  H   UNL     1      30.837  -4.474 -21.028  0.00  0.00    +0.145 HD
ATOM     35  H   UNL     1      30.163  -5.938 -20.474  0.00  0.00    +0.145 HD
ENDBRANCH  30  33
ENDBRANCH  25  26
BRANCH  25  36
ATOM     36  C   UNL     1      31.508 -10.689 -18.660  0.00  0.00    +0.153 C 
BRANCH  36  37
ATOM     37  O   UNL     1      30.094 -10.796 -18.780  0.00  0.00    -0.381 OA
ATOM     38  H   UNL     1      29.739 -11.259 -18.005  0.00  0.00    +0.210 HD
ENDBRANCH  36  37
ENDBRANCH  25  36
ENDBRANCH  24  25
ENDBRANCH  23  24
ENDBRANCH   1  23
TORSDOF 10
ENDMDL
MODEL 5
REMARK VINA RESULT:     -11.4      1.314      1.762
REMARK  Name = 447546
REMARK  10 active torsions:
REMARK  status: ('A' for Active; 'I' for Inactive)
REMARK    1  A    between atoms: N_1  and  C_23
REMARK    2  A    between atoms: C_8  and  N_11
REMARK    3  A    between atoms: N_12  and  C_16
REMARK    4  A    between atoms: C_16  and  C_17
REMARK    5  A    between atoms: C_23  and  C_24
REMARK    6  A    between atoms: C_24  and  C_25
REMARK    7  A    between atoms: C_25  and  N_26
REMARK    8  A    between atoms: C_25  and  C_36
REMARK    9  A    between atoms: C_30  and  C_33
REMARK   10  A    between atoms: C_36  and  O_37
REMARK                            x       y       z     vdW  Elec       q    Type
REMARK                         _______ _______ _______ _____ _____    ______ ____
ROOT
ATOM      1  N   UNL     1      34.188 -22.843 -16.920  0.00  0.00    -0.286 N 
ATOM      2  C   UNL     1      34.828 -22.116 -17.898  0.00  0.00    +0.053 C 
ATOM      3  C   UNL     1      36.186 -22.093 -17.570  0.00  0.00    +0.015 C 
ATOM      4  C   UNL     1      35.092 -23.280 -15.988  0.00  0.00    +0.065 C 
ATOM      5  C   UNL     1      36.336 -22.832 -16.364  0.00  0.00    +0.017 C 
ATOM      6  C   UNL     1      34.315 -21.483 -19.036  0.00  0.00    +0.030 C 
ATOM      7  C   UNL     1      37.077 -21.405 -18.418  0.00  0.00    +0.003 C 
ATOM      8  C   UNL     1      35.219 -20.807 -19.862  0.00  0.00    +0.053 C 
ATOM      9  C   UNL     1      36.578 -20.768 -19.560  0.00  0.00    +0.015 C 
ENDROOT
BRANCH   8  11
ATOM     10  O   UNL     1      36.574 -18.844 -21.683  0.00  0.00    -0.252 OA
ATOM     11  N   UNL     1      34.749 -20.164 -21.008  0.00  0.00    -0.268 N 
ATOM     12  N   UNL     1      34.602 -18.829 -22.891  0.00  0.00    -0.285 N 
ATOM     13  C   UNL     1      35.423 -19.246 -21.837  0.00  0.00    +0.305 C 
ATOM     14  H   UNL     1      33.825 -20.382 -21.273  0.00  0.00    +0.156 HD
ATOM     15  H   UNL     1      33.691 -19.196 -22.948  0.00  0.00    +0.151 HD
BRANCH  12  16
ATOM     16  C   UNL     1      35.030 -17.887 -23.899  0.00  0.00    +0.118 C 
BRANCH  16  17
ATOM     17  C   UNL     1      34.629 -16.481 -23.560  0.00  0.00    -0.003 C 
ATOM     18  C   UNL     1      34.757 -16.014 -22.253  0.00  0.00    -0.003 C 
ATOM     19  C   UNL     1      34.128 -15.640 -24.555  0.00  0.00    -0.003 C 
ATOM     20  C   UNL     1      34.384 -14.707 -21.939  0.00  0.00    -0.000 C 
ATOM     21  C   UNL     1      33.755 -14.333 -24.241  0.00  0.00    -0.000 C 
ATOM     22  C   UNL     1      33.883 -13.867 -22.933  0.00  0.00    -0.000 C 
ENDBRANCH  16  17
ENDBRANCH  12  16
ENDBRANCH   8  11
BRANCH   1  23
ATOM     23  C   UNL     1      32.768 -23.115 -16.868  0.00  0.00    +0.097 C 
BRANCH  23  24
ATOM     24  C   UNL     1      32.311 -23.851 -15.601  0.00  0.00    +0.040 C 
BRANCH  24  25
ATOM     25  C   UNL     1      31.201 -23.141 -14.793  0.00  0.00    +0.091 C 
BRANCH  25  26
ATOM     26  N   UNL     1      29.863 -23.266 -15.396  0.00  0.00    -0.246 NA
ATOM     27  N   UNL     1      28.084 -24.019 -16.490  0.00  0.00    -0.251 NA
ATOM     28  C   UNL     1      28.850 -22.342 -15.340  0.00  0.00    +0.125 C 
ATOM     29  C   UNL     1      29.369 -24.263 -16.096  0.00  0.00    +0.201 C 
ATOM     30  C   UNL     1      27.735 -22.787 -16.011  0.00  0.00    +0.124 C 
BRANCH  30  33
ATOM     31  O   UNL     1      25.570 -22.125 -15.329  0.00  0.00    -0.269 OA
ATOM     32  N   UNL     1      26.240 -21.500 -17.416  0.00  0.00    -0.324 N 
ATOM     33  C   UNL     1      26.474 -22.151 -16.199  0.00  0.00    +0.257 C 
ATOM     34  H   UNL     1      25.379 -21.052 -17.577  0.00  0.00    +0.145 HD
ATOM     35  H   UNL     1      26.937 -21.492 -18.112  0.00  0.00    +0.145 HD
ENDBRANCH  30  33
ENDBRANCH  25  26
BRANCH  25  36
ATOM     36  C   UNL     1      31.184 -23.643 -13.340  0.00  0.00    +0.153 C 
BRANCH  36  37
ATOM     37  O   UNL     1      32.389 -23.259 -12.686  0.00  0.00    -0.381 OA
ATOM     38  H   UNL     1      32.678 -22.397 -13.025  0.00  0.00    +0.210 HD
ENDBRANCH  36  37
ENDBRANCH  25  36
ENDBRANCH  24  25
ENDBRANCH  23  24
ENDBRANCH   1  23
TORSDOF 10
ENDMDL
MODEL 6
REMARK VINA RESULT:     -11.3      3.502      7.436
REMARK  Name = 447546
REMARK  10 active torsions:
REMARK  status: ('A' for Active; 'I' for Inactive)
REMARK    1  A    between atoms: N_1  and  C_23
REMARK    2  A    between atoms: C_8  and  N_11
REMARK    3  A    between atoms: N_12  and  C_16
REMARK    4  A    between atoms: C_16  and  C_17
REMARK    5  A    between atoms: C_23  and  C_24
REMARK    6  A    between atoms: C_24  and  C_25
REMARK    7  A    between atoms: C_25  and  N_26
REMARK    8  A    between atoms: C_25  and  C_36
REMARK    9  A    between atoms: C_30  and  C_33
REMARK   10  A    between atoms: C_36  and  O_37
REMARK                            x       y       z     vdW  Elec       q    Type
REMARK                         _______ _______ _______ _____ _____    ______ ____
ROOT
ATOM      1  N   UNL     1      32.584 -24.735 -13.672  0.00  0.00    -0.286 N 
ATOM      2  C   UNL     1      32.152 -24.028 -14.772  0.00  0.00    +0.053 C 
ATOM      3  C   UNL     1      30.768 -23.876 -14.645  0.00  0.00    +0.015 C 
ATOM      4  C   UNL     1      31.525 -25.032 -12.856  0.00  0.00    +0.065 C 
ATOM      5  C   UNL     1      30.389 -24.514 -13.431  0.00  0.00    +0.017 C 
ATOM      6  C   UNL     1      32.871 -23.518 -15.859  0.00  0.00    +0.030 C 
ATOM      7  C   UNL     1      30.068 -23.181 -15.650  0.00  0.00    +0.003 C 
ATOM      8  C   UNL     1      32.153 -22.832 -16.843  0.00  0.00    +0.053 C 
ATOM      9  C   UNL     1      30.774 -22.664 -16.742  0.00  0.00    +0.015 C 
ENDROOT
BRANCH   8  11
ATOM     10  O   UNL     1      35.095 -22.487 -17.327  0.00  0.00    -0.252 OA
ATOM     11  N   UNL     1      32.833 -22.305 -17.943  0.00  0.00    -0.268 N 
ATOM     12  N   UNL     1      34.503 -21.586 -19.373  0.00  0.00    -0.285 N 
ATOM     13  C   UNL     1      34.223 -22.162 -18.128  0.00  0.00    +0.305 C 
ATOM     14  H   UNL     1      32.268 -21.993 -18.687  0.00  0.00    +0.156 HD
ATOM     15  H   UNL     1      33.750 -21.353 -19.962  0.00  0.00    +0.151 HD
BRANCH  12  16
ATOM     16  C   UNL     1      35.846 -21.321 -19.834  0.00  0.00    +0.118 C 
BRANCH  16  17
ATOM     17  C   UNL     1      35.897 -20.147 -20.769  0.00  0.00    -0.003 C 
ATOM     18  C   UNL     1      37.055 -19.376 -20.858  0.00  0.00    -0.003 C 
ATOM     19  C   UNL     1      34.786 -19.829 -21.549  0.00  0.00    -0.003 C 
ATOM     20  C   UNL     1      37.102 -18.286 -21.727  0.00  0.00    -0.000 C 
ATOM     21  C   UNL     1      34.833 -18.738 -22.418  0.00  0.00    -0.000 C 
ATOM     22  C   UNL     1      35.992 -17.967 -22.507  0.00  0.00    -0.000 C 
ENDBRANCH  16  17
ENDBRANCH  12  16
ENDBRANCH   8  11
BRANCH   1  23
ATOM     23  C   UNL     1      33.953 -25.116 -13.403  0.00  0.00    +0.097 C 
BRANCH  23  24
ATOM     24  C   UNL     1      34.677 -24.207 -12.399  0.00  0.00    +0.040 C 
BRANCH  24  25
ATOM     25  C   UNL     1      35.997 -24.776 -11.832  0.00  0.00    +0.091 C 
BRANCH  25  26
ATOM     26  N   UNL     1      37.122 -24.711 -12.781  0.00  0.00    -0.246 NA
ATOM     27  N   UNL     1      38.548 -24.048 -14.347  0.00  0.00    -0.251 NA
ATOM     28  C   UNL     1      38.095 -25.661 -12.964  0.00  0.00    +0.125 C 
ATOM     29  C   UNL     1      37.424 -23.753 -13.629  0.00  0.00    +0.201 C 
ATOM     30  C   UNL     1      38.992 -25.272 -13.932  0.00  0.00    +0.124 C 
BRANCH  30  33
ATOM     31  O   UNL     1      40.544 -25.864 -15.614  0.00  0.00    -0.269 OA
ATOM     32  N   UNL     1      40.878 -26.739 -13.536  0.00  0.00    -0.324 N 
ATOM     33  C   UNL     1      40.142 -25.950 -14.429  0.00  0.00    +0.257 C 
ATOM     34  H   UNL     1      41.677 -27.220 -13.848  0.00  0.00    +0.145 HD
ATOM     35  H   UNL     1      40.595 -26.812 -12.595  0.00  0.00    +0.145 HD
ENDBRANCH  30  33
ENDBRANCH  25  26
BRANCH  25  36
ATOM     36  C   UNL     1      36.365 -24.075 -10.514  0.00  0.00    +0.153 C 
BRANCH  36  37
ATOM     37  O   UNL     1      35.526 -24.551  -9.468  0.00  0.00    -0.381 OA
ATOM     38  H   UNL     1      36.065 -24.750  -8.686  0.00  0.00    +0.210 HD
ENDBRANCH  36  37
ENDBRANCH  25  36
ENDBRANCH  24  25
ENDBRANCH  23  24
ENDBRANCH   1  23
TORSDOF 10
ENDMDL
MODEL 7
REMARK VINA RESULT:     -11.2      5.692     10.568
REMARK  Name = 447546
REMARK  10 active torsions:
REMARK  status: ('A' for Active; 'I' for Inactive)
REMARK    1  A    between atoms: N_1  and  C_23
REMARK    2  A    between atoms: C_8  and  N_11
REMARK    3  A    between atoms: N_12  and  C_16
REMARK    4  A    between atoms: C_16  and  C_17
REMARK    5  A    between atoms: C_23  and  C_24
REMARK    6  A    between atoms: C_24  and  C_25
REMARK    7  A    between atoms: C_25  and  N_26
REMARK    8  A    between atoms: C_25  and  C_36
REMARK    9  A    between atoms: C_30  and  C_33
REMARK   10  A    between atoms: C_36  and  O_37
REMARK                            x       y       z     vdW  Elec       q    Type
REMARK                         _______ _______ _______ _____ _____    ______ ____
ROOT
ATOM      1  N   UNL     1      34.651 -15.975 -23.360  0.00  0.00    -0.286 N 
ATOM      2  C   UNL     1      34.339 -14.767 -23.943  0.00  0.00    +0.053 C 
ATOM      3  C   UNL     1      33.978 -15.032 -25.267  0.00  0.00    +0.015 C 
ATOM      4  C   UNL     1      34.500 -16.990 -24.266  0.00  0.00    +0.065 C 
ATOM      5  C   UNL     1      34.084 -16.438 -25.455  0.00  0.00    +0.017 C 
ATOM      6  C   UNL     1      34.348 -13.475 -23.406  0.00  0.00    +0.030 C 
ATOM      7  C   UNL     1      33.609 -13.955 -26.097  0.00  0.00    +0.003 C 
ATOM      8  C   UNL     1      33.978 -12.423 -24.249  0.00  0.00    +0.053 C 
ATOM      9  C   UNL     1      33.612 -12.657 -25.573  0.00  0.00    +0.015 C 
ENDROOT
BRANCH   8  11
ATOM     10  O   UNL     1      35.767 -10.096 -24.875  0.00  0.00    -0.252 OA
ATOM     11  N   UNL     1      33.971 -11.118 -23.752  0.00  0.00    -0.268 N 
ATOM     12  N   UNL     1      34.495  -8.901 -23.358  0.00  0.00    -0.285 N 
ATOM     13  C   UNL     1      34.834 -10.053 -24.077  0.00  0.00    +0.305 C 
ATOM     14  H   UNL     1      33.271 -10.916 -23.090  0.00  0.00    +0.156 HD
ATOM     15  H   UNL     1      33.734  -8.943 -22.736  0.00  0.00    +0.151 HD
BRANCH  12  16
ATOM     16  C   UNL     1      35.210  -7.652 -23.488  0.00  0.00    +0.118 C 
BRANCH  16  17
ATOM     17  C   UNL     1      34.333  -6.555 -24.020  0.00  0.00    -0.003 C 
ATOM     18  C   UNL     1      34.632  -5.953 -25.241  0.00  0.00    -0.003 C 
ATOM     19  C   UNL     1      33.218  -6.139 -23.292  0.00  0.00    -0.003 C 
ATOM     20  C   UNL     1      33.817  -4.935 -25.735  0.00  0.00    -0.000 C 
ATOM     21  C   UNL     1      32.403  -5.121 -23.786  0.00  0.00    -0.000 C 
ATOM     22  C   UNL     1      32.703  -4.519 -25.008  0.00  0.00    -0.000 C 
ENDBRANCH  16  17
ENDBRANCH  12  16
ENDBRANCH   8  11
BRANCH   1  23
ATOM     23  C   UNL     1      35.080 -16.162 -21.991  0.00  0.00    +0.097 C 
BRANCH  23  24
ATOM     24  C   UNL     1      34.845 -17.576 -21.443  0.00  0.00    +0.040 C 
BRANCH  24  25
ATOM     25  C   UNL     1      36.127 -18.375 -21.118  0.00  0.00    +0.091 C 
BRANCH  25  26
ATOM     26  N   UNL     1      35.870 -19.637 -20.402  0.00  0.00    -0.246 NA
ATOM     27  N   UNL     1      36.115 -21.515 -19.245  0.00  0.00    -0.251 NA
ATOM     28  C   UNL     1      34.650 -20.239 -20.216  0.00  0.00    +0.125 C 
ATOM     29  C   UNL     1      36.730 -20.431 -19.805  0.00  0.00    +0.201 C 
ATOM     30  C   UNL     1      34.777 -21.406 -19.500  0.00  0.00    +0.124 C 
BRANCH  30  33
ATOM     31  O   UNL     1      32.654 -21.993 -18.642  0.00  0.00    -0.269 OA
ATOM     32  N   UNL     1      34.054 -23.699 -19.211  0.00  0.00    -0.324 N 
ATOM     33  C   UNL     1      33.776 -22.332 -19.089  0.00  0.00    +0.257 C 
ATOM     34  H   UNL     1      33.384 -24.365 -18.936  0.00  0.00    +0.145 HD
ATOM     35  H   UNL     1      34.921 -23.995 -19.573  0.00  0.00    +0.145 HD
ENDBRANCH  30  33
ENDBRANCH  25  26
BRANCH  25  36
ATOM     36  C   UNL     1      36.939 -18.639 -22.397  0.00  0.00    +0.153 C 
BRANCH  36  37
ATOM     37  O   UNL     1      38.327 -18.489 -22.123  0.00  0.00    -0.381 OA
ATOM     38  H   UNL     1      38.460 -18.405 -21.165  0.00  0.00    +0.210 HD
ENDBRANCH  36  37
ENDBRANCH  25  36
ENDBRANCH  24  25
ENDBRANCH  23  24
ENDBRANCH   1  23
TORSDOF 10
ENDMDL
MODEL 8
REMARK VINA RESULT:     -10.8      2.631      4.758
REMARK  Name = 447546
REMARK  10 active torsions:
REMARK  status: ('A' for Active; 'I' for Inactive)
REMARK    1  A    between atoms: N_1  and  C_23
REMARK    2  A    between atoms: C_8  and  N_11
REMARK    3  A    between atoms: N_12  and  C_16
REMARK    4  A    between atoms: C_16  and  C_17
REMARK    5  A    between atoms: C_23  and  C_24
REMARK    6  A    between atoms: C_24  and  C_25
REMARK    7  A    between atoms: C_25  and  N_26
REMARK    8  A    between atoms: C_25  and  C_36
REMARK    9  A    between atoms: C_30  and  C_33
REMARK   10  A    between atoms: C_36  and  O_37
REMARK                            x       y       z     vdW  Elec       q    Type
REMARK                         _______ _______ _______ _____ _____    ______ ____
ROOT
ATOM      1  N   UNL     1      34.525 -22.576 -17.877  0.00  0.00    -0.286 N 
ATOM      2  C   UNL     1      35.066 -21.694 -18.786  0.00  0.00    +0.053 C 
ATOM      3  C   UNL     1      36.389 -21.466 -18.397  0.00  0.00    +0.015 C 
ATOM      4  C   UNL     1      35.457 -22.913 -16.933  0.00  0.00    +0.065 C 
ATOM      5  C   UNL     1      36.620 -22.242 -17.228  0.00  0.00    +0.017 C 
ATOM      6  C   UNL     1      34.492 -21.087 -19.908  0.00  0.00    +0.030 C 
ATOM      7  C   UNL     1      37.179 -20.588 -19.167  0.00  0.00    +0.003 C 
ATOM      8  C   UNL     1      35.296 -20.221 -20.656  0.00  0.00    +0.053 C 
ATOM      9  C   UNL     1      36.619 -19.975 -20.293  0.00  0.00    +0.015 C 
ENDROOT
BRANCH   8  11
ATOM     10  O   UNL     1      36.560 -18.317 -22.602  0.00  0.00    -0.252 OA
ATOM     11  N   UNL     1      34.764 -19.596 -21.784  0.00  0.00    -0.268 N 
ATOM     12  N   UNL     1      34.516 -18.300 -23.684  0.00  0.00    -0.285 N 
ATOM     13  C   UNL     1      35.397 -18.705 -22.674  0.00  0.00    +0.305 C 
ATOM     14  H   UNL     1      33.823 -19.806 -21.986  0.00  0.00    +0.156 HD
ATOM     15  H   UNL     1      33.599 -18.655 -23.676  0.00  0.00    +0.151 HD
BRANCH  12  16
ATOM     16  C   UNL     1      34.893 -17.386 -24.738  0.00  0.00    +0.118 C 
BRANCH  16  17
ATOM     17  C   UNL     1      34.453 -15.981 -24.446  0.00  0.00    -0.003 C 
ATOM     18  C   UNL     1      34.726 -15.407 -23.206  0.00  0.00    -0.003 C 
ATOM     19  C   UNL     1      33.771 -15.248 -25.419  0.00  0.00    -0.003 C 
ATOM     20  C   UNL     1      34.317 -14.101 -22.936  0.00  0.00    -0.000 C 
ATOM     21  C   UNL     1      33.361 -13.943 -25.149  0.00  0.00    -0.000 C 
ATOM     22  C   UNL     1      33.635 -13.369 -23.907  0.00  0.00    -0.000 C 
ENDBRANCH  16  17
ENDBRANCH  12  16
ENDBRANCH   8  11
BRANCH   1  23
ATOM     23  C   UNL     1      33.170 -23.083 -17.903  0.00  0.00    +0.097 C 
BRANCH  23  24
ATOM     24  C   UNL     1      32.303 -22.629 -16.720  0.00  0.00    +0.040 C 
BRANCH  24  25
ATOM     25  C   UNL     1      31.544 -23.759 -15.990  0.00  0.00    +0.091 C 
BRANCH  25  26
ATOM     26  N   UNL     1      32.143 -24.130 -14.696  0.00  0.00    -0.246 NA
ATOM     27  N   UNL     1      32.467 -24.944 -12.656  0.00  0.00    -0.251 NA
ATOM     28  C   UNL     1      33.422 -23.858 -14.277  0.00  0.00    +0.125 C 
ATOM     29  C   UNL     1      31.595 -24.785 -13.697  0.00  0.00    +0.201 C 
ATOM     30  C   UNL     1      33.646 -24.354 -13.014  0.00  0.00    +0.124 C 
BRANCH  30  33
ATOM     31  O   UNL     1      35.057 -25.081 -11.262  0.00  0.00    -0.269 OA
ATOM     32  N   UNL     1      35.776 -23.317 -12.513  0.00  0.00    -0.324 N 
ATOM     33  C   UNL     1      34.821 -24.295 -12.211  0.00  0.00    +0.257 C 
ATOM     34  H   UNL     1      36.599 -23.249 -11.977  0.00  0.00    +0.145 HD
ATOM     35  H   UNL     1      35.625 -22.696 -13.262  0.00  0.00    +0.145 HD
ENDBRANCH  30  33
ENDBRANCH  25  26
BRANCH  25  36
ATOM     36  C   UNL     1      30.063 -23.388 -15.809  0.00  0.00    +0.153 C 
BRANCH  36  37
ATOM     37  O   UNL     1      29.703 -22.383 -16.750  0.00  0.00    -0.381 OA
ATOM     38  H   UNL     1      30.498 -22.077 -17.215  0.00  0.00    +0.210 HD
ENDBRANCH  36  37
ENDBRANCH  25  36
ENDBRANCH  24  25
ENDBRANCH  23  24
ENDBRANCH   1  23
TORSDOF 10
ENDMDL
MODEL 9
REMARK VINA RESULT:     -10.7      5.106      9.982
REMARK  Name = 447546
REMARK  10 active torsions:
REMARK  status: ('A' for Active; 'I' for Inactive)
REMARK    1  A    between atoms: N_1  and  C_23
REMARK    2  A    between atoms: C_8  and  N_11
REMARK    3  A    between atoms: N_12  and  C_16
REMARK    4  A    between atoms: C_16  and  C_17
REMARK    5  A    between atoms: C_23  and  C_24
REMARK    6  A    between atoms: C_24  and  C_25
REMARK    7  A    between atoms: C_25  and  N_26
REMARK    8  A    between atoms: C_25  and  C_36
REMARK    9  A    between atoms: C_30  and  C_33
REMARK   10  A    between atoms: C_36  and  O_37
REMARK                            x       y       z     vdW  Elec       q    Type
REMARK                         _______ _______ _______ _____ _____    ______ ____
ROOT
ATOM      1  N   UNL     1      34.923 -16.520 -23.099  0.00  0.00    -0.286 N 
ATOM      2  C   UNL     1      34.464 -15.367 -23.697  0.00  0.00    +0.053 C 
ATOM      3  C   UNL     1      34.234 -15.667 -25.042  0.00  0.00    +0.015 C 
ATOM      4  C   UNL     1      34.989 -17.534 -24.017  0.00  0.00    +0.065 C 
ATOM      5  C   UNL     1      34.569 -17.037 -25.228  0.00  0.00    +0.017 C 
ATOM      6  C   UNL     1      34.238 -14.096 -23.156  0.00  0.00    +0.030 C 
ATOM      7  C   UNL     1      33.755 -14.648 -25.890  0.00  0.00    +0.003 C 
ATOM      8  C   UNL     1      33.763 -13.103 -24.017  0.00  0.00    +0.053 C 
ATOM      9  C   UNL     1      33.524 -13.373 -25.363  0.00  0.00    +0.015 C 
ENDROOT
BRANCH   8  11
ATOM     10  O   UNL     1      31.923 -12.184 -21.832  0.00  0.00    -0.252 OA
ATOM     11  N   UNL     1      33.522 -11.822 -23.518  0.00  0.00    -0.268 N 
ATOM     12  N   UNL     1      32.694 -10.051 -22.283  0.00  0.00    -0.285 N 
ATOM     13  C   UNL     1      32.645 -11.435 -22.485  0.00  0.00    +0.305 C 
ATOM     14  H   UNL     1      34.033 -11.095 -23.942  0.00  0.00    +0.156 HD
ATOM     15  H   UNL     1      33.299  -9.516 -22.845  0.00  0.00    +0.151 HD
BRANCH  12  16
ATOM     16  C   UNL     1      31.899  -9.372 -21.286  0.00  0.00    +0.118 C 
BRANCH  16  17
ATOM     17  C   UNL     1      31.739  -7.911 -21.595  0.00  0.00    -0.003 C 
ATOM     18  C   UNL     1      31.207  -7.510 -22.819  0.00  0.00    -0.003 C 
ATOM     19  C   UNL     1      32.122  -6.954 -20.654  0.00  0.00    -0.003 C 
ATOM     20  C   UNL     1      31.059  -6.153 -23.105  0.00  0.00    -0.000 C 
ATOM     21  C   UNL     1      31.974  -5.597 -20.940  0.00  0.00    -0.000 C 
ATOM     22  C   UNL     1      31.442  -5.197 -22.166  0.00  0.00    -0.000 C 
ENDBRANCH  16  17
ENDBRANCH  12  16
ENDBRANCH   8  11
BRANCH   1  23
ATOM     23  C   UNL     1      35.287 -16.657 -21.705  0.00  0.00    +0.097 C 
BRANCH  23  24
ATOM     24  C   UNL     1      34.993 -18.040 -21.108  0.00  0.00    +0.040 C 
BRANCH  24  25
ATOM     25  C   UNL     1      36.241 -18.865 -20.719  0.00  0.00    +0.091 C 
BRANCH  25  26
ATOM     26  N   UNL     1      35.922 -20.120 -20.017  0.00  0.00    -0.246 NA
ATOM     27  N   UNL     1      36.071 -22.006 -18.856  0.00  0.00    -0.251 NA
ATOM     28  C   UNL     1      34.680 -20.689 -19.881  0.00  0.00    +0.125 C 
ATOM     29  C   UNL     1      36.736 -20.938 -19.388  0.00  0.00    +0.201 C 
ATOM     30  C   UNL     1      34.748 -21.861 -19.163  0.00  0.00    +0.124 C 
BRANCH  30  33
ATOM     31  O   UNL     1      32.649 -22.406 -18.221  0.00  0.00    -0.269 OA
ATOM     32  N   UNL     1      33.865 -24.115 -19.111  0.00  0.00    -0.324 N 
ATOM     33  C   UNL     1      33.707 -22.761 -18.794  0.00  0.00    +0.257 C 
ATOM     34  H   UNL     1      33.164 -24.762 -18.870  0.00  0.00    +0.145 HD
ATOM     35  H   UNL     1      34.678 -24.421 -19.576  0.00  0.00    +0.145 HD
ENDBRANCH  30  33
ENDBRANCH  25  26
BRANCH  25  36
ATOM     36  C   UNL     1      37.111 -19.147 -21.955  0.00  0.00    +0.153 C 
BRANCH  36  37
ATOM     37  O   UNL     1      38.327 -18.414 -21.862  0.00  0.00    -0.381 OA
ATOM     38  H   UNL     1      38.302 -17.846 -21.076  0.00  0.00    +0.210 HD
ENDBRANCH  36  37
ENDBRANCH  25  36
ENDBRANCH  24  25
ENDBRANCH  23  24
ENDBRANCH   1  23
TORSDOF 10
ENDMDL
