MODEL 1
REMARK VINA RESULT:     -12.4      0.000      0.000
REMARK  Name = 16040289
REMARK  6 active torsions:
REMARK  status: ('A' for Active; 'I' for Inactive)
REMARK    1  A    between atoms: N_2  and  C_20
REMARK    2  A    between atoms: C_3  and  C_6
REMARK    3  A    between atoms: N_11  and  C_13
REMARK    4  A    between atoms: C_13  and  C_15
REMARK    5  A    between atoms: C_23  and  O_26
REMARK    6  A    between atoms: O_26  and  C_27
REMARK                            x       y       z     vdW  Elec       q    Type
REMARK                         _______ _______ _______ _____ _____    ______ ____
ROOT
ATOM      1  O   UNL     1      34.733 -22.883 -16.449  0.00  0.00    -0.270 OA
ATOM      2  N   UNL     1      32.991 -22.221 -17.882  0.00  0.00    -0.280 N 
ATOM      3  C   UNL     1      33.545 -22.832 -16.750  0.00  0.00    +0.252 C 
ATOM      4  H   UNL     1      32.011 -22.276 -17.965  0.00  0.00    +0.155 HD
ENDROOT
BRANCH   3   6
ATOM      5  N   UNL     1      32.082 -24.602 -13.781  0.00  0.00    -0.229 NA
ATOM      6  C   UNL     1      32.574 -23.505 -15.848  0.00  0.00    +0.085 C 
ATOM      7  C   UNL     1      32.944 -23.985 -14.620  0.00  0.00    +0.133 C 
ATOM      8  C   UNL     1      31.273 -23.639 -16.277  0.00  0.00    +0.009 C 
ATOM      9  C   UNL     1      30.356 -24.268 -15.441  0.00  0.00    +0.021 C 
ATOM     10  C   UNL     1      30.808 -24.728 -14.214  0.00  0.00    +0.100 C 
ATOM     11  N   UNL     1      34.288 -23.837 -14.195  0.00  0.00    -0.314 N 
ATOM     12  H   UNL     1      34.927 -23.389 -14.795  0.00  0.00    +0.149 HD
BRANCH  11  13
ATOM     13  C   UNL     1      34.752 -24.311 -12.932  0.00  0.00    +0.115 C 
BRANCH  13  15
ATOM     14  N   UNL     1      38.449 -26.430 -13.386  0.00  0.00    -0.242 NA
ATOM     15  C   UNL     1      36.049 -25.055 -13.092  0.00  0.00    +0.000 C 
ATOM     16  C   UNL     1      36.479 -25.419 -14.356  0.00  0.00    +0.018 C 
ATOM     17  C   UNL     1      36.801 -25.369 -11.972  0.00  0.00    +0.018 C 
ATOM     18  C   UNL     1      37.680 -26.102 -14.450  0.00  0.00    +0.099 C 
ATOM     19  C   UNL     1      37.989 -26.054 -12.173  0.00  0.00    +0.099 C 
ENDBRANCH  13  15
ENDBRANCH  11  13
ENDBRANCH   3   6
BRANCH   2  20
ATOM     20  C   UNL     1      33.654 -21.543 -18.904  0.00  0.00    +0.051 C 
ATOM     21  C   UNL     1      35.035 -21.680 -19.051  0.00  0.00    +0.018 C 
ATOM     22  C   UNL     1      32.937 -20.728 -19.780  0.00  0.00    +0.018 C 
ATOM     23  C   UNL     1      34.981 -20.186 -20.950  0.00  0.00    +0.145 C 
ATOM     24  C   UNL     1      35.698 -21.001 -20.075  0.00  0.00    +0.039 C 
ATOM     25  C   UNL     1      33.601 -20.050 -20.803  0.00  0.00    +0.039 C 
BRANCH  23  26
ATOM     26  O   UNL     1      35.628 -19.523 -21.947  0.00  0.00    -0.453 OA
BRANCH  26  27
ATOM     27  C   UNL     1      35.280 -18.203 -22.173  0.00  0.00    +0.145 C 
ATOM     28  C   UNL     1      35.135 -17.350 -21.093  0.00  0.00    +0.037 C 
ATOM     29  C   UNL     1      35.086 -17.769 -23.472  0.00  0.00    +0.037 C 
ATOM     30  C   UNL     1      34.783 -16.019 -21.321  0.00  0.00    +0.003 C 
ATOM     31  C   UNL     1      34.735 -16.438 -23.700  0.00  0.00    +0.003 C 
ATOM     32  C   UNL     1      34.584 -15.564 -22.624  0.00  0.00    +0.000 C 
ENDBRANCH  26  27
ENDBRANCH  23  26
ENDBRANCH   2  20
TORSDOF 6
ENDMDL
MODEL 2
REMARK VINA RESULT:     -11.7      1.773      4.838
REMARK  Name = 16040289
REMARK  6 active torsions:
REMARK  status: ('A' for Active; 'I' for Inactive)
REMARK    1  A    between atoms: N_2  and  C_20
REMARK    2  A    between atoms: C_3  and  C_6
REMARK    3  A    between atoms: N_11  and  C_13
REMARK    4  A    between atoms: C_13  and  C_15
REMARK    5  A    between atoms: C_23  and  O_26
REMARK    6  A    between atoms: O_26  and  C_27
REMARK                            x       y       z     vdW  Elec       q    Type
REMARK                         _______ _______ _______ _____ _____    ______ ____
ROOT
ATOM      1  O   UNL     1      33.129 -23.496 -17.725  0.00  0.00    -0.270 OA
ATOM      2  N   UNL     1      35.044 -22.154 -17.490  0.00  0.00    -0.280 N 
ATOM      3  C   UNL     1      34.087 -23.089 -17.077  0.00  0.00    +0.252 C 
ATOM      4  H   UNL     1      35.750 -21.941 -16.836  0.00  0.00    +0.155 HD
ENDROOT
BRANCH   3   6
ATOM      5  N   UNL     1      33.351 -24.078 -13.532  0.00  0.00    -0.229 NA
ATOM      6  C   UNL     1      34.257 -23.608 -15.695  0.00  0.00    +0.085 C 
ATOM      7  C   UNL     1      33.224 -23.613 -14.795  0.00  0.00    +0.133 C 
ATOM      8  C   UNL     1      35.492 -24.090 -15.328  0.00  0.00    +0.009 C 
ATOM      9  C   UNL     1      35.663 -24.577 -14.036  0.00  0.00    +0.021 C 
ATOM     10  C   UNL     1      34.570 -24.549 -13.184  0.00  0.00    +0.100 C 
ATOM     11  N   UNL     1      31.958 -23.113 -15.191  0.00  0.00    -0.314 N 
ATOM     12  H   UNL     1      31.850 -22.773 -16.108  0.00  0.00    +0.149 HD
BRANCH  11  13
ATOM     13  C   UNL     1      30.834 -23.085 -14.313  0.00  0.00    +0.115 C 
BRANCH  13  15
ATOM     14  N   UNL     1      27.182 -23.128 -16.556  0.00  0.00    -0.242 NA
ATOM     15  C   UNL     1      29.552 -23.100 -15.100  0.00  0.00    +0.000 C 
ATOM     16  C   UNL     1      28.512 -22.265 -14.731  0.00  0.00    +0.018 C 
ATOM     17  C   UNL     1      29.425 -23.950 -16.185  0.00  0.00    +0.018 C 
ATOM     18  C   UNL     1      27.353 -22.316 -15.488  0.00  0.00    +0.099 C 
ATOM     19  C   UNL     1      28.225 -23.925 -16.878  0.00  0.00    +0.099 C 
ENDBRANCH  13  15
ENDBRANCH  11  13
ENDBRANCH   3   6
BRANCH   2  20
ATOM     20  C   UNL     1      35.122 -21.486 -18.712  0.00  0.00    +0.051 C 
ATOM     21  C   UNL     1      36.367 -21.164 -19.254  0.00  0.00    +0.018 C 
ATOM     22  C   UNL     1      33.954 -21.140 -19.393  0.00  0.00    +0.018 C 
ATOM     23  C   UNL     1      35.277 -20.150 -21.157  0.00  0.00    +0.145 C 
ATOM     24  C   UNL     1      36.444 -20.497 -20.477  0.00  0.00    +0.039 C 
ATOM     25  C   UNL     1      34.032 -20.472 -20.616  0.00  0.00    +0.039 C 
BRANCH  23  26
ATOM     26  O   UNL     1      35.352 -19.497 -22.348  0.00  0.00    -0.453 OA
BRANCH  26  27
ATOM     27  C   UNL     1      35.123 -18.132 -22.350  0.00  0.00    +0.145 C 
ATOM     28  C   UNL     1      35.001 -17.468 -21.142  0.00  0.00    +0.037 C 
ATOM     29  C   UNL     1      35.022 -17.466 -23.558  0.00  0.00    +0.037 C 
ATOM     30  C   UNL     1      34.769 -16.092 -21.144  0.00  0.00    +0.003 C 
ATOM     31  C   UNL     1      34.790 -16.090 -23.560  0.00  0.00    +0.003 C 
ATOM     32  C   UNL     1      34.664 -15.404 -22.352  0.00  0.00    +0.000 C 
ENDBRANCH  26  27
ENDBRANCH  23  26
ENDBRANCH   2  20
TORSDOF 6
ENDMDL
MODEL 3
REMARK VINA RESULT:     -11.4      1.608      4.460
REMARK  Name = 16040289
REMARK  6 active torsions:
REMARK  status: ('A' for Active; 'I' for Inactive)
REMARK    1  A    between atoms: N_2  and  C_20
REMARK    2  A    between atoms: C_3  and  C_6
REMARK    3  A    between atoms: N_11  and  C_13
REMARK    4  A    between atoms: C_13  and  C_15
REMARK    5  A    between atoms: C_23  and  O_26
REMARK    6  A    between atoms: O_26  and  C_27
REMARK                            x       y       z     vdW  Elec       q    Type
REMARK                         _______ _______ _______ _____ _____    ______ ____
ROOT
ATOM      1  O   UNL     1      37.246 -21.616 -15.803  0.00  0.00    -0.270 OA
ATOM      2  N   UNL     1      35.707 -23.126 -16.739  0.00  0.00    -0.280 N 
ATOM      3  C   UNL     1      36.680 -22.704 -15.825  0.00  0.00    +0.252 C 
ATOM      4  H   UNL     1      35.358 -24.038 -16.607  0.00  0.00    +0.155 HD
ENDROOT
BRANCH   3   6
ATOM      5  N   UNL     1      36.497 -25.121 -12.959  0.00  0.00    -0.229 NA
ATOM      6  C   UNL     1      37.071 -23.707 -14.801  0.00  0.00    +0.085 C 
ATOM      7  C   UNL     1      36.168 -24.209 -13.902  0.00  0.00    +0.133 C 
ATOM      8  C   UNL     1      38.380 -24.131 -14.771  0.00  0.00    +0.009 C 
ATOM      9  C   UNL     1      38.757 -25.069 -13.815  0.00  0.00    +0.021 C 
ATOM     10  C   UNL     1      37.786 -25.528 -12.940  0.00  0.00    +0.100 C 
ATOM     11  N   UNL     1      34.823 -23.763 -13.948  0.00  0.00    -0.314 N 
ATOM     12  H   UNL     1      34.569 -23.100 -14.630  0.00  0.00    +0.149 HD
BRANCH  11  13
ATOM     13  C   UNL     1      33.824 -24.237 -13.047  0.00  0.00    +0.115 C 
BRANCH  13  15
ATOM     14  N   UNL     1      29.962 -24.127 -14.902  0.00  0.00    -0.242 NA
ATOM     15  C   UNL     1      32.468 -24.199 -13.698  0.00  0.00    +0.000 C 
ATOM     16  C   UNL     1      31.456 -25.013 -13.221  0.00  0.00    +0.018 C 
ATOM     17  C   UNL     1      32.247 -23.349 -14.768  0.00  0.00    +0.018 C 
ATOM     18  C   UNL     1      30.227 -24.940 -13.854  0.00  0.00    +0.099 C 
ATOM     19  C   UNL     1      30.981 -23.350 -15.332  0.00  0.00    +0.099 C 
ENDBRANCH  13  15
ENDBRANCH  11  13
ENDBRANCH   3   6
BRANCH   2  20
ATOM     20  C   UNL     1      35.169 -22.416 -17.812  0.00  0.00    +0.051 C 
ATOM     21  C   UNL     1      33.786 -22.349 -17.982  0.00  0.00    +0.018 C 
ATOM     22  C   UNL     1      36.015 -21.772 -18.715  0.00  0.00    +0.018 C 
ATOM     23  C   UNL     1      34.095 -20.994 -19.959  0.00  0.00    +0.145 C 
ATOM     24  C   UNL     1      33.249 -21.637 -19.056  0.00  0.00    +0.039 C 
ATOM     25  C   UNL     1      35.477 -21.060 -19.789  0.00  0.00    +0.039 C 
BRANCH  23  26
ATOM     26  O   UNL     1      33.571 -20.302 -21.007  0.00  0.00    -0.453 OA
BRANCH  26  27
ATOM     27  C   UNL     1      34.362 -19.331 -21.597  0.00  0.00    +0.145 C 
ATOM     28  C   UNL     1      34.617 -18.158 -20.908  0.00  0.00    +0.037 C 
ATOM     29  C   UNL     1      34.877 -19.557 -22.861  0.00  0.00    +0.037 C 
ATOM     30  C   UNL     1      35.413 -17.179 -21.503  0.00  0.00    +0.003 C 
ATOM     31  C   UNL     1      35.673 -18.578 -23.456  0.00  0.00    +0.003 C 
ATOM     32  C   UNL     1      35.941 -17.390 -22.777  0.00  0.00    +0.000 C 
ENDBRANCH  26  27
ENDBRANCH  23  26
ENDBRANCH   2  20
TORSDOF 6
ENDMDL
MODEL 4
REMARK VINA RESULT:     -11.2      1.849      4.706
REMARK  Name = 16040289
REMARK  6 active torsions:
REMARK  status: ('A' for Active; 'I' for Inactive)
REMARK    1  A    between atoms: N_2  and  C_20
REMARK    2  A    between atoms: C_3  and  C_6
REMARK    3  A    between atoms: N_11  and  C_13
REMARK    4  A    between atoms: C_13  and  C_15
REMARK    5  A    between atoms: C_23  and  O_26
REMARK    6  A    between atoms: O_26  and  C_27
REMARK                            x       y       z     vdW  Elec       q    Type
REMARK                         _______ _______ _______ _____ _____    ______ ____
ROOT
ATOM      1  O   UNL     1      34.379 -22.240 -17.943  0.00  0.00    -0.270 OA
ATOM      2  N   UNL     1      36.432 -21.233 -18.486  0.00  0.00    -0.280 N 
ATOM      3  C   UNL     1      35.567 -22.028 -17.724  0.00  0.00    +0.252 C 
ATOM      4  H   UNL     1      37.360 -21.173 -18.162  0.00  0.00    +0.155 HD
ENDROOT
BRANCH   3   6
ATOM      5  N   UNL     1      35.917 -23.793 -14.430  0.00  0.00    -0.229 NA
ATOM      6  C   UNL     1      36.168 -22.647 -16.514  0.00  0.00    +0.085 C 
ATOM      7  C   UNL     1      35.396 -23.224 -15.541  0.00  0.00    +0.133 C 
ATOM      8  C   UNL     1      37.538 -22.629 -16.386  0.00  0.00    +0.009 C 
ATOM      9  C   UNL     1      38.112 -23.204 -15.257  0.00  0.00    +0.021 C 
ATOM     10  C   UNL     1      37.264 -23.768 -14.317  0.00  0.00    +0.100 C 
ATOM     11  N   UNL     1      33.987 -23.235 -15.690  0.00  0.00    -0.314 N 
ATOM     12  H   UNL     1      33.594 -22.825 -16.494  0.00  0.00    +0.149 HD
BRANCH  11  13
ATOM     13  C   UNL     1      33.116 -23.816 -14.721  0.00  0.00    +0.115 C 
BRANCH  13  15
ATOM     14  N   UNL     1      29.043 -23.591 -16.039  0.00  0.00    -0.242 NA
ATOM     15  C   UNL     1      31.686 -23.736 -15.184  0.00  0.00    +0.000 C 
ATOM     16  C   UNL     1      31.321 -22.787 -16.122  0.00  0.00    +0.018 C 
ATOM     17  C   UNL     1      30.750 -24.615 -14.666  0.00  0.00    +0.018 C 
ATOM     18  C   UNL     1      29.994 -22.755 -16.515  0.00  0.00    +0.099 C 
ATOM     19  C   UNL     1      29.447 -24.501 -15.125  0.00  0.00    +0.099 C 
ENDBRANCH  13  15
ENDBRANCH  11  13
ENDBRANCH   3   6
BRANCH   2  20
ATOM     20  C   UNL     1      36.143 -20.516 -19.647  0.00  0.00    +0.051 C 
ATOM     21  C   UNL     1      34.870 -20.589 -20.213  0.00  0.00    +0.018 C 
ATOM     22  C   UNL     1      37.127 -19.726 -20.242  0.00  0.00    +0.018 C 
ATOM     23  C   UNL     1      35.564 -19.082 -21.969  0.00  0.00    +0.145 C 
ATOM     24  C   UNL     1      34.581 -19.871 -21.374  0.00  0.00    +0.039 C 
ATOM     25  C   UNL     1      36.837 -19.008 -21.403  0.00  0.00    +0.039 C 
BRANCH  23  26
ATOM     26  O   UNL     1      35.283 -18.384 -23.103  0.00  0.00    -0.453 OA
BRANCH  26  27
ATOM     27  C   UNL     1      34.934 -17.051 -22.968  0.00  0.00    +0.145 C 
ATOM     28  C   UNL     1      34.669 -16.306 -24.104  0.00  0.00    +0.037 C 
ATOM     29  C   UNL     1      34.859 -16.497 -21.703  0.00  0.00    +0.037 C 
ATOM     30  C   UNL     1      34.318 -14.962 -23.969  0.00  0.00    +0.003 C 
ATOM     31  C   UNL     1      34.507 -15.154 -21.567  0.00  0.00    +0.003 C 
ATOM     32  C   UNL     1      34.237 -14.387 -22.701  0.00  0.00    +0.000 C 
ENDBRANCH  26  27
ENDBRANCH  23  26
ENDBRANCH   2  20
TORSDOF 6
ENDMDL
MODEL 5
REMARK VINA RESULT:     -10.4      2.485      5.057
REMARK  Name = 16040289
REMARK  6 active torsions:
REMARK  status: ('A' for Active; 'I' for Inactive)
REMARK    1  A    between atoms: N_2  and  C_20
REMARK    2  A    between atoms: C_3  and  C_6
REMARK    3  A    between atoms: N_11  and  C_13
REMARK    4  A    between atoms: C_13  and  C_15
REMARK    5  A    between atoms: C_23  and  O_26
REMARK    6  A    between atoms: O_26  and  C_27
REMARK                            x       y       z     vdW  Elec       q    Type
REMARK                         _______ _______ _______ _____ _____    ______ ____
ROOT
ATOM      1  O   UNL     1      34.179 -21.472 -19.459  0.00  0.00    -0.270 OA
ATOM      2  N   UNL     1      36.159 -20.270 -19.861  0.00  0.00    -0.280 N 
ATOM      3  C   UNL     1      35.329 -21.162 -19.170  0.00  0.00    +0.252 C 
ATOM      4  H   UNL     1      37.059 -20.139 -19.485  0.00  0.00    +0.155 HD
ENDROOT
BRANCH   3   6
ATOM      5  N   UNL     1      35.775 -23.290 -16.110  0.00  0.00    -0.229 NA
ATOM      6  C   UNL     1      35.919 -21.762 -17.945  0.00  0.00    +0.085 C 
ATOM      7  C   UNL     1      35.263 -22.728 -17.228  0.00  0.00    +0.133 C 
ATOM      8  C   UNL     1      37.157 -21.323 -17.535  0.00  0.00    +0.009 C 
ATOM      9  C   UNL     1      37.718 -21.877 -16.390  0.00  0.00    +0.021 C 
ATOM     10  C   UNL     1      36.992 -22.849 -15.719  0.00  0.00    +0.100 C 
ATOM     11  N   UNL     1      33.989 -23.170 -17.665  0.00  0.00    -0.314 N 
ATOM     12  H   UNL     1      33.604 -22.770 -18.478  0.00  0.00    +0.149 HD
BRANCH  11  13
ATOM     13  C   UNL     1      33.244 -24.171 -16.974  0.00  0.00    +0.115 C 
BRANCH  13  15
ATOM     14  N   UNL     1      30.312 -22.362 -14.425  0.00  0.00    -0.242 NA
ATOM     15  C   UNL     1      32.215 -23.536 -16.078  0.00  0.00    +0.000 C 
ATOM     16  C   UNL     1      32.502 -23.334 -14.740  0.00  0.00    +0.018 C 
ATOM     17  C   UNL     1      30.990 -23.160 -16.603  0.00  0.00    +0.018 C 
ATOM     18  C   UNL     1      31.522 -22.746 -13.959  0.00  0.00    +0.099 C 
ATOM     19  C   UNL     1      30.077 -22.579 -15.738  0.00  0.00    +0.099 C 
ENDBRANCH  13  15
ENDBRANCH  11  13
ENDBRANCH   3   6
BRANCH   2  20
ATOM     20  C   UNL     1      35.868 -19.546 -21.017  0.00  0.00    +0.051 C 
ATOM     21  C   UNL     1      34.807 -19.935 -21.836  0.00  0.00    +0.018 C 
ATOM     22  C   UNL     1      36.638 -18.433 -21.355  0.00  0.00    +0.018 C 
ATOM     23  C   UNL     1      35.287 -18.097 -23.330  0.00  0.00    +0.145 C 
ATOM     24  C   UNL     1      34.517 -19.210 -22.992  0.00  0.00    +0.039 C 
ATOM     25  C   UNL     1      36.347 -17.709 -22.512  0.00  0.00    +0.039 C 
BRANCH  23  26
ATOM     26  O   UNL     1      35.005 -17.392 -24.459  0.00  0.00    -0.453 OA
BRANCH  26  27
ATOM     27  C   UNL     1      34.492 -16.114 -24.309  0.00  0.00    +0.145 C 
ATOM     28  C   UNL     1      33.890 -15.498 -25.392  0.00  0.00    +0.037 C 
ATOM     29  C   UNL     1      34.596 -15.486 -23.080  0.00  0.00    +0.037 C 
ATOM     30  C   UNL     1      33.375 -14.211 -25.241  0.00  0.00    +0.003 C 
ATOM     31  C   UNL     1      34.080 -14.199 -22.929  0.00  0.00    +0.003 C 
ATOM     32  C   UNL     1      33.470 -13.562 -24.010  0.00  0.00    +0.000 C 
ENDBRANCH  26  27
ENDBRANCH  23  26
ENDBRANCH   2  20
TORSDOF 6
ENDMDL
MODEL 6
REMARK VINA RESULT:     -10.4      5.570     12.060
REMARK  Name = 16040289
REMARK  6 active torsions:
REMARK  status: ('A' for Active; 'I' for Inactive)
REMARK    1  A    between atoms: N_2  and  C_20
REMARK    2  A    between atoms: C_3  and  C_6
REMARK    3  A    between atoms: N_11  and  C_13
REMARK    4  A    between atoms: C_13  and  C_15
REMARK    5  A    between atoms: C_23  and  O_26
REMARK    6  A    between atoms: O_26  and  C_27
REMARK                            x       y       z     vdW  Elec       q    Type
REMARK                         _______ _______ _______ _____ _____    ______ ____
ROOT
ATOM      1  O   UNL     1      33.503 -15.083 -22.454  0.00  0.00    -0.270 OA
ATOM      2  N   UNL     1      34.800 -16.545 -23.760  0.00  0.00    -0.280 N 
ATOM      3  C   UNL     1      34.019 -15.408 -23.518  0.00  0.00    +0.252 C 
ATOM      4  H   UNL     1      35.135 -16.650 -24.680  0.00  0.00    +0.155 HD
ENDROOT
BRANCH   3   6
ATOM      5  N   UNL     1      33.338 -12.372 -25.617  0.00  0.00    -0.229 NA
ATOM      6  C   UNL     1      33.782 -14.534 -24.697  0.00  0.00    +0.085 C 
ATOM      7  C   UNL     1      33.557 -13.190 -24.563  0.00  0.00    +0.133 C 
ATOM      8  C   UNL     1      33.793 -15.110 -25.947  0.00  0.00    +0.009 C 
ATOM      9  C   UNL     1      33.571 -14.301 -27.057  0.00  0.00    +0.021 C 
ATOM     10  C   UNL     1      33.351 -12.950 -26.840  0.00  0.00    +0.100 C 
ATOM     11  N   UNL     1      33.551 -12.614 -23.268  0.00  0.00    -0.314 N 
ATOM     12  H   UNL     1      33.710 -13.197 -22.491  0.00  0.00    +0.149 HD
BRANCH  11  13
ATOM     13  C   UNL     1      33.324 -11.223 -23.046  0.00  0.00    +0.115 C 
BRANCH  13  15
ATOM     14  N   UNL     1      31.024 -10.627 -19.479  0.00  0.00    -0.242 NA
ATOM     15  C   UNL     1      32.516 -11.014 -21.794  0.00  0.00    +0.000 C 
ATOM     16  C   UNL     1      31.975 -12.106 -21.137  0.00  0.00    +0.018 C 
ATOM     17  C   UNL     1      32.322  -9.731 -21.312  0.00  0.00    +0.018 C 
ATOM     18  C   UNL     1      31.241 -11.860 -19.990  0.00  0.00    +0.099 C 
ATOM     19  C   UNL     1      31.572  -9.592 -20.154  0.00  0.00    +0.099 C 
ENDBRANCH  13  15
ENDBRANCH  11  13
ENDBRANCH   3   6
BRANCH   2  20
ATOM     20  C   UNL     1      35.162 -17.547 -22.859  0.00  0.00    +0.051 C 
ATOM     21  C   UNL     1      35.717 -17.208 -21.625  0.00  0.00    +0.018 C 
ATOM     22  C   UNL     1      34.970 -18.888 -23.194  0.00  0.00    +0.018 C 
ATOM     23  C   UNL     1      35.887 -19.551 -21.059  0.00  0.00    +0.145 C 
ATOM     24  C   UNL     1      36.079 -18.211 -20.725  0.00  0.00    +0.039 C 
ATOM     25  C   UNL     1      35.332 -19.890 -22.293  0.00  0.00    +0.039 C 
BRANCH  23  26
ATOM     26  O   UNL     1      36.242 -20.529 -20.181  0.00  0.00    -0.453 OA
BRANCH  26  27
ATOM     27  C   UNL     1      35.231 -21.155 -19.472  0.00  0.00    +0.145 C 
ATOM     28  C   UNL     1      35.566 -22.036 -18.459  0.00  0.00    +0.037 C 
ATOM     29  C   UNL     1      33.914 -20.885 -19.793  0.00  0.00    +0.037 C 
ATOM     30  C   UNL     1      34.548 -22.669 -17.744  0.00  0.00    +0.003 C 
ATOM     31  C   UNL     1      32.895 -21.517 -19.079  0.00  0.00    +0.003 C 
ATOM     32  C   UNL     1      33.214 -22.408 -18.055  0.00  0.00    +0.000 C 
ENDBRANCH  26  27
ENDBRANCH  23  26
ENDBRANCH   2  20
TORSDOF 6
ENDMDL
MODEL 7
REMARK VINA RESULT:     -10.1      7.505     13.144
REMARK  Name = 16040289
REMARK  6 active torsions:
REMARK  status: ('A' for Active; 'I' for Inactive)
REMARK    1  A    between atoms: N_2  and  C_20
REMARK    2  A    between atoms: C_3  and  C_6
REMARK    3  A    between atoms: N_11  and  C_13
REMARK    4  A    between atoms: C_13  and  C_15
REMARK    5  A    between atoms: C_23  and  O_26
REMARK    6  A    between atoms: O_26  and  C_27
REMARK                            x       y       z     vdW  Elec       q    Type
REMARK                         _______ _______ _______ _____ _____    ______ ____
ROOT
ATOM      1  O   UNL     1      33.848 -12.188 -25.425  0.00  0.00    -0.270 OA
ATOM      2  N   UNL     1      34.626 -12.721 -23.272  0.00  0.00    -0.280 N 
ATOM      3  C   UNL     1      34.243 -11.863 -24.310  0.00  0.00    +0.252 C 
ATOM      4  H   UNL     1      34.919 -12.285 -22.438  0.00  0.00    +0.155 HD
ENDROOT
BRANCH   3   6
ATOM      5  N   UNL     1      33.482  -8.423 -23.017  0.00  0.00    -0.229 NA
ATOM      6  C   UNL     1      34.359 -10.411 -24.014  0.00  0.00    +0.085 C 
ATOM      7  C   UNL     1      33.401  -9.742 -23.299  0.00  0.00    +0.133 C 
ATOM      8  C   UNL     1      35.465  -9.738 -24.481  0.00  0.00    +0.009 C 
ATOM      9  C   UNL     1      35.584  -8.379 -24.210  0.00  0.00    +0.021 C 
ATOM     10  C   UNL     1      34.573  -7.774 -23.480  0.00  0.00    +0.100 C 
ATOM     11  N   UNL     1      32.269 -10.451 -22.825  0.00  0.00    -0.314 N 
ATOM     12  H   UNL     1      32.198 -11.413 -23.022  0.00  0.00    +0.149 HD
BRANCH  11  13
ATOM     13  C   UNL     1      31.229  -9.827 -22.074  0.00  0.00    +0.115 C 
BRANCH  13  15
ATOM     14  N   UNL     1      31.865 -10.394 -17.874  0.00  0.00    -0.242 NA
ATOM     15  C   UNL     1      31.453 -10.025 -20.600  0.00  0.00    +0.000 C 
ATOM     16  C   UNL     1      32.143  -9.069 -19.876  0.00  0.00    +0.018 C 
ATOM     17  C   UNL     1      30.966 -11.165 -19.981  0.00  0.00    +0.018 C 
ATOM     18  C   UNL     1      32.322  -9.299 -18.522  0.00  0.00    +0.099 C 
ATOM     19  C   UNL     1      31.197 -11.300 -18.622  0.00  0.00    +0.099 C 
ENDBRANCH  13  15
ENDBRANCH  11  13
ENDBRANCH   3   6
BRANCH   2  20
ATOM     20  C   UNL     1      34.646 -14.115 -23.272  0.00  0.00    +0.051 C 
ATOM     21  C   UNL     1      34.626 -14.813 -22.064  0.00  0.00    +0.018 C 
ATOM     22  C   UNL     1      34.686 -14.811 -24.480  0.00  0.00    +0.018 C 
ATOM     23  C   UNL     1      34.686 -16.905 -23.273  0.00  0.00    +0.145 C 
ATOM     24  C   UNL     1      34.646 -16.209 -22.065  0.00  0.00    +0.039 C 
ATOM     25  C   UNL     1      34.705 -16.207 -24.480  0.00  0.00    +0.039 C 
BRANCH  23  26
ATOM     26  O   UNL     1      34.707 -18.266 -23.274  0.00  0.00    -0.453 OA
BRANCH  26  27
ATOM     27  C   UNL     1      35.319 -18.901 -22.207  0.00  0.00    +0.145 C 
ATOM     28  C   UNL     1      36.646 -18.625 -21.929  0.00  0.00    +0.037 C 
ATOM     29  C   UNL     1      34.589 -19.796 -21.446  0.00  0.00    +0.037 C 
ATOM     30  C   UNL     1      37.263 -19.266 -20.855  0.00  0.00    +0.003 C 
ATOM     31  C   UNL     1      35.206 -20.437 -20.371  0.00  0.00    +0.003 C 
ATOM     32  C   UNL     1      36.543 -20.171 -20.076  0.00  0.00    +0.000 C 
ENDBRANCH  26  27
ENDBRANCH  23  26
ENDBRANCH   2  20
TORSDOF 6
ENDMDL
MODEL 8
REMARK VINA RESULT:     -10.0      4.992     11.625
REMARK  Name = 16040289
REMARK  6 active torsions:
REMARK  status: ('A' for Active; 'I' for Inactive)
REMARK    1  A    between atoms: N_2  and  C_20
REMARK    2  A    between atoms: C_3  and  C_6
REMARK    3  A    between atoms: N_11  and  C_13
REMARK    4  A    between atoms: C_13  and  C_15
REMARK    5  A    between atoms: C_23  and  O_26
REMARK    6  A    between atoms: O_26  and  C_27
REMARK                            x       y       z     vdW  Elec       q    Type
REMARK                         _______ _______ _______ _____ _____    ______ ____
ROOT
ATOM      1  O   UNL     1      34.803 -15.414 -21.859  0.00  0.00    -0.270 OA
ATOM      2  N   UNL     1      35.028 -17.408 -23.085  0.00  0.00    -0.280 N 
ATOM      3  C   UNL     1      34.723 -16.053 -22.903  0.00  0.00    +0.252 C 
ATOM      4  H   UNL     1      34.905 -17.759 -23.997  0.00  0.00    +0.155 HD
ENDROOT
BRANCH   3   6
ATOM      5  N   UNL     1      33.463 -13.339 -25.168  0.00  0.00    -0.229 NA
ATOM      6  C   UNL     1      34.228 -15.343 -24.111  0.00  0.00    +0.085 C 
ATOM      7  C   UNL     1      33.917 -14.009 -24.085  0.00  0.00    +0.133 C 
ATOM      8  C   UNL     1      34.085 -16.061 -25.276  0.00  0.00    +0.009 C 
ATOM      9  C   UNL     1      33.622 -15.407 -26.412  0.00  0.00    +0.021 C 
ATOM     10  C   UNL     1      33.327 -14.056 -26.306  0.00  0.00    +0.100 C 
ATOM     11  N   UNL     1      34.071 -13.284 -22.877  0.00  0.00    -0.314 N 
ATOM     12  H   UNL     1      34.401 -13.759 -22.080  0.00  0.00    +0.149 HD
BRANCH  11  13
ATOM     13  C   UNL     1      33.768 -11.894 -22.770  0.00  0.00    +0.115 C 
BRANCH  13  15
ATOM     14  N   UNL     1      30.759 -11.239 -19.788  0.00  0.00    -0.242 NA
ATOM     15  C   UNL     1      32.712 -11.665 -21.723  0.00  0.00    +0.000 C 
ATOM     16  C   UNL     1      32.433 -12.658 -20.801  0.00  0.00    +0.018 C 
ATOM     17  C   UNL     1      32.028 -10.461 -21.694  0.00  0.00    +0.018 C 
ATOM     18  C   UNL     1      31.453 -12.397 -19.858  0.00  0.00    +0.099 C 
ATOM     19  C   UNL     1      31.066 -10.298 -20.710  0.00  0.00    +0.099 C 
ENDBRANCH  13  15
ENDBRANCH  11  13
ENDBRANCH   3   6
BRANCH   2  20
ATOM     20  C   UNL     1      35.484 -18.321 -22.134  0.00  0.00    +0.051 C 
ATOM     21  C   UNL     1      36.819 -18.299 -21.730  0.00  0.00    +0.018 C 
ATOM     22  C   UNL     1      34.605 -19.257 -21.589  0.00  0.00    +0.018 C 
ATOM     23  C   UNL     1      36.396 -20.149 -20.234  0.00  0.00    +0.145 C 
ATOM     24  C   UNL     1      37.274 -19.214 -20.779  0.00  0.00    +0.039 C 
ATOM     25  C   UNL     1      35.061 -20.171 -20.639  0.00  0.00    +0.039 C 
BRANCH  23  26
ATOM     26  O   UNL     1      36.840 -21.042 -19.308  0.00  0.00    -0.453 OA
BRANCH  26  27
ATOM     27  C   UNL     1      35.894 -21.703 -18.545  0.00  0.00    +0.145 C 
ATOM     28  C   UNL     1      36.199 -22.042 -17.238  0.00  0.00    +0.037 C 
ATOM     29  C   UNL     1      34.668 -22.010 -19.107  0.00  0.00    +0.037 C 
ATOM     30  C   UNL     1      35.246 -22.709 -16.468  0.00  0.00    +0.003 C 
ATOM     31  C   UNL     1      33.714 -22.677 -18.337  0.00  0.00    +0.003 C 
ATOM     32  C   UNL     1      34.004 -23.026 -17.018  0.00  0.00    +0.000 C 
ENDBRANCH  26  27
ENDBRANCH  23  26
ENDBRANCH   2  20
TORSDOF 6
ENDMDL
MODEL 9
REMARK VINA RESULT:     -10.0     10.810     14.745
REMARK  Name = 16040289
REMARK  6 active torsions:
REMARK  status: ('A' for Active; 'I' for Inactive)
REMARK    1  A    between atoms: N_2  and  C_20
REMARK    2  A    between atoms: C_3  and  C_6
REMARK    3  A    between atoms: N_11  and  C_13
REMARK    4  A    between atoms: C_13  and  C_15
REMARK    5  A    between atoms: C_23  and  O_26
REMARK    6  A    between atoms: O_26  and  C_27
REMARK                            x       y       z     vdW  Elec       q    Type
REMARK                         _______ _______ _______ _____ _____    ______ ____
ROOT
ATOM      1  O   UNL     1      33.456 -10.323 -23.915  0.00  0.00    -0.270 OA
ATOM      2  N   UNL     1      32.856  -8.412 -22.684  0.00  0.00    -0.280 N 
ATOM      3  C   UNL     1      32.956  -9.787 -22.932  0.00  0.00    +0.252 C 
ATOM      4  H   UNL     1      32.421  -8.157 -21.838  0.00  0.00    +0.155 HD
ENDROOT
BRANCH   3   6
ATOM      5  N   UNL     1      32.272 -12.774 -20.766  0.00  0.00    -0.229 NA
ATOM      6  C   UNL     1      32.361 -10.667 -21.893  0.00  0.00    +0.085 C 
ATOM      7  C   UNL     1      32.796 -11.952 -21.702  0.00  0.00    +0.133 C 
ATOM      8  C   UNL     1      31.347 -10.160 -21.112  0.00  0.00    +0.009 C 
ATOM      9  C   UNL     1      30.783 -10.976 -20.137  0.00  0.00    +0.021 C 
ATOM     10  C   UNL     1      31.277 -12.264 -20.006  0.00  0.00    +0.100 C 
ATOM     11  N   UNL     1      33.842 -12.457 -22.515  0.00  0.00    -0.314 N 
ATOM     12  H   UNL     1      34.233 -11.869 -23.200  0.00  0.00    +0.149 HD
BRANCH  11  13
ATOM     13  C   UNL     1      34.349 -13.783 -22.378  0.00  0.00    +0.115 C 
BRANCH  13  15
ATOM     14  N   UNL     1      34.010 -15.911 -26.083  0.00  0.00    -0.242 NA
ATOM     15  C   UNL     1      34.229 -14.530 -23.678  0.00  0.00    +0.000 C 
ATOM     16  C   UNL     1      33.407 -14.039 -24.677  0.00  0.00    +0.018 C 
ATOM     17  C   UNL     1      34.945 -15.701 -23.863  0.00  0.00    +0.018 C 
ATOM     18  C   UNL     1      33.332 -14.763 -25.855  0.00  0.00    +0.099 C 
ATOM     19  C   UNL     1      34.801 -16.350 -25.079  0.00  0.00    +0.099 C 
ENDBRANCH  13  15
ENDBRANCH  11  13
ENDBRANCH   3   6
BRANCH   2  20
ATOM     20  C   UNL     1      33.298  -7.360 -23.486  0.00  0.00    +0.051 C 
ATOM     21  C   UNL     1      34.663  -7.168 -23.696  0.00  0.00    +0.018 C 
ATOM     22  C   UNL     1      32.373  -6.499 -24.077  0.00  0.00    +0.018 C 
ATOM     23  C   UNL     1      34.180  -5.254 -25.090  0.00  0.00    +0.145 C 
ATOM     24  C   UNL     1      35.104  -6.115 -24.499  0.00  0.00    +0.039 C 
ATOM     25  C   UNL     1      32.815  -5.446 -24.880  0.00  0.00    +0.039 C 
BRANCH  23  26
ATOM     26  O   UNL     1      34.611  -4.226 -25.871  0.00  0.00    -0.453 OA
BRANCH  26  27
ATOM     27  C   UNL     1      35.088  -4.532 -27.134  0.00  0.00    +0.145 C 
ATOM     28  C   UNL     1      34.231  -4.443 -28.217  0.00  0.00    +0.037 C 
ATOM     29  C   UNL     1      36.407  -4.921 -27.280  0.00  0.00    +0.037 C 
ATOM     30  C   UNL     1      34.712  -4.753 -29.490  0.00  0.00    +0.003 C 
ATOM     31  C   UNL     1      36.888  -5.230 -28.553  0.00  0.00    +0.003 C 
ATOM     32  C   UNL     1      36.040  -5.146 -29.657  0.00  0.00    +0.000 C 
ENDBRANCH  26  27
ENDBRANCH  23  26
ENDBRANCH   2  20
TORSDOF 6
ENDMDL
