MODEL 1
REMARK VINA RESULT:     -12.1      0.000      0.000
REMARK  Name = 10200651
REMARK  5 active torsions:
REMARK  status: ('A' for Active; 'I' for Inactive)
REMARK    1  A    between atoms: C_1  and  C_7
REMARK    2  A    between atoms: C_4  and  C_22
REMARK    3  A    between atoms: C_10  and  C_17
REMARK    4  A    between atoms: N_21  and  C_24
REMARK    5  A    between atoms: C_27  and  C_31
REMARK                            x       y       z     vdW  Elec       q    Type
REMARK                         _______ _______ _______ _____ _____    ______ ____
ROOT
ATOM      1  C   UNL     1      33.684 -14.056 -23.015  0.00  0.00    -0.000 C 
ATOM      2  C   UNL     1      34.178 -12.913 -23.644  0.00  0.00    +0.000 C 
ATOM      3  C   UNL     1      32.709 -13.941 -22.025  0.00  0.00    +0.000 C 
ATOM      4  C   UNL     1      32.731 -11.570 -22.301  0.00  0.00    +0.054 C 
ATOM      5  C   UNL     1      33.696 -11.655 -23.283  0.00  0.00    +0.005 C 
ATOM      6  C   UNL     1      32.227 -12.684 -21.664  0.00  0.00    +0.005 C 
ENDROOT
BRANCH   1   7
ATOM      7  C   UNL     1      34.185 -15.361 -23.389  0.00  0.00    -0.004 C 
ATOM      8  C   UNL     1      34.158 -15.791 -24.718  0.00  0.00    -0.022 C 
ATOM      9  C   UNL     1      34.702 -16.199 -22.399  0.00  0.00    +0.004 C 
ATOM     10  C   UNL     1      35.189 -17.462 -22.735  0.00  0.00    +0.055 C 
ATOM     11  C   UNL     1      34.645 -17.054 -25.054  0.00  0.00    -0.004 C 
ATOM     12  C   UNL     1      35.162 -17.889 -24.063  0.00  0.00    +0.004 C 
ATOM     13  C   UNL     1      33.612 -14.924 -25.806  0.00  0.00    +0.031 C 
BRANCH  10  17
ATOM     14  O   UNL     1      34.940 -19.380 -21.365  0.00  0.00    -0.420 OA
ATOM     15  N   UNL     1      36.849 -18.257 -21.052  0.00  0.00    -0.107 NA
ATOM     16  N   UNL     1      36.844 -19.340 -20.192  0.00  0.00    -0.111 NA
ATOM     17  C   UNL     1      35.723 -18.326 -21.711  0.00  0.00    +0.250 A 
ATOM     18  C   UNL     1      35.711 -19.966 -20.409  0.00  0.00    +0.227 A 
ATOM     19  C   UNL     1      35.177 -21.178 -19.779  0.00  0.00    +0.097 C 
ENDBRANCH  10  17
ENDBRANCH   1   7
BRANCH   4  22
ATOM     20  O   UNL     1      31.397 -10.171 -21.007  0.00  0.00    -0.270 OA
ATOM     21  N   UNL     1      32.754  -9.151 -22.633  0.00  0.00    -0.280 N 
ATOM     22  C   UNL     1      32.218 -10.229 -21.916  0.00  0.00    +0.249 C 
ATOM     23  H   UNL     1      33.406  -9.381 -23.334  0.00  0.00    +0.155 HD
BRANCH  21  24
ATOM     24  C   UNL     1      32.481  -7.792 -22.473  0.00  0.00    +0.051 C 
ATOM     25  C   UNL     1      32.637  -6.918 -23.549  0.00  0.00    +0.025 C 
ATOM     26  C   UNL     1      32.052  -7.307 -21.238  0.00  0.00    +0.015 C 
ATOM     27  C   UNL     1      32.364  -5.559 -23.390  0.00  0.00    +0.070 C 
ATOM     28  C   UNL     1      31.779  -5.949 -21.078  0.00  0.00    +0.002 C 
ATOM     29  C   UNL     1      31.936  -5.075 -22.154  0.00  0.00    +0.010 C 
BRANCH  27  31
ATOM     30  N   UNL     1      32.654  -3.936 -25.387  0.00  0.00    -0.191 NA
ATOM     31  C   UNL     1      32.524  -4.664 -24.491  0.00  0.00    +0.100 C 
ENDBRANCH  27  31
ENDBRANCH  21  24
ENDBRANCH   4  22
TORSDOF 5
ENDMDL
MODEL 2
REMARK VINA RESULT:     -12.0      4.235     12.728
REMARK  Name = 10200651
REMARK  5 active torsions:
REMARK  status: ('A' for Active; 'I' for Inactive)
REMARK    1  A    between atoms: C_1  and  C_7
REMARK    2  A    between atoms: C_4  and  C_22
REMARK    3  A    between atoms: C_10  and  C_17
REMARK    4  A    between atoms: N_21  and  C_24
REMARK    5  A    between atoms: C_27  and  C_31
REMARK                            x       y       z     vdW  Elec       q    Type
REMARK                         _______ _______ _______ _____ _____    ______ ____
ROOT
ATOM      1  C   UNL     1      34.703 -19.749 -21.149  0.00  0.00    -0.000 C 
ATOM      2  C   UNL     1      33.460 -20.154 -20.663  0.00  0.00    +0.000 C 
ATOM      3  C   UNL     1      35.872 -20.293 -20.617  0.00  0.00    +0.000 C 
ATOM      4  C   UNL     1      34.557 -21.625 -19.135  0.00  0.00    +0.054 C 
ATOM      5  C   UNL     1      33.386 -21.103 -19.644  0.00  0.00    +0.005 C 
ATOM      6  C   UNL     1      35.798 -21.242 -19.598  0.00  0.00    +0.005 C 
ENDROOT
BRANCH   1   7
ATOM      7  C   UNL     1      34.780 -18.764 -22.207  0.00  0.00    -0.004 C 
ATOM      8  C   UNL     1      35.005 -19.143 -23.532  0.00  0.00    -0.022 C 
ATOM      9  C   UNL     1      34.624 -17.414 -21.888  0.00  0.00    +0.004 C 
ATOM     10  C   UNL     1      34.695 -16.445 -22.890  0.00  0.00    +0.055 C 
ATOM     11  C   UNL     1      35.076 -18.175 -24.533  0.00  0.00    -0.004 C 
ATOM     12  C   UNL     1      34.920 -16.826 -24.213  0.00  0.00    +0.004 C 
ATOM     13  C   UNL     1      35.177 -20.578 -23.913  0.00  0.00    +0.031 C 
BRANCH  10  17
ATOM     14  O   UNL     1      34.348 -14.214 -23.612  0.00  0.00    -0.420 OA
ATOM     15  N   UNL     1      34.542 -14.454 -21.396  0.00  0.00    -0.107 NA
ATOM     16  N   UNL     1      34.346 -13.112 -21.665  0.00  0.00    -0.111 NA
ATOM     17  C   UNL     1      34.535 -15.051 -22.558  0.00  0.00    +0.250 A 
ATOM     18  C   UNL     1      34.240 -13.019 -22.970  0.00  0.00    +0.227 A 
ATOM     19  C   UNL     1      34.024 -11.835 -23.809  0.00  0.00    +0.097 C 
ENDBRANCH  10  17
ENDBRANCH   1   7
BRANCH   4  22
ATOM     20  O   UNL     1      33.696 -23.570 -18.193  0.00  0.00    -0.270 OA
ATOM     21  N   UNL     1      35.337 -22.421 -16.962  0.00  0.00    -0.280 N 
ATOM     22  C   UNL     1      34.478 -22.636 -18.048  0.00  0.00    +0.249 C 
ATOM     23  H   UNL     1      35.900 -21.614 -17.011  0.00  0.00    +0.155 HD
BRANCH  21  24
ATOM     24  C   UNL     1      35.497 -23.210 -15.822  0.00  0.00    +0.051 C 
ATOM     25  C   UNL     1      36.775 -23.558 -15.388  0.00  0.00    +0.025 C 
ATOM     26  C   UNL     1      34.377 -23.649 -15.117  0.00  0.00    +0.015 C 
ATOM     27  C   UNL     1      36.934 -24.347 -14.248  0.00  0.00    +0.070 C 
ATOM     28  C   UNL     1      34.535 -24.438 -13.978  0.00  0.00    +0.002 C 
ATOM     29  C   UNL     1      35.814 -24.787 -13.544  0.00  0.00    +0.010 C 
BRANCH  27  31
ATOM     30  N   UNL     1      39.308 -24.996 -13.441  0.00  0.00    -0.191 NA
ATOM     31  C   UNL     1      38.244 -24.704 -13.803  0.00  0.00    +0.100 C 
ENDBRANCH  27  31
ENDBRANCH  21  24
ENDBRANCH   4  22
TORSDOF 5
ENDMDL
MODEL 3
REMARK VINA RESULT:     -11.8      4.205     12.601
REMARK  Name = 10200651
REMARK  5 active torsions:
REMARK  status: ('A' for Active; 'I' for Inactive)
REMARK    1  A    between atoms: C_1  and  C_7
REMARK    2  A    between atoms: C_4  and  C_22
REMARK    3  A    between atoms: C_10  and  C_17
REMARK    4  A    between atoms: N_21  and  C_24
REMARK    5  A    between atoms: C_27  and  C_31
REMARK                            x       y       z     vdW  Elec       q    Type
REMARK                         _______ _______ _______ _____ _____    ______ ____
ROOT
ATOM      1  C   UNL     1      34.641 -19.670 -21.246  0.00  0.00    -0.000 C 
ATOM      2  C   UNL     1      33.389 -20.055 -20.766  0.00  0.00    +0.000 C 
ATOM      3  C   UNL     1      35.797 -20.246 -20.722  0.00  0.00    +0.000 C 
ATOM      4  C   UNL     1      34.454 -21.571 -19.258  0.00  0.00    +0.054 C 
ATOM      5  C   UNL     1      33.294 -21.017 -19.760  0.00  0.00    +0.005 C 
ATOM      6  C   UNL     1      35.702 -21.207 -19.716  0.00  0.00    +0.005 C 
ENDROOT
BRANCH   1   7
ATOM      7  C   UNL     1      34.738 -18.672 -22.290  0.00  0.00    -0.004 C 
ATOM      8  C   UNL     1      34.986 -19.035 -23.615  0.00  0.00    -0.022 C 
ATOM      9  C   UNL     1      34.582 -17.325 -21.957  0.00  0.00    +0.004 C 
ATOM     10  C   UNL     1      34.673 -16.344 -22.945  0.00  0.00    +0.055 C 
ATOM     11  C   UNL     1      35.077 -18.054 -24.603  0.00  0.00    -0.004 C 
ATOM     12  C   UNL     1      34.920 -16.710 -24.268  0.00  0.00    +0.004 C 
ATOM     13  C   UNL     1      35.159 -20.465 -24.012  0.00  0.00    +0.031 C 
BRANCH  10  17
ATOM     14  O   UNL     1      34.315 -14.107 -23.642  0.00  0.00    -0.420 OA
ATOM     15  N   UNL     1      34.526 -14.368 -21.431  0.00  0.00    -0.107 NA
ATOM     16  N   UNL     1      34.325 -13.024 -21.685  0.00  0.00    -0.111 NA
ATOM     17  C   UNL     1      34.512 -14.954 -22.599  0.00  0.00    +0.250 A 
ATOM     18  C   UNL     1      34.208 -12.919 -22.988  0.00  0.00    +0.227 A 
ATOM     19  C   UNL     1      33.983 -11.727 -23.814  0.00  0.00    +0.097 C 
ENDBRANCH  10  17
ENDBRANCH   1   7
BRANCH   4  22
ATOM     20  O   UNL     1      33.680 -23.595 -18.413  0.00  0.00    -0.270 OA
ATOM     21  N   UNL     1      35.069 -22.312 -17.015  0.00  0.00    -0.280 N 
ATOM     22  C   UNL     1      34.352 -22.595 -18.186  0.00  0.00    +0.249 C 
ATOM     23  H   UNL     1      35.557 -21.457 -17.004  0.00  0.00    +0.155 HD
BRANCH  21  24
ATOM     24  C   UNL     1      35.178 -23.094 -15.864  0.00  0.00    +0.051 C 
ATOM     25  C   UNL     1      34.030 -23.509 -15.191  0.00  0.00    +0.025 C 
ATOM     26  C   UNL     1      36.436 -23.461 -15.388  0.00  0.00    +0.015 C 
ATOM     27  C   UNL     1      34.139 -24.291 -14.040  0.00  0.00    +0.070 C 
ATOM     28  C   UNL     1      36.547 -24.242 -14.238  0.00  0.00    +0.002 C 
ATOM     29  C   UNL     1      35.398 -24.656 -13.564  0.00  0.00    +0.010 C 
BRANCH  27  31
ATOM     30  N   UNL     1      32.006 -25.061 -12.789  0.00  0.00    -0.191 NA
ATOM     31  C   UNL     1      32.962 -24.715 -13.350  0.00  0.00    +0.100 C 
ENDBRANCH  27  31
ENDBRANCH  21  24
ENDBRANCH   4  22
TORSDOF 5
ENDMDL
MODEL 4
REMARK VINA RESULT:     -11.8      5.876     11.232
REMARK  Name = 10200651
REMARK  5 active torsions:
REMARK  status: ('A' for Active; 'I' for Inactive)
REMARK    1  A    between atoms: C_1  and  C_7
REMARK    2  A    between atoms: C_4  and  C_22
REMARK    3  A    between atoms: C_10  and  C_17
REMARK    4  A    between atoms: N_21  and  C_24
REMARK    5  A    between atoms: C_27  and  C_31
REMARK                            x       y       z     vdW  Elec       q    Type
REMARK                         _______ _______ _______ _____ _____    ______ ____
ROOT
ATOM      1  C   UNL     1      34.332 -22.822 -16.941  0.00  0.00    -0.000 C 
ATOM      2  C   UNL     1      35.407 -22.280 -17.646  0.00  0.00    +0.000 C 
ATOM      3  C   UNL     1      33.028 -22.608 -17.384  0.00  0.00    +0.000 C 
ATOM      4  C   UNL     1      33.877 -21.327 -19.212  0.00  0.00    +0.054 C 
ATOM      5  C   UNL     1      35.177 -21.524 -18.795  0.00  0.00    +0.005 C 
ATOM      6  C   UNL     1      32.798 -21.851 -18.533  0.00  0.00    +0.005 C 
ENDROOT
BRANCH   1   7
ATOM      7  C   UNL     1      34.572 -23.607 -15.749  0.00  0.00    -0.004 C 
ATOM      8  C   UNL     1      33.637 -23.649 -14.713  0.00  0.00    -0.022 C 
ATOM      9  C   UNL     1      35.760 -24.332 -15.641  0.00  0.00    +0.004 C 
ATOM     10  C   UNL     1      36.015 -25.094 -14.502  0.00  0.00    +0.055 C 
ATOM     11  C   UNL     1      33.891 -24.412 -13.573  0.00  0.00    -0.004 C 
ATOM     12  C   UNL     1      35.079 -25.135 -13.467  0.00  0.00    +0.004 C 
ATOM     13  C   UNL     1      32.354 -22.887 -14.789  0.00  0.00    +0.031 C 
BRANCH  10  17
ATOM     14  O   UNL     1      38.362 -25.105 -14.168  0.00  0.00    -0.420 OA
ATOM     15  N   UNL     1      37.458 -27.128 -14.477  0.00  0.00    -0.107 NA
ATOM     16  N   UNL     1      38.820 -27.291 -14.298  0.00  0.00    -0.111 NA
ATOM     17  C   UNL     1      37.243 -25.842 -14.392  0.00  0.00    +0.250 A 
ATOM     18  C   UNL     1      39.306 -26.085 -14.123  0.00  0.00    +0.227 A 
ATOM     19  C   UNL     1      40.690 -25.658 -13.889  0.00  0.00    +0.097 C 
ENDBRANCH  10  17
ENDBRANCH   1   7
BRANCH   4  22
ATOM     20  O   UNL     1      32.509 -20.555 -20.927  0.00  0.00    -0.270 OA
ATOM     21  N   UNL     1      34.727 -19.774 -20.894  0.00  0.00    -0.280 N 
ATOM     22  C   UNL     1      33.632 -20.520 -20.436  0.00  0.00    +0.249 C 
ATOM     23  H   UNL     1      35.559 -19.866 -20.375  0.00  0.00    +0.155 HD
BRANCH  21  24
ATOM     24  C   UNL     1      34.783 -18.915 -21.992  0.00  0.00    +0.051 C 
ATOM     25  C   UNL     1      34.782 -17.535 -21.799  0.00  0.00    +0.025 C 
ATOM     26  C   UNL     1      34.840 -19.439 -23.284  0.00  0.00    +0.015 C 
ATOM     27  C   UNL     1      34.838 -16.676 -22.897  0.00  0.00    +0.070 C 
ATOM     28  C   UNL     1      34.895 -18.581 -24.383  0.00  0.00    +0.002 C 
ATOM     29  C   UNL     1      34.894 -17.200 -24.189  0.00  0.00    +0.010 C 
BRANCH  27  31
ATOM     30  N   UNL     1      34.836 -14.110 -22.539  0.00  0.00    -0.191 NA
ATOM     31  C   UNL     1      34.837 -15.261 -22.700  0.00  0.00    +0.100 C 
ENDBRANCH  27  31
ENDBRANCH  21  24
ENDBRANCH   4  22
TORSDOF 5
ENDMDL
MODEL 5
REMARK VINA RESULT:     -11.4      4.929     10.085
REMARK  Name = 10200651
REMARK  5 active torsions:
REMARK  status: ('A' for Active; 'I' for Inactive)
REMARK    1  A    between atoms: C_1  and  C_7
REMARK    2  A    between atoms: C_4  and  C_22
REMARK    3  A    between atoms: C_10  and  C_17
REMARK    4  A    between atoms: N_21  and  C_24
REMARK    5  A    between atoms: C_27  and  C_31
REMARK                            x       y       z     vdW  Elec       q    Type
REMARK                         _______ _______ _______ _____ _____    ______ ____
ROOT
ATOM      1  C   UNL     1      34.932 -22.036 -17.994  0.00  0.00    -0.000 C 
ATOM      2  C   UNL     1      36.168 -21.655 -18.517  0.00  0.00    +0.000 C 
ATOM      3  C   UNL     1      33.755 -21.664 -18.643  0.00  0.00    +0.000 C 
ATOM      4  C   UNL     1      35.047 -20.547 -20.312  0.00  0.00    +0.054 C 
ATOM      5  C   UNL     1      36.226 -20.902 -19.690  0.00  0.00    +0.005 C 
ATOM      6  C   UNL     1      33.814 -20.911 -19.815  0.00  0.00    +0.005 C 
ENDROOT
BRANCH   1   7
ATOM      7  C   UNL     1      34.872 -22.818 -16.778  0.00  0.00    -0.004 C 
ATOM      8  C   UNL     1      33.653 -23.267 -16.267  0.00  0.00    -0.022 C 
ATOM      9  C   UNL     1      36.059 -23.124 -16.109  0.00  0.00    +0.004 C 
ATOM     10  C   UNL     1      36.028 -23.874 -14.934  0.00  0.00    +0.055 C 
ATOM     11  C   UNL     1      33.621 -24.017 -15.092  0.00  0.00    -0.004 C 
ATOM     12  C   UNL     1      34.808 -24.322 -14.426  0.00  0.00    +0.004 C 
ATOM     13  C   UNL     1      32.361 -22.960 -16.953  0.00  0.00    +0.031 C 
BRANCH  10  17
ATOM     14  O   UNL     1      38.033 -25.134 -14.832  0.00  0.00    -0.420 OA
ATOM     15  N   UNL     1      37.744 -23.709 -13.132  0.00  0.00    -0.107 NA
ATOM     16  N   UNL     1      38.944 -24.367 -12.938  0.00  0.00    -0.111 NA
ATOM     17  C   UNL     1      37.255 -24.189 -14.244  0.00  0.00    +0.250 A 
ATOM     18  C   UNL     1      39.071 -25.189 -13.953  0.00  0.00    +0.227 A 
ATOM     19  C   UNL     1      40.150 -26.134 -14.263  0.00  0.00    +0.097 C 
ENDBRANCH  10  17
ENDBRANCH   1   7
BRANCH   4  22
ATOM     20  O   UNL     1      35.357 -20.333 -22.607  0.00  0.00    -0.270 OA
ATOM     21  N   UNL     1      34.852 -18.375 -21.408  0.00  0.00    -0.280 N 
ATOM     22  C   UNL     1      35.110 -19.744 -21.560  0.00  0.00    +0.249 C 
ATOM     23  H   UNL     1      34.672 -18.069 -20.489  0.00  0.00    +0.155 HD
BRANCH  21  24
ATOM     24  C   UNL     1      34.818 -17.391 -22.398  0.00  0.00    +0.051 C 
ATOM     25  C   UNL     1      34.557 -16.065 -22.054  0.00  0.00    +0.025 C 
ATOM     26  C   UNL     1      35.044 -17.735 -23.730  0.00  0.00    +0.015 C 
ATOM     27  C   UNL     1      34.523 -15.082 -23.044  0.00  0.00    +0.070 C 
ATOM     28  C   UNL     1      35.010 -16.753 -24.720  0.00  0.00    +0.002 C 
ATOM     29  C   UNL     1      34.748 -15.427 -24.376  0.00  0.00    +0.010 C 
BRANCH  27  31
ATOM     30  N   UNL     1      34.039 -12.618 -22.408  0.00  0.00    -0.191 NA
ATOM     31  C   UNL     1      34.256 -13.723 -22.693  0.00  0.00    +0.100 C 
ENDBRANCH  27  31
ENDBRANCH  21  24
ENDBRANCH   4  22
TORSDOF 5
ENDMDL
MODEL 6
REMARK VINA RESULT:     -11.3      5.782     11.231
REMARK  Name = 10200651
REMARK  5 active torsions:
REMARK  status: ('A' for Active; 'I' for Inactive)
REMARK    1  A    between atoms: C_1  and  C_7
REMARK    2  A    between atoms: C_4  and  C_22
REMARK    3  A    between atoms: C_10  and  C_17
REMARK    4  A    between atoms: N_21  and  C_24
REMARK    5  A    between atoms: C_27  and  C_31
REMARK                            x       y       z     vdW  Elec       q    Type
REMARK                         _______ _______ _______ _____ _____    ______ ____
ROOT
ATOM      1  C   UNL     1      35.741 -22.448 -16.936  0.00  0.00    -0.000 C 
ATOM      2  C   UNL     1      34.778 -22.418 -17.945  0.00  0.00    +0.000 C 
ATOM      3  C   UNL     1      36.902 -21.687 -17.056  0.00  0.00    +0.000 C 
ATOM      4  C   UNL     1      36.135 -20.881 -19.169  0.00  0.00    +0.054 C 
ATOM      5  C   UNL     1      34.977 -21.625 -19.074  0.00  0.00    +0.005 C 
ATOM      6  C   UNL     1      37.102 -20.894 -18.185  0.00  0.00    +0.005 C 
ENDROOT
BRANCH   1   7
ATOM      7  C   UNL     1      35.533 -23.272 -15.763  0.00  0.00    -0.004 C 
ATOM      8  C   UNL     1      36.612 -23.793 -15.047  0.00  0.00    -0.022 C 
ATOM      9  C   UNL     1      34.228 -23.545 -15.349  0.00  0.00    +0.004 C 
ATOM     10  C   UNL     1      34.002 -24.337 -14.223  0.00  0.00    +0.055 C 
ATOM     11  C   UNL     1      36.386 -24.585 -13.921  0.00  0.00    -0.004 C 
ATOM     12  C   UNL     1      35.082 -24.856 -13.508  0.00  0.00    +0.004 C 
ATOM     13  C   UNL     1      38.023 -23.524 -15.458  0.00  0.00    +0.031 C 
BRANCH  10  17
ATOM     14  O   UNL     1      31.684 -24.383 -14.719  0.00  0.00    -0.420 OA
ATOM     15  N   UNL     1      32.206 -25.066 -12.654  0.00  0.00    -0.107 NA
ATOM     16  N   UNL     1      30.833 -25.146 -12.796  0.00  0.00    -0.111 NA
ATOM     17  C   UNL     1      32.653 -24.618 -13.797  0.00  0.00    +0.250 A 
ATOM     18  C   UNL     1      30.574 -24.736 -14.016  0.00  0.00    +0.227 A 
ATOM     19  C   UNL     1      29.286 -24.612 -14.708  0.00  0.00    +0.097 C 
ENDBRANCH  10  17
ENDBRANCH   1   7
BRANCH   4  22
ATOM     20  O   UNL     1      37.494 -19.922 -20.795  0.00  0.00    -0.270 OA
ATOM     21  N   UNL     1      35.191 -19.468 -20.921  0.00  0.00    -0.280 N 
ATOM     22  C   UNL     1      36.348 -20.037 -20.373  0.00  0.00    +0.249 C 
ATOM     23  H   UNL     1      34.348 -19.665 -20.450  0.00  0.00    +0.155 HD
BRANCH  21  24
ATOM     24  C   UNL     1      35.083 -18.659 -22.054  0.00  0.00    +0.051 C 
ATOM     25  C   UNL     1      35.002 -17.274 -21.917  0.00  0.00    +0.025 C 
ATOM     26  C   UNL     1      35.058 -19.237 -23.323  0.00  0.00    +0.015 C 
ATOM     27  C   UNL     1      34.895 -16.466 -23.049  0.00  0.00    +0.070 C 
ATOM     28  C   UNL     1      34.950 -18.430 -24.455  0.00  0.00    +0.002 C 
ATOM     29  C   UNL     1      34.868 -17.045 -24.318  0.00  0.00    +0.010 C 
BRANCH  27  31
ATOM     30  N   UNL     1      34.743 -13.893 -22.795  0.00  0.00    -0.191 NA
ATOM     31  C   UNL     1      34.811 -15.047 -22.909  0.00  0.00    +0.100 C 
ENDBRANCH  27  31
ENDBRANCH  21  24
ENDBRANCH   4  22
TORSDOF 5
ENDMDL
MODEL 7
REMARK VINA RESULT:     -11.2      4.721      9.776
REMARK  Name = 10200651
REMARK  5 active torsions:
REMARK  status: ('A' for Active; 'I' for Inactive)
REMARK    1  A    between atoms: C_1  and  C_7
REMARK    2  A    between atoms: C_4  and  C_22
REMARK    3  A    between atoms: C_10  and  C_17
REMARK    4  A    between atoms: N_21  and  C_24
REMARK    5  A    between atoms: C_27  and  C_31
REMARK                            x       y       z     vdW  Elec       q    Type
REMARK                         _______ _______ _______ _____ _____    ______ ____
ROOT
ATOM      1  C   UNL     1      34.717 -21.688 -18.467  0.00  0.00    -0.000 C 
ATOM      2  C   UNL     1      35.942 -21.332 -19.032  0.00  0.00    +0.000 C 
ATOM      3  C   UNL     1      33.526 -21.297 -19.078  0.00  0.00    +0.000 C 
ATOM      4  C   UNL     1      34.783 -20.210 -20.793  0.00  0.00    +0.054 C 
ATOM      5  C   UNL     1      35.975 -20.584 -20.209  0.00  0.00    +0.005 C 
ATOM      6  C   UNL     1      33.560 -20.549 -20.255  0.00  0.00    +0.005 C 
ENDROOT
BRANCH   1   7
ATOM      7  C   UNL     1      34.682 -22.464 -17.246  0.00  0.00    -0.004 C 
ATOM      8  C   UNL     1      35.849 -22.733 -16.528  0.00  0.00    -0.022 C 
ATOM      9  C   UNL     1      33.457 -22.950 -16.786  0.00  0.00    +0.004 C 
ATOM     10  C   UNL     1      33.398 -23.701 -15.612  0.00  0.00    +0.055 C 
ATOM     11  C   UNL     1      35.790 -23.484 -15.354  0.00  0.00    -0.004 C 
ATOM     12  C   UNL     1      34.565 -23.967 -14.896  0.00  0.00    +0.004 C 
ATOM     13  C   UNL     1      37.180 -22.232 -16.988  0.00  0.00    +0.031 C 
BRANCH  10  17
ATOM     14  O   UNL     1      31.058 -23.925 -15.924  0.00  0.00    -0.420 OA
ATOM     15  N   UNL     1      31.843 -24.885 -14.062  0.00  0.00    -0.107 NA
ATOM     16  N   UNL     1      30.477 -25.095 -14.107  0.00  0.00    -0.111 NA
ATOM     17  C   UNL     1      32.131 -24.202 -15.138  0.00  0.00    +0.250 A 
ATOM     18  C   UNL     1      30.062 -24.517 -15.210  0.00  0.00    +0.227 A 
ATOM     19  C   UNL     1      28.706 -24.424 -15.764  0.00  0.00    +0.097 C 
ENDBRANCH  10  17
ENDBRANCH   1   7
BRANCH   4  22
ATOM     20  O   UNL     1      34.933 -20.018 -23.106  0.00  0.00    -0.270 OA
ATOM     21  N   UNL     1      34.695 -18.026 -21.881  0.00  0.00    -0.280 N 
ATOM     22  C   UNL     1      34.819 -19.412 -22.047  0.00  0.00    +0.249 C 
ATOM     23  H   UNL     1      34.614 -17.708 -20.952  0.00  0.00    +0.155 HD
BRANCH  21  24
ATOM     24  C   UNL     1      34.671 -17.041 -22.869  0.00  0.00    +0.051 C 
ATOM     25  C   UNL     1      34.349 -15.726 -22.536  0.00  0.00    +0.025 C 
ATOM     26  C   UNL     1      34.969 -17.372 -24.191  0.00  0.00    +0.015 C 
ATOM     27  C   UNL     1      34.325 -14.741 -23.524  0.00  0.00    +0.070 C 
ATOM     28  C   UNL     1      34.945 -16.389 -25.180  0.00  0.00    +0.002 C 
ATOM     29  C   UNL     1      34.622 -15.073 -24.846  0.00  0.00    +0.010 C 
BRANCH  27  31
ATOM     30  N   UNL     1      33.726 -12.298 -22.906  0.00  0.00    -0.191 NA
ATOM     31  C   UNL     1      33.995 -13.394 -23.183  0.00  0.00    +0.100 C 
ENDBRANCH  27  31
ENDBRANCH  21  24
ENDBRANCH   4  22
TORSDOF 5
ENDMDL
MODEL 8
REMARK VINA RESULT:     -11.1      1.169      1.774
REMARK  Name = 10200651
REMARK  5 active torsions:
REMARK  status: ('A' for Active; 'I' for Inactive)
REMARK    1  A    between atoms: C_1  and  C_7
REMARK    2  A    between atoms: C_4  and  C_22
REMARK    3  A    between atoms: C_10  and  C_17
REMARK    4  A    between atoms: N_21  and  C_24
REMARK    5  A    between atoms: C_27  and  C_31
REMARK                            x       y       z     vdW  Elec       q    Type
REMARK                         _______ _______ _______ _____ _____    ______ ____
ROOT
ATOM      1  C   UNL     1      33.858 -14.181 -23.208  0.00  0.00    -0.000 C 
ATOM      2  C   UNL     1      32.963 -13.944 -22.165  0.00  0.00    +0.000 C 
ATOM      3  C   UNL     1      34.353 -13.116 -23.959  0.00  0.00    +0.000 C 
ATOM      4  C   UNL     1      33.069 -11.604 -22.631  0.00  0.00    +0.054 C 
ATOM      5  C   UNL     1      32.564 -12.640 -21.872  0.00  0.00    +0.005 C 
ATOM      6  C   UNL     1      33.954 -11.812 -23.667  0.00  0.00    +0.005 C 
ENDROOT
BRANCH   1   7
ATOM      7  C   UNL     1      34.272 -15.534 -23.511  0.00  0.00    -0.004 C 
ATOM      8  C   UNL     1      34.162 -16.051 -24.803  0.00  0.00    -0.022 C 
ATOM      9  C   UNL     1      34.790 -16.331 -22.487  0.00  0.00    +0.004 C 
ATOM     10  C   UNL     1      35.194 -17.639 -22.754  0.00  0.00    +0.055 C 
ATOM     11  C   UNL     1      34.567 -17.359 -25.070  0.00  0.00    -0.004 C 
ATOM     12  C   UNL     1      35.084 -18.152 -24.046  0.00  0.00    +0.004 C 
ATOM     13  C   UNL     1      33.614 -15.231 -25.926  0.00  0.00    +0.031 C 
BRANCH  10  17
ATOM     14  O   UNL     1      34.961 -19.519 -21.329  0.00  0.00    -0.420 OA
ATOM     15  N   UNL     1      36.842 -18.347 -21.020  0.00  0.00    -0.107 NA
ATOM     16  N   UNL     1      36.845 -19.403 -20.127  0.00  0.00    -0.111 NA
ATOM     17  C   UNL     1      35.728 -18.459 -21.695  0.00  0.00    +0.250 A 
ATOM     18  C   UNL     1      35.728 -20.058 -20.342  0.00  0.00    +0.227 A 
ATOM     19  C   UNL     1      35.208 -21.262 -19.684  0.00  0.00    +0.097 C 
ENDBRANCH  10  17
ENDBRANCH   1   7
BRANCH   4  22
ATOM     20  O   UNL     1      31.961 -10.038 -21.315  0.00  0.00    -0.270 OA
ATOM     21  N   UNL     1      33.091  -9.233 -23.213  0.00  0.00    -0.280 N 
ATOM     22  C   UNL     1      32.642 -10.214 -22.320  0.00  0.00    +0.249 C 
ATOM     23  H   UNL     1      33.632  -9.555 -23.972  0.00  0.00    +0.155 HD
BRANCH  21  24
ATOM     24  C   UNL     1      32.870  -7.856 -23.160  0.00  0.00    +0.051 C 
ATOM     25  C   UNL     1      31.795  -7.350 -22.431  0.00  0.00    +0.025 C 
ATOM     26  C   UNL     1      33.726  -6.986 -23.836  0.00  0.00    +0.015 C 
ATOM     27  C   UNL     1      31.574  -5.973 -22.378  0.00  0.00    +0.070 C 
ATOM     28  C   UNL     1      33.506  -5.610 -23.784  0.00  0.00    +0.002 C 
ATOM     29  C   UNL     1      32.429  -5.104 -23.056  0.00  0.00    +0.010 C 
BRANCH  27  31
ATOM     30  N   UNL     1      29.576  -5.032 -21.025  0.00  0.00    -0.191 NA
ATOM     31  C   UNL     1      30.472  -5.454 -21.632  0.00  0.00    +0.100 C 
ENDBRANCH  27  31
ENDBRANCH  21  24
ENDBRANCH   4  22
TORSDOF 5
ENDMDL
MODEL 9
REMARK VINA RESULT:     -10.8      2.093     11.094
REMARK  Name = 10200651
REMARK  5 active torsions:
REMARK  status: ('A' for Active; 'I' for Inactive)
REMARK    1  A    between atoms: C_1  and  C_7
REMARK    2  A    between atoms: C_4  and  C_22
REMARK    3  A    between atoms: C_10  and  C_17
REMARK    4  A    between atoms: N_21  and  C_24
REMARK    5  A    between atoms: C_27  and  C_31
REMARK                            x       y       z     vdW  Elec       q    Type
REMARK                         _______ _______ _______ _____ _____    ______ ____
ROOT
ATOM      1  C   UNL     1      32.720 -10.259 -22.259  0.00  0.00    -0.000 C 
ATOM      2  C   UNL     1      32.053 -11.339 -21.681  0.00  0.00    +0.000 C 
ATOM      3  C   UNL     1      33.652 -10.475 -23.273  0.00  0.00    +0.000 C 
ATOM      4  C   UNL     1      33.244 -12.823 -23.124  0.00  0.00    +0.054 C 
ATOM      5  C   UNL     1      32.318 -12.637 -22.119  0.00  0.00    +0.005 C 
ATOM      6  C   UNL     1      33.916 -11.772 -23.711  0.00  0.00    +0.005 C 
ENDROOT
BRANCH   1   7
ATOM      7  C   UNL     1      32.445  -8.913 -21.804  0.00  0.00    -0.004 C 
ATOM      8  C   UNL     1      32.191  -8.643 -20.458  0.00  0.00    -0.022 C 
ATOM      9  C   UNL     1      32.435  -7.871 -22.734  0.00  0.00    +0.004 C 
ATOM     10  C   UNL     1      32.171  -6.565 -22.320  0.00  0.00    +0.055 C 
ATOM     11  C   UNL     1      31.927  -7.337 -20.044  0.00  0.00    -0.004 C 
ATOM     12  C   UNL     1      31.919  -6.299 -20.974  0.00  0.00    +0.004 C 
ATOM     13  C   UNL     1      32.192  -9.729 -19.432  0.00  0.00    +0.031 C 
BRANCH  10  17
ATOM     14  O   UNL     1      33.027  -5.624 -24.321  0.00  0.00    -0.420 OA
ATOM     15  N   UNL     1      31.448  -4.397 -23.318  0.00  0.00    -0.107 NA
ATOM     16  N   UNL     1      31.848  -3.728 -24.460  0.00  0.00    -0.111 NA
ATOM     17  C   UNL     1      32.161  -5.491 -23.283  0.00  0.00    +0.250 A 
ATOM     18  C   UNL     1      32.771  -4.479 -25.012  0.00  0.00    +0.227 A 
ATOM     19  C   UNL     1      33.544  -4.262 -26.240  0.00  0.00    +0.097 C 
ENDBRANCH  10  17
ENDBRANCH   1   7
BRANCH   4  22
ATOM     20  O   UNL     1      33.090 -14.539 -24.687  0.00  0.00    -0.270 OA
ATOM     21  N   UNL     1      34.295 -14.989 -22.719  0.00  0.00    -0.280 N 
ATOM     22  C   UNL     1      33.527 -14.206 -23.590  0.00  0.00    +0.249 C 
ATOM     23  H   UNL     1      34.562 -14.558 -21.873  0.00  0.00    +0.155 HD
BRANCH  21  24
ATOM     24  C   UNL     1      34.732 -16.302 -22.901  0.00  0.00    +0.051 C 
ATOM     25  C   UNL     1      35.316 -16.996 -21.842  0.00  0.00    +0.025 C 
ATOM     26  C   UNL     1      34.585 -16.919 -24.143  0.00  0.00    +0.015 C 
ATOM     27  C   UNL     1      35.752 -18.309 -22.025  0.00  0.00    +0.070 C 
ATOM     28  C   UNL     1      35.021 -18.231 -24.327  0.00  0.00    +0.002 C 
ATOM     29  C   UNL     1      35.605 -18.925 -23.267  0.00  0.00    +0.010 C 
BRANCH  27  31
ATOM     30  N   UNL     1      36.837 -19.600 -20.058  0.00  0.00    -0.191 NA
ATOM     31  C   UNL     1      36.350 -19.021 -20.940  0.00  0.00    +0.100 C 
ENDBRANCH  27  31
ENDBRANCH  21  24
ENDBRANCH   4  22
TORSDOF 5
ENDMDL
