MODEL 1
REMARK VINA RESULT:     -11.8      0.000      0.000
REMARK  Name = 54671008
REMARK  7 active torsions:
REMARK  status: ('A' for Active; 'I' for Inactive)
REMARK    1  A    between atoms: C_4  and  C_21
REMARK    2  A    between atoms: C_6  and  C_11
REMARK    3  A    between atoms: C_8  and  O_34
REMARK    4  A    between atoms: N_10  and  C_13
REMARK    5  A    between atoms: C_13  and  C_15
REMARK    6  A    between atoms: C_21  and  N_25
REMARK    7  A    between atoms: C_26  and  C_31
REMARK                            x       y       z     vdW  Elec       q    Type
REMARK                         _______ _______ _______ _____ _____    ______ ____
ROOT
ATOM      1  O   UNL     1      36.169 -23.317 -14.516  0.00  0.00    -0.271 OA
ATOM      2  N   UNL     1      33.849 -23.614 -14.429  0.00  0.00    -0.232 N 
ATOM      3  N   UNL     1      32.569 -23.316 -16.411  0.00  0.00    -0.386 NA
ATOM      4  C   UNL     1      32.655 -23.593 -15.146  0.00  0.00    +0.182 C 
ATOM      5  C   UNL     1      35.064 -23.328 -15.056  0.00  0.00    +0.265 C 
ATOM      6  C   UNL     1      33.736 -23.031 -17.064  0.00  0.00    +0.199 C 
ATOM      7  C   UNL     1      33.829 -23.941 -13.005  0.00  0.00    +0.122 C 
ATOM      8  C   UNL     1      34.955 -23.013 -16.507  0.00  0.00    +0.245 C 
ENDROOT
BRANCH   6  11
ATOM      9  O   UNL     1      33.715 -23.608 -19.341  0.00  0.00    -0.268 OA
ATOM     10  N   UNL     1      33.386 -21.381 -18.738  0.00  0.00    -0.295 N 
ATOM     11  C   UNL     1      33.614 -22.723 -18.496  0.00  0.00    +0.275 C 
ATOM     12  H   UNL     1      33.325 -20.770 -17.968  0.00  0.00    +0.150 HD
BRANCH  10  13
ATOM     13  C   UNL     1      33.230 -20.830 -20.065  0.00  0.00    +0.117 C 
BRANCH  13  15
ATOM     14  F   UNL     1      37.991 -18.487 -21.948  0.00  0.00    -0.204 F 
ATOM     15  C   UNL     1      34.500 -20.205 -20.567  0.00  0.00    -0.002 C 
ATOM     16  C   UNL     1      34.460 -19.301 -21.629  0.00  0.00    -0.000 C 
ATOM     17  C   UNL     1      35.719 -20.529 -19.972  0.00  0.00    -0.000 C 
ATOM     18  C   UNL     1      35.639 -18.722 -22.095  0.00  0.00    +0.029 C 
ATOM     19  C   UNL     1      36.899 -19.949 -20.439  0.00  0.00    +0.029 C 
ATOM     20  C   UNL     1      36.858 -19.045 -21.500  0.00  0.00    +0.140 C 
ENDBRANCH  13  15
ENDBRANCH  10  13
ENDBRANCH   6  11
BRANCH   4  21
ATOM     21  C   UNL     1      31.376 -23.911 -14.408  0.00  0.00    +0.117 C 
ATOM     22  C   UNL     1      31.282 -25.412 -14.166  0.00  0.00    +0.028 C 
ATOM     23  C   UNL     1      31.327 -23.132 -13.101  0.00  0.00    +0.028 C 
BRANCH  21  25
ATOM     24  O   UNL     1      28.595 -24.619 -14.335  0.00  0.00    -0.265 OA
ATOM     25  N   UNL     1      30.352 -23.467 -15.318  0.00  0.00    -0.293 N 
ATOM     26  C   UNL     1      29.026 -23.864 -15.202  0.00  0.00    +0.302 C 
ATOM     27  H   UNL     1      30.601 -22.856 -16.049  0.00  0.00    +0.150 HD
BRANCH  26  31
ATOM     28  O   UNL     1      27.470 -22.144 -16.040  0.00  0.00    -0.416 OA
ATOM     29  N   UNL     1      27.789 -23.913 -17.373  0.00  0.00    -0.102 NA
ATOM     30  N   UNL     1      26.896 -23.063 -17.998  0.00  0.00    -0.111 NA
ATOM     31  C   UNL     1      28.097 -23.337 -16.234  0.00  0.00    +0.304 A 
ATOM     32  C   UNL     1      26.739 -22.045 -17.185  0.00  0.00    +0.227 A 
ATOM     33  C   UNL     1      25.907 -20.845 -17.336  0.00  0.00    +0.097 C 
ENDBRANCH  26  31
ENDBRANCH  21  25
ENDBRANCH   4  21
BRANCH   8  34
ATOM     34  O   UNL     1      36.107 -22.721 -17.200  0.00  0.00    -0.370 OA
ATOM     35  H   UNL     1      36.531 -23.386 -17.706  0.00  0.00    +0.211 HD
ENDBRANCH   8  34
TORSDOF 7
ENDMDL
MODEL 2
REMARK VINA RESULT:     -10.3      2.390      6.018
REMARK  Name = 54671008
REMARK  7 active torsions:
REMARK  status: ('A' for Active; 'I' for Inactive)
REMARK    1  A    between atoms: C_4  and  C_21
REMARK    2  A    between atoms: C_6  and  C_11
REMARK    3  A    between atoms: C_8  and  O_34
REMARK    4  A    between atoms: N_10  and  C_13
REMARK    5  A    between atoms: C_13  and  C_15
REMARK    6  A    between atoms: C_21  and  N_25
REMARK    7  A    between atoms: C_26  and  C_31
REMARK                            x       y       z     vdW  Elec       q    Type
REMARK                         _______ _______ _______ _____ _____    ______ ____
ROOT
ATOM      1  O   UNL     1      30.287 -22.525 -17.021  0.00  0.00    -0.271 OA
ATOM      2  N   UNL     1      31.497 -23.368 -15.203  0.00  0.00    -0.232 N 
ATOM      3  N   UNL     1      33.871 -23.421 -15.316  0.00  0.00    -0.386 NA
ATOM      4  C   UNL     1      32.760 -23.648 -14.686  0.00  0.00    +0.182 C 
ATOM      5  C   UNL     1      31.352 -22.807 -16.474  0.00  0.00    +0.265 C 
ATOM      6  C   UNL     1      33.776 -22.871 -16.565  0.00  0.00    +0.199 C 
ATOM      7  C   UNL     1      30.310 -23.664 -14.403  0.00  0.00    +0.122 C 
ATOM      8  C   UNL     1      32.633 -22.550 -17.188  0.00  0.00    +0.245 C 
ENDROOT
BRANCH   6  11
ATOM      9  O   UNL     1      36.112 -22.639 -16.644  0.00  0.00    -0.268 OA
ATOM     10  N   UNL     1      34.884 -22.381 -18.609  0.00  0.00    -0.295 N 
ATOM     11  C   UNL     1      35.048 -22.622 -17.258  0.00  0.00    +0.275 C 
ATOM     12  H   UNL     1      33.972 -22.396 -18.980  0.00  0.00    +0.150 HD
BRANCH  10  13
ATOM     13  C   UNL     1      35.986 -22.109 -19.504  0.00  0.00    +0.117 C 
BRANCH  13  15
ATOM     14  F   UNL     1      35.541 -17.041 -21.916  0.00  0.00    -0.204 F 
ATOM     15  C   UNL     1      35.868 -20.757 -20.147  0.00  0.00    -0.002 C 
ATOM     16  C   UNL     1      34.615 -20.270 -20.519  0.00  0.00    -0.000 C 
ATOM     17  C   UNL     1      37.010 -19.989 -20.373  0.00  0.00    -0.000 C 
ATOM     18  C   UNL     1      34.505 -19.014 -21.116  0.00  0.00    +0.029 C 
ATOM     19  C   UNL     1      36.900 -18.734 -20.971  0.00  0.00    +0.029 C 
ATOM     20  C   UNL     1      35.647 -18.247 -21.342  0.00  0.00    +0.140 C 
ENDBRANCH  13  15
ENDBRANCH  10  13
ENDBRANCH   6  11
BRANCH   4  21
ATOM     21  C   UNL     1      32.846 -24.254 -13.306  0.00  0.00    +0.117 C 
ATOM     22  C   UNL     1      32.658 -23.168 -12.255  0.00  0.00    +0.028 C 
ATOM     23  C   UNL     1      31.805 -25.355 -13.161  0.00  0.00    +0.028 C 
BRANCH  21  25
ATOM     24  O   UNL     1      34.738 -23.980 -11.164  0.00  0.00    -0.265 OA
ATOM     25  N   UNL     1      34.181 -24.792 -13.265  0.00  0.00    -0.293 N 
ATOM     26  C   UNL     1      35.028 -24.607 -12.180  0.00  0.00    +0.302 C 
ATOM     27  H   UNL     1      34.506 -25.312 -14.036  0.00  0.00    +0.150 HD
BRANCH  26  31
ATOM     28  O   UNL     1      37.199 -24.833 -13.328  0.00  0.00    -0.416 OA
ATOM     29  N   UNL     1      36.919 -26.093 -11.501  0.00  0.00    -0.102 NA
ATOM     30  N   UNL     1      38.179 -26.348 -12.006  0.00  0.00    -0.111 NA
ATOM     31  C   UNL     1      36.383 -25.203 -12.303  0.00  0.00    +0.304 A 
ATOM     32  C   UNL     1      38.300 -25.592 -13.072  0.00  0.00    +0.227 A 
ATOM     33  C   UNL     1      39.428 -25.455 -14.001  0.00  0.00    +0.097 C 
ENDBRANCH  26  31
ENDBRANCH  21  25
ENDBRANCH   4  21
BRANCH   8  34
ATOM     34  O   UNL     1      32.580 -21.997 -18.447  0.00  0.00    -0.370 OA
ATOM     35  H   UNL     1      31.813 -22.107 -18.975  0.00  0.00    +0.211 HD
ENDBRANCH   8  34
TORSDOF 7
ENDMDL
MODEL 3
REMARK VINA RESULT:     -10.1      2.127      3.088
REMARK  Name = 54671008
REMARK  7 active torsions:
REMARK  status: ('A' for Active; 'I' for Inactive)
REMARK    1  A    between atoms: C_4  and  C_21
REMARK    2  A    between atoms: C_6  and  C_11
REMARK    3  A    between atoms: C_8  and  O_34
REMARK    4  A    between atoms: N_10  and  C_13
REMARK    5  A    between atoms: C_13  and  C_15
REMARK    6  A    between atoms: C_21  and  N_25
REMARK    7  A    between atoms: C_26  and  C_31
REMARK                            x       y       z     vdW  Elec       q    Type
REMARK                         _______ _______ _______ _____ _____    ______ ____
ROOT
ATOM      1  O   UNL     1      38.311 -21.367 -16.528  0.00  0.00    -0.271 OA
ATOM      2  N   UNL     1      36.651 -22.694 -15.545  0.00  0.00    -0.232 N 
ATOM      3  N   UNL     1      34.638 -23.104 -16.742  0.00  0.00    -0.386 NA
ATOM      4  C   UNL     1      35.385 -23.255 -15.692  0.00  0.00    +0.182 C 
ATOM      5  C   UNL     1      37.207 -21.908 -16.558  0.00  0.00    +0.265 C 
ATOM      6  C   UNL     1      35.145 -22.343 -17.760  0.00  0.00    +0.199 C 
ATOM      7  C   UNL     1      37.407 -22.931 -14.317  0.00  0.00    +0.122 C 
ATOM      8  C   UNL     1      36.343 -21.742 -17.759  0.00  0.00    +0.245 C 
ENDROOT
BRANCH   6  11
ATOM      9  O   UNL     1      33.575 -23.114 -19.327  0.00  0.00    -0.268 OA
ATOM     10  N   UNL     1      34.375 -20.932 -19.510  0.00  0.00    -0.295 N 
ATOM     11  C   UNL     1      34.281 -22.187 -18.939  0.00  0.00    +0.275 C 
ATOM     12  H   UNL     1      34.982 -20.275 -19.099  0.00  0.00    +0.150 HD
BRANCH  10  13
ATOM     13  C   UNL     1      33.624 -20.536 -20.680  0.00  0.00    +0.117 C 
BRANCH  13  15
ATOM     14  F   UNL     1      36.034 -16.218 -23.372  0.00  0.00    -0.204 F 
ATOM     15  C   UNL     1      34.267 -19.385 -21.398  0.00  0.00    -0.002 C 
ATOM     16  C   UNL     1      34.539 -18.201 -20.713  0.00  0.00    -0.000 C 
ATOM     17  C   UNL     1      34.591 -19.499 -22.750  0.00  0.00    -0.000 C 
ATOM     18  C   UNL     1      35.136 -17.131 -21.380  0.00  0.00    +0.029 C 
ATOM     19  C   UNL     1      35.188 -18.429 -23.417  0.00  0.00    +0.029 C 
ATOM     20  C   UNL     1      35.460 -17.245 -22.732  0.00  0.00    +0.140 C 
ENDBRANCH  13  15
ENDBRANCH  10  13
ENDBRANCH   6  11
BRANCH   4  21
ATOM     21  C   UNL     1      34.842 -24.093 -14.559  0.00  0.00    +0.117 C 
ATOM     22  C   UNL     1      35.423 -25.498 -14.635  0.00  0.00    +0.028 C 
ATOM     23  C   UNL     1      35.164 -23.429 -13.227  0.00  0.00    +0.028 C 
BRANCH  21  25
ATOM     24  O   UNL     1      32.791 -24.934 -12.735  0.00  0.00    -0.265 OA
ATOM     25  N   UNL     1      33.424 -24.103 -14.807  0.00  0.00    -0.293 N 
ATOM     26  C   UNL     1      32.503 -24.529 -13.859  0.00  0.00    +0.302 C 
ATOM     27  H   UNL     1      33.094 -23.795 -15.682  0.00  0.00    +0.150 HD
BRANCH  26  31
ATOM     28  O   UNL     1      30.526 -23.346 -14.739  0.00  0.00    -0.416 OA
ATOM     29  N   UNL     1      30.240 -25.512 -14.256  0.00  0.00    -0.102 NA
ATOM     30  N   UNL     1      29.040 -25.019 -14.732  0.00  0.00    -0.111 NA
ATOM     31  C   UNL     1      31.078 -24.502 -14.278  0.00  0.00    +0.304 A 
ATOM     32  C   UNL     1      29.253 -23.752 -15.001  0.00  0.00    +0.227 A 
ATOM     33  C   UNL     1      28.332 -22.739 -15.532  0.00  0.00    +0.097 C 
ENDBRANCH  26  31
ENDBRANCH  21  25
ENDBRANCH   4  21
BRANCH   8  34
ATOM     34  O   UNL     1      36.817 -20.983 -18.805  0.00  0.00    -0.370 OA
ATOM     35  H   UNL     1      37.605 -20.487 -18.704  0.00  0.00    +0.211 HD
ENDBRANCH   8  34
TORSDOF 7
ENDMDL
MODEL 4
REMARK VINA RESULT:      -9.6      7.634     11.100
REMARK  Name = 54671008
REMARK  7 active torsions:
REMARK  status: ('A' for Active; 'I' for Inactive)
REMARK    1  A    between atoms: C_4  and  C_21
REMARK    2  A    between atoms: C_6  and  C_11
REMARK    3  A    between atoms: C_8  and  O_34
REMARK    4  A    between atoms: N_10  and  C_13
REMARK    5  A    between atoms: C_13  and  C_15
REMARK    6  A    between atoms: C_21  and  N_25
REMARK    7  A    between atoms: C_26  and  C_31
REMARK                            x       y       z     vdW  Elec       q    Type
REMARK                         _______ _______ _______ _____ _____    ______ ____
ROOT
ATOM      1  O   UNL     1      33.801 -13.889 -25.681  0.00  0.00    -0.271 OA
ATOM      2  N   UNL     1      33.570 -13.849 -23.352  0.00  0.00    -0.232 N 
ATOM      3  N   UNL     1      34.174 -15.774 -22.095  0.00  0.00    -0.386 NA
ATOM      4  C   UNL     1      33.725 -14.559 -22.164  0.00  0.00    +0.182 C 
ATOM      5  C   UNL     1      33.902 -14.427 -24.580  0.00  0.00    +0.265 C 
ATOM      6  C   UNL     1      34.513 -16.378 -23.274  0.00  0.00    +0.199 C 
ATOM      7  C   UNL     1      33.055 -12.481 -23.312  0.00  0.00    +0.122 C 
ATOM      8  C   UNL     1      34.418 -15.820 -24.489  0.00  0.00    +0.245 C 
ENDROOT
BRANCH   6  11
ATOM      9  O   UNL     1      34.821 -18.567 -24.068  0.00  0.00    -0.268 OA
ATOM     10  N   UNL     1      35.709 -17.983 -21.994  0.00  0.00    -0.295 N 
ATOM     11  C   UNL     1      35.022 -17.754 -23.170  0.00  0.00    +0.275 C 
ATOM     12  H   UNL     1      35.800 -17.242 -21.352  0.00  0.00    +0.150 HD
BRANCH  10  13
ATOM     13  C   UNL     1      36.303 -19.258 -21.660  0.00  0.00    +0.117 C 
BRANCH  13  15
ATOM     14  F   UNL     1      32.972 -22.325 -18.314  0.00  0.00    -0.204 F 
ATOM     15  C   UNL     1      35.415 -20.076 -20.767  0.00  0.00    -0.002 C 
ATOM     16  C   UNL     1      35.970 -21.036 -19.922  0.00  0.00    -0.000 C 
ATOM     17  C   UNL     1      34.035 -19.875 -20.784  0.00  0.00    -0.000 C 
ATOM     18  C   UNL     1      35.145 -21.796 -19.093  0.00  0.00    +0.029 C 
ATOM     19  C   UNL     1      33.209 -20.635 -19.955  0.00  0.00    +0.029 C 
ATOM     20  C   UNL     1      33.765 -21.596 -19.110  0.00  0.00    +0.140 C 
ENDBRANCH  13  15
ENDBRANCH  10  13
ENDBRANCH   6  11
BRANCH   4  21
ATOM     21  C   UNL     1      33.347 -13.875 -20.871  0.00  0.00    +0.117 C 
ATOM     22  C   UNL     1      32.193 -14.620 -20.214  0.00  0.00    +0.028 C 
ATOM     23  C   UNL     1      34.559 -13.804 -19.953  0.00  0.00    +0.028 C 
BRANCH  21  25
ATOM     24  O   UNL     1      31.878 -11.948 -19.332  0.00  0.00    -0.265 OA
ATOM     25  N   UNL     1      32.941 -12.561 -21.300  0.00  0.00    -0.293 N 
ATOM     26  C   UNL     1      32.230 -11.695 -20.481  0.00  0.00    +0.302 C 
ATOM     27  H   UNL     1      33.178 -12.267 -22.209  0.00  0.00    +0.150 HD
BRANCH  26  31
ATOM     28  O   UNL     1      32.347  -9.232 -20.542  0.00  0.00    -0.416 OA
ATOM     29  N   UNL     1      31.090 -10.195 -22.123  0.00  0.00    -0.102 NA
ATOM     30  N   UNL     1      31.039  -8.826 -22.311  0.00  0.00    -0.111 NA
ATOM     31  C   UNL     1      31.864 -10.386 -21.080  0.00  0.00    +0.304 A 
ATOM     32  C   UNL     1      31.786  -8.305 -21.366  0.00  0.00    +0.227 A 
ATOM     33  C   UNL     1      32.092  -6.897 -21.083  0.00  0.00    +0.097 C 
ENDBRANCH  26  31
ENDBRANCH  21  25
ENDBRANCH   4  21
BRANCH   8  34
ATOM     34  O   UNL     1      34.770 -16.463 -25.654  0.00  0.00    -0.370 OA
ATOM     35  H   UNL     1      35.328 -16.038 -26.274  0.00  0.00    +0.211 HD
ENDBRANCH   8  34
TORSDOF 7
ENDMDL
MODEL 5
REMARK VINA RESULT:      -9.6      6.373      9.926
REMARK  Name = 54671008
REMARK  7 active torsions:
REMARK  status: ('A' for Active; 'I' for Inactive)
REMARK    1  A    between atoms: C_4  and  C_21
REMARK    2  A    between atoms: C_6  and  C_11
REMARK    3  A    between atoms: C_8  and  O_34
REMARK    4  A    between atoms: N_10  and  C_13
REMARK    5  A    between atoms: C_13  and  C_15
REMARK    6  A    between atoms: C_21  and  N_25
REMARK    7  A    between atoms: C_26  and  C_31
REMARK                            x       y       z     vdW  Elec       q    Type
REMARK                         _______ _______ _______ _____ _____    ______ ____
ROOT
ATOM      1  O   UNL     1      33.835 -15.404 -25.451  0.00  0.00    -0.271 OA
ATOM      2  N   UNL     1      34.756 -16.951 -23.954  0.00  0.00    -0.232 N 
ATOM      3  N   UNL     1      34.765 -16.449 -21.631  0.00  0.00    -0.386 NA
ATOM      4  C   UNL     1      35.044 -17.238 -22.622  0.00  0.00    +0.182 C 
ATOM      5  C   UNL     1      34.129 -15.753 -24.309  0.00  0.00    +0.265 C 
ATOM      6  C   UNL     1      34.149 -15.266 -21.933  0.00  0.00    +0.199 C 
ATOM      7  C   UNL     1      35.114 -17.915 -24.993  0.00  0.00    +0.122 C 
ATOM      8  C   UNL     1      33.813 -14.856 -23.164  0.00  0.00    +0.245 C 
ENDROOT
BRANCH   6  11
ATOM      9  O   UNL     1      34.730 -14.022 -20.027  0.00  0.00    -0.268 OA
ATOM     10  N   UNL     1      32.502 -14.064 -20.713  0.00  0.00    -0.295 N 
ATOM     11  C   UNL     1      33.843 -14.390 -20.793  0.00  0.00    +0.275 C 
ATOM     12  H   UNL     1      31.891 -14.427 -21.393  0.00  0.00    +0.150 HD
BRANCH  10  13
ATOM     13  C   UNL     1      31.954 -13.216 -19.678  0.00  0.00    +0.117 C 
BRANCH  13  15
ATOM     14  F   UNL     1      31.754  -7.817 -21.264  0.00  0.00    -0.204 F 
ATOM     15  C   UNL     1      31.901 -11.776 -20.101  0.00  0.00    -0.002 C 
ATOM     16  C   UNL     1      31.928 -10.766 -19.140  0.00  0.00    -0.000 C 
ATOM     17  C   UNL     1      31.824 -11.449 -21.455  0.00  0.00    -0.000 C 
ATOM     18  C   UNL     1      31.878  -9.429 -19.533  0.00  0.00    +0.029 C 
ATOM     19  C   UNL     1      31.774 -10.112 -21.848  0.00  0.00    +0.029 C 
ATOM     20  C   UNL     1      31.801  -9.101 -20.886  0.00  0.00    +0.140 C 
ENDBRANCH  13  15
ENDBRANCH  10  13
ENDBRANCH   6  11
BRANCH   4  21
ATOM     21  C   UNL     1      35.722 -18.550 -22.307  0.00  0.00    +0.117 C 
ATOM     22  C   UNL     1      35.897 -19.358 -23.585  0.00  0.00    +0.028 C 
ATOM     23  C   UNL     1      37.059 -18.288 -21.627  0.00  0.00    +0.028 C 
BRANCH  21  25
ATOM     24  O   UNL     1      36.286 -20.751 -20.552  0.00  0.00    -0.265 OA
ATOM     25  N   UNL     1      34.798 -19.191 -21.408  0.00  0.00    -0.293 N 
ATOM     26  C   UNL     1      35.164 -20.254 -20.594  0.00  0.00    +0.302 C 
ATOM     27  H   UNL     1      33.870 -18.862 -21.370  0.00  0.00    +0.150 HD
BRANCH  26  31
ATOM     28  O   UNL     1      34.376 -21.804 -18.844  0.00  0.00    -0.416 OA
ATOM     29  N   UNL     1      32.822 -20.474 -19.750  0.00  0.00    -0.102 NA
ATOM     30  N   UNL     1      32.205 -21.266 -18.800  0.00  0.00    -0.111 NA
ATOM     31  C   UNL     1      34.087 -20.822 -19.742  0.00  0.00    +0.304 A 
ATOM     32  C   UNL     1      33.149 -22.026 -18.297  0.00  0.00    +0.227 A 
ATOM     33  C   UNL     1      33.067 -23.055 -17.253  0.00  0.00    +0.097 C 
ENDBRANCH  26  31
ENDBRANCH  21  25
ENDBRANCH   4  21
BRANCH   8  34
ATOM     34  O   UNL     1      33.194 -13.656 -23.427  0.00  0.00    -0.370 OA
ATOM     35  H   UNL     1      32.905 -13.458 -24.296  0.00  0.00    +0.211 HD
ENDBRANCH   8  34
TORSDOF 7
ENDMDL
MODEL 6
REMARK VINA RESULT:      -9.5      5.068      8.874
REMARK  Name = 54671008
REMARK  7 active torsions:
REMARK  status: ('A' for Active; 'I' for Inactive)
REMARK    1  A    between atoms: C_4  and  C_21
REMARK    2  A    between atoms: C_6  and  C_11
REMARK    3  A    between atoms: C_8  and  O_34
REMARK    4  A    between atoms: N_10  and  C_13
REMARK    5  A    between atoms: C_13  and  C_15
REMARK    6  A    between atoms: C_21  and  N_25
REMARK    7  A    between atoms: C_26  and  C_31
REMARK                            x       y       z     vdW  Elec       q    Type
REMARK                         _______ _______ _______ _____ _____    ______ ____
ROOT
ATOM      1  O   UNL     1      32.997 -22.294 -19.137  0.00  0.00    -0.271 OA
ATOM      2  N   UNL     1      34.432 -20.770 -20.185  0.00  0.00    -0.232 N 
ATOM      3  N   UNL     1      36.579 -20.368 -19.247  0.00  0.00    -0.386 NA
ATOM      4  C   UNL     1      35.678 -20.150 -20.155  0.00  0.00    +0.182 C 
ATOM      5  C   UNL     1      34.069 -21.695 -19.202  0.00  0.00    +0.265 C 
ATOM      6  C   UNL     1      36.266 -21.269 -18.266  0.00  0.00    +0.199 C 
ATOM      7  C   UNL     1      33.492 -20.449 -21.258  0.00  0.00    +0.122 C 
ATOM      8  C   UNL     1      35.110 -21.939 -18.166  0.00  0.00    +0.245 C 
ENDROOT
BRANCH   6  11
ATOM      9  O   UNL     1      38.013 -20.579 -16.856  0.00  0.00    -0.268 OA
ATOM     10  N   UNL     1      37.358 -22.816 -16.832  0.00  0.00    -0.295 N 
ATOM     11  C   UNL     1      37.302 -21.500 -17.250  0.00  0.00    +0.275 C 
ATOM     12  H   UNL     1      36.729 -23.461 -17.228  0.00  0.00    +0.150 HD
BRANCH  10  13
ATOM     13  C   UNL     1      38.295 -23.293 -15.839  0.00  0.00    +0.117 C 
BRANCH  13  15
ATOM     14  F   UNL     1      35.688 -25.293 -11.267  0.00  0.00    -0.204 F 
ATOM     15  C   UNL     1      37.600 -23.827 -14.620  0.00  0.00    -0.002 C 
ATOM     16  C   UNL     1      36.526 -23.128 -14.068  0.00  0.00    -0.000 C 
ATOM     17  C   UNL     1      38.027 -25.021 -14.040  0.00  0.00    -0.000 C 
ATOM     18  C   UNL     1      35.881 -23.623 -12.935  0.00  0.00    +0.029 C 
ATOM     19  C   UNL     1      37.382 -25.516 -12.907  0.00  0.00    +0.029 C 
ATOM     20  C   UNL     1      36.309 -24.817 -12.355  0.00  0.00    +0.140 C 
ENDBRANCH  13  15
ENDBRANCH  10  13
ENDBRANCH   6  11
BRANCH   4  21
ATOM     21  C   UNL     1      36.007 -19.159 -21.246  0.00  0.00    +0.117 C 
ATOM     22  C   UNL     1      37.482 -18.789 -21.178  0.00  0.00    +0.028 C 
ATOM     23  C   UNL     1      35.643 -19.748 -22.603  0.00  0.00    +0.028 C 
BRANCH  21  25
ATOM     24  O   UNL     1      35.648 -16.794 -22.833  0.00  0.00    -0.265 OA
ATOM     25  N   UNL     1      35.172 -18.029 -20.929  0.00  0.00    -0.293 N 
ATOM     26  C   UNL     1      35.061 -16.925 -21.763  0.00  0.00    +0.302 C 
ATOM     27  H   UNL     1      34.660 -18.042 -20.088  0.00  0.00    +0.150 HD
BRANCH  26  31
ATOM     28  O   UNL     1      33.702 -14.905 -22.156  0.00  0.00    -0.416 OA
ATOM     29  N   UNL     1      33.783 -15.638 -20.043  0.00  0.00    -0.102 NA
ATOM     30  N   UNL     1      32.984 -14.511 -20.074  0.00  0.00    -0.111 NA
ATOM     31  C   UNL     1      34.179 -15.831 -21.280  0.00  0.00    +0.304 A 
ATOM     32  C   UNL     1      32.965 -14.117 -21.326  0.00  0.00    +0.227 A 
ATOM     33  C   UNL     1      32.277 -12.973 -21.938  0.00  0.00    +0.097 C 
ENDBRANCH  26  31
ENDBRANCH  21  25
ENDBRANCH   4  21
BRANCH   8  34
ATOM     34  O   UNL     1      34.833 -22.838 -17.162  0.00  0.00    -0.370 OA
ATOM     35  H   UNL     1      34.091 -23.407 -17.233  0.00  0.00    +0.211 HD
ENDBRANCH   8  34
TORSDOF 7
ENDMDL
MODEL 7
REMARK VINA RESULT:      -9.2      2.689      6.456
REMARK  Name = 54671008
REMARK  7 active torsions:
REMARK  status: ('A' for Active; 'I' for Inactive)
REMARK    1  A    between atoms: C_4  and  C_21
REMARK    2  A    between atoms: C_6  and  C_11
REMARK    3  A    between atoms: C_8  and  O_34
REMARK    4  A    between atoms: N_10  and  C_13
REMARK    5  A    between atoms: C_13  and  C_15
REMARK    6  A    between atoms: C_21  and  N_25
REMARK    7  A    between atoms: C_26  and  C_31
REMARK                            x       y       z     vdW  Elec       q    Type
REMARK                         _______ _______ _______ _____ _____    ______ ____
ROOT
ATOM      1  O   UNL     1      30.469 -22.330 -16.656  0.00  0.00    -0.271 OA
ATOM      2  N   UNL     1      32.199 -23.244 -15.370  0.00  0.00    -0.232 N 
ATOM      3  N   UNL     1      34.380 -23.394 -16.303  0.00  0.00    -0.386 NA
ATOM      4  C   UNL     1      33.549 -23.582 -15.325  0.00  0.00    +0.182 C 
ATOM      5  C   UNL     1      31.645 -22.662 -16.513  0.00  0.00    +0.265 C 
ATOM      6  C   UNL     1      33.880 -22.825 -17.442  0.00  0.00    +0.199 C 
ATOM      7  C   UNL     1      31.352 -23.500 -14.206  0.00  0.00    +0.122 C 
ATOM      8  C   UNL     1      32.607 -22.449 -17.629  0.00  0.00    +0.245 C 
ENDROOT
BRANCH   6  11
ATOM      9  O   UNL     1      34.799 -23.315 -19.547  0.00  0.00    -0.268 OA
ATOM     10  N   UNL     1      35.739 -21.602 -18.276  0.00  0.00    -0.295 N 
ATOM     11  C   UNL     1      34.841 -22.620 -18.535  0.00  0.00    +0.275 C 
ATOM     12  H   UNL     1      35.665 -21.119 -17.421  0.00  0.00    +0.150 HD
BRANCH  10  13
ATOM     13  C   UNL     1      36.781 -21.212 -19.198  0.00  0.00    +0.117 C 
BRANCH  13  15
ATOM     14  F   UNL     1      34.933 -17.519 -23.025  0.00  0.00    -0.204 F 
ATOM     15  C   UNL     1      36.289 -20.226 -20.218  0.00  0.00    -0.002 C 
ATOM     16  C   UNL     1      34.959 -20.265 -20.639  0.00  0.00    -0.000 C 
ATOM     17  C   UNL     1      37.160 -19.273 -20.746  0.00  0.00    -0.000 C 
ATOM     18  C   UNL     1      34.502 -19.351 -21.588  0.00  0.00    +0.029 C 
ATOM     19  C   UNL     1      36.702 -18.359 -21.694  0.00  0.00    +0.029 C 
ATOM     20  C   UNL     1      35.373 -18.398 -22.115  0.00  0.00    +0.140 C 
ENDBRANCH  13  15
ENDBRANCH  10  13
ENDBRANCH   6  11
BRANCH   4  21
ATOM     21  C   UNL     1      34.084 -24.208 -14.059  0.00  0.00    +0.117 C 
ATOM     22  C   UNL     1      33.855 -23.267 -12.884  0.00  0.00    +0.028 C 
ATOM     23  C   UNL     1      33.417 -25.558 -13.830  0.00  0.00    +0.028 C 
BRANCH  21  25
ATOM     24  O   UNL     1      36.094 -25.162 -12.244  0.00  0.00    -0.265 OA
ATOM     25  N   UNL     1      35.489 -24.362 -14.336  0.00  0.00    -0.293 N 
ATOM     26  C   UNL     1      36.389 -24.834 -13.390  0.00  0.00    +0.302 C 
ATOM     27  H   UNL     1      35.823 -24.124 -15.231  0.00  0.00    +0.150 HD
BRANCH  26  31
ATOM     28  O   UNL     1      38.585 -25.956 -13.428  0.00  0.00    -0.416 OA
ATOM     29  N   UNL     1      38.439 -24.046 -14.584  0.00  0.00    -0.102 NA
ATOM     30  N   UNL     1      39.727 -24.528 -14.717  0.00  0.00    -0.111 NA
ATOM     31  C   UNL     1      37.808 -24.910 -13.824  0.00  0.00    +0.304 A 
ATOM     32  C   UNL     1      39.767 -25.643 -14.027  0.00  0.00    +0.227 A 
ATOM     33  C   UNL     1      40.882 -26.575 -13.817  0.00  0.00    +0.097 C 
ENDBRANCH  26  31
ENDBRANCH  21  25
ENDBRANCH   4  21
BRANCH   8  34
ATOM     34  O   UNL     1      32.142 -21.880 -18.792  0.00  0.00    -0.370 OA
ATOM     35  H   UNL     1      31.728 -21.040 -18.770  0.00  0.00    +0.211 HD
ENDBRANCH   8  34
TORSDOF 7
ENDMDL
MODEL 8
REMARK VINA RESULT:      -8.9      7.837     12.011
REMARK  Name = 54671008
REMARK  7 active torsions:
REMARK  status: ('A' for Active; 'I' for Inactive)
REMARK    1  A    between atoms: C_4  and  C_21
REMARK    2  A    between atoms: C_6  and  C_11
REMARK    3  A    between atoms: C_8  and  O_34
REMARK    4  A    between atoms: N_10  and  C_13
REMARK    5  A    between atoms: C_13  and  C_15
REMARK    6  A    between atoms: C_21  and  N_25
REMARK    7  A    between atoms: C_26  and  C_31
REMARK                            x       y       z     vdW  Elec       q    Type
REMARK                         _______ _______ _______ _____ _____    ______ ____
ROOT
ATOM      1  O   UNL     1      34.354 -15.974 -25.921  0.00  0.00    -0.271 OA
ATOM      2  N   UNL     1      33.709 -14.583 -24.152  0.00  0.00    -0.232 N 
ATOM      3  N   UNL     1      34.236 -15.224 -21.924  0.00  0.00    -0.386 NA
ATOM      4  C   UNL     1      33.707 -14.396 -22.772  0.00  0.00    +0.182 C 
ATOM      5  C   UNL     1      34.301 -15.714 -24.720  0.00  0.00    +0.265 C 
ATOM      6  C   UNL     1      34.828 -16.344 -22.438  0.00  0.00    +0.199 C 
ATOM      7  C   UNL     1      33.084 -13.583 -25.016  0.00  0.00    +0.122 C 
ATOM      8  C   UNL     1      34.906 -16.656 -23.739  0.00  0.00    +0.245 C 
ENDROOT
BRANCH   6  11
ATOM      9  O   UNL     1      35.518 -16.948 -20.275  0.00  0.00    -0.268 OA
ATOM     10  N   UNL     1      35.829 -18.459 -22.023  0.00  0.00    -0.295 N 
ATOM     11  C   UNL     1      35.422 -17.266 -21.458  0.00  0.00    +0.275 C 
ATOM     12  H   UNL     1      35.695 -18.590 -22.990  0.00  0.00    +0.150 HD
BRANCH  10  13
ATOM     13  C   UNL     1      36.442 -19.526 -21.265  0.00  0.00    +0.117 C 
BRANCH  13  15
ATOM     14  F   UNL     1      32.654 -22.452 -18.300  0.00  0.00    -0.204 F 
ATOM     15  C   UNL     1      35.432 -20.307 -20.474  0.00  0.00    -0.002 C 
ATOM     16  C   UNL     1      34.070 -20.077 -20.665  0.00  0.00    -0.000 C 
ATOM     17  C   UNL     1      35.856 -21.261 -19.549  0.00  0.00    -0.000 C 
ATOM     18  C   UNL     1      33.131 -20.802 -19.930  0.00  0.00    +0.029 C 
ATOM     19  C   UNL     1      34.918 -21.985 -18.814  0.00  0.00    +0.029 C 
ATOM     20  C   UNL     1      33.555 -21.756 -19.005  0.00  0.00    +0.140 C 
ENDBRANCH  13  15
ENDBRANCH  10  13
ENDBRANCH   6  11
BRANCH   4  21
ATOM     21  C   UNL     1      33.050 -13.152 -22.223  0.00  0.00    +0.117 C 
ATOM     22  C   UNL     1      31.587 -13.115 -22.645  0.00  0.00    +0.028 C 
ATOM     23  C   UNL     1      33.193 -13.120 -20.708  0.00  0.00    +0.028 C 
BRANCH  21  25
ATOM     24  O   UNL     1      32.354 -10.367 -22.251  0.00  0.00    -0.265 OA
ATOM     25  N   UNL     1      33.796 -12.086 -22.839  0.00  0.00    -0.293 N 
ATOM     26  C   UNL     1      33.379 -10.762 -22.800  0.00  0.00    +0.302 C 
ATOM     27  H   UNL     1      34.636 -12.304 -23.306  0.00  0.00    +0.150 HD
BRANCH  26  31
ATOM     28  O   UNL     1      34.058  -8.449 -23.321  0.00  0.00    -0.416 OA
ATOM     29  N   UNL     1      35.227 -10.067 -24.332  0.00  0.00    -0.102 NA
ATOM     30  N   UNL     1      35.743  -8.851 -24.738  0.00  0.00    -0.111 NA
ATOM     31  C   UNL     1      34.247  -9.785 -23.506  0.00  0.00    +0.304 A 
ATOM     32  C   UNL     1      35.031  -7.936 -24.124  0.00  0.00    +0.227 A 
ATOM     33  C   UNL     1      35.135  -6.472 -24.181  0.00  0.00    +0.097 C 
ENDBRANCH  26  31
ENDBRANCH  21  25
ENDBRANCH   4  21
BRANCH   8  34
ATOM     34  O   UNL     1      35.511 -17.796 -24.216  0.00  0.00    -0.370 OA
ATOM     35  H   UNL     1      35.224 -18.177 -25.023  0.00  0.00    +0.211 HD
ENDBRANCH   8  34
TORSDOF 7
ENDMDL
MODEL 9
REMARK VINA RESULT:      -8.8     10.065     13.673
REMARK  Name = 54671008
REMARK  7 active torsions:
REMARK  status: ('A' for Active; 'I' for Inactive)
REMARK    1  A    between atoms: C_4  and  C_21
REMARK    2  A    between atoms: C_6  and  C_11
REMARK    3  A    between atoms: C_8  and  O_34
REMARK    4  A    between atoms: N_10  and  C_13
REMARK    5  A    between atoms: C_13  and  C_15
REMARK    6  A    between atoms: C_21  and  N_25
REMARK    7  A    between atoms: C_26  and  C_31
REMARK                            x       y       z     vdW  Elec       q    Type
REMARK                         _______ _______ _______ _____ _____    ______ ____
ROOT
ATOM      1  O   UNL     1      31.539 -12.356 -19.136  0.00  0.00    -0.271 OA
ATOM      2  N   UNL     1      32.453 -12.751 -21.255  0.00  0.00    -0.232 N 
ATOM      3  N   UNL     1      32.675 -10.938 -22.777  0.00  0.00    -0.386 NA
ATOM      4  C   UNL     1      32.817 -12.193 -22.478  0.00  0.00    +0.182 C 
ATOM      5  C   UNL     1      31.895 -11.962 -20.246  0.00  0.00    +0.265 C 
ATOM      6  C   UNL     1      32.134 -10.128 -21.817  0.00  0.00    +0.199 C 
ATOM      7  C   UNL     1      32.659 -14.180 -21.025  0.00  0.00    +0.122 C 
ATOM      8  C   UNL     1      31.738 -10.524 -20.599  0.00  0.00    +0.245 C 
ENDROOT
BRANCH   6  11
ATOM      9  O   UNL     1      31.105  -8.351 -22.955  0.00  0.00    -0.268 OA
ATOM     10  N   UNL     1      32.917  -7.900 -21.560  0.00  0.00    -0.295 N 
ATOM     11  C   UNL     1      31.985  -8.711 -22.178  0.00  0.00    +0.275 C 
ATOM     12  H   UNL     1      33.573  -8.316 -20.956  0.00  0.00    +0.150 HD
BRANCH  10  13
ATOM     13  C   UNL     1      32.975  -6.469 -21.756  0.00  0.00    +0.117 C 
BRANCH  13  15
ATOM     14  F   UNL     1      34.806  -5.120 -26.907  0.00  0.00    -0.204 F 
ATOM     15  C   UNL     1      33.463  -6.109 -23.130  0.00  0.00    -0.002 C 
ATOM     16  C   UNL     1      34.687  -6.600 -23.586  0.00  0.00    -0.000 C 
ATOM     17  C   UNL     1      32.694  -5.284 -23.950  0.00  0.00    -0.000 C 
ATOM     18  C   UNL     1      35.140  -6.266 -24.862  0.00  0.00    +0.029 C 
ATOM     19  C   UNL     1      33.147  -4.950 -25.226  0.00  0.00    +0.029 C 
ATOM     20  C   UNL     1      34.371  -5.441 -25.682  0.00  0.00    +0.140 C 
ENDBRANCH  13  15
ENDBRANCH  10  13
ENDBRANCH   6  11
BRANCH   4  21
ATOM     21  C   UNL     1      33.415 -13.101 -23.525  0.00  0.00    +0.117 C 
ATOM     22  C   UNL     1      32.312 -13.649 -24.421  0.00  0.00    +0.028 C 
ATOM     23  C   UNL     1      34.460 -12.341 -24.331  0.00  0.00    +0.028 C 
BRANCH  21  25
ATOM     24  O   UNL     1      34.443 -15.594 -24.510  0.00  0.00    -0.265 OA
ATOM     25  N   UNL     1      34.020 -14.150 -22.746  0.00  0.00    -0.293 N 
ATOM     26  C   UNL     1      34.491 -15.326 -23.313  0.00  0.00    +0.302 C 
ATOM     27  H   UNL     1      34.104 -14.026 -21.772  0.00  0.00    +0.150 HD
BRANCH  26  31
ATOM     28  O   UNL     1      36.007 -17.203 -22.801  0.00  0.00    -0.416 OA
ATOM     29  N   UNL     1      34.759 -16.457 -21.100  0.00  0.00    -0.102 NA
ATOM     30  N   UNL     1      35.538 -17.498 -20.633  0.00  0.00    -0.111 NA
ATOM     31  C   UNL     1      35.066 -16.319 -22.369  0.00  0.00    +0.304 A 
ATOM     32  C   UNL     1      36.250 -17.903 -21.659  0.00  0.00    +0.227 A 
ATOM     33  C   UNL     1      37.246 -18.978 -21.742  0.00  0.00    +0.097 C 
ENDBRANCH  26  31
ENDBRANCH  21  25
ENDBRANCH   4  21
BRANCH   8  34
ATOM     34  O   UNL     1      31.196  -9.677 -19.659  0.00  0.00    -0.370 OA
ATOM     35  H   UNL     1      31.230  -8.750 -19.790  0.00  0.00    +0.211 HD
ENDBRANCH   8  34
TORSDOF 7
ENDMDL
