MODEL 1
REMARK VINA RESULT:     -11.7      0.000      0.000
REMARK  Name = 17754438
REMARK  6 active torsions:
REMARK  status: ('A' for Active; 'I' for Inactive)
REMARK    1  A    between atoms: N_1  and  C_19
REMARK    2  A    between atoms: C_7  and  C_12
REMARK    3  A    between atoms: N_10  and  C_15
REMARK    4  A    between atoms: C_15  and  C_16
REMARK    5  A    between atoms: C_16  and  O_17
REMARK    6  A    between atoms: C_19  and  C_21
REMARK                            x       y       z     vdW  Elec       q    Type
REMARK                         _______ _______ _______ _____ _____    ______ ____
ROOT
ATOM      1  N   UNL     1      34.746 -20.395 -20.317  0.00  0.00    -0.163 N 
ATOM      2  N   UNL     1      35.699 -21.547 -18.385  0.00  0.00    -0.378 NA
ATOM      3  N   UNL     1      33.527 -20.295 -20.884  0.00  0.00    -0.033 NA
ATOM      4  N   UNL     1      32.943 -22.412 -18.160  0.00  0.00    -0.208 NA
ATOM      5  N   UNL     1      32.681 -21.031 -20.164  0.00  0.00    -0.086 NA
ATOM      6  C   UNL     1      34.710 -21.196 -19.221  0.00  0.00    +0.267 C 
ATOM      7  C   UNL     1      35.242 -22.367 -17.410  0.00  0.00    +0.140 C 
ATOM      8  C   UNL     1      33.388 -21.590 -19.141  0.00  0.00    +0.098 C 
ATOM      9  C   UNL     1      33.922 -22.782 -17.302  0.00  0.00    +0.195 C 
ENDROOT
BRANCH   7  12
ATOM     10  N   UNL     1      37.149 -23.872 -14.792  0.00  0.00    -0.208 N 
ATOM     11  N   UNL     1      38.141 -23.093 -15.256  0.00  0.00    -0.176 NA
ATOM     12  C   UNL     1      36.219 -22.806 -16.457  0.00  0.00    +0.064 C 
ATOM     13  C   UNL     1      35.977 -23.738 -15.477  0.00  0.00    +0.088 C 
ATOM     14  C   UNL     1      37.567 -22.444 -16.273  0.00  0.00    +0.121 C 
BRANCH  10  15
ATOM     15  C   UNL     1      37.390 -24.745 -13.668  0.00  0.00    +0.148 C 
BRANCH  15  16
ATOM     16  C   UNL     1      38.691 -25.525 -13.803  0.00  0.00    +0.161 C 
BRANCH  16  17
ATOM     17  O   UNL     1      38.780 -26.089 -15.104  0.00  0.00    -0.380 OA
ATOM     18  H   UNL     1      38.601 -27.041 -15.057  0.00  0.00    +0.211 HD
ENDBRANCH  16  17
ENDBRANCH  15  16
ENDBRANCH  10  15
ENDBRANCH   7  12
BRANCH   1  19
ATOM     19  C   UNL     1      35.897 -19.687 -20.889  0.00  0.00    +0.145 C 
BRANCH  19  21
ATOM     20  N   UNL     1      34.307 -15.189 -23.933  0.00  0.00    -0.244 NA
ATOM     21  C   UNL     1      35.478 -18.496 -21.683  0.00  0.00    -0.000 C 
ATOM     22  C   UNL     1      35.177 -17.298 -21.041  0.00  0.00    -0.001 C 
ATOM     23  C   UNL     1      34.781 -16.173 -21.786  0.00  0.00    +0.017 C 
ATOM     24  C   UNL     1      35.384 -18.577 -23.067  0.00  0.00    -0.001 C 
ATOM     25  C   UNL     1      34.684 -16.248 -23.191  0.00  0.00    +0.081 C 
ATOM     26  C   UNL     1      34.990 -17.458 -23.806  0.00  0.00    +0.019 C 
ATOM     27  C   UNL     1      34.474 -14.955 -21.165  0.00  0.00    +0.003 C 
ATOM     28  C   UNL     1      34.085 -13.863 -21.928  0.00  0.00    +0.021 C 
ATOM     29  C   UNL     1      34.018 -14.031 -23.296  0.00  0.00    +0.099 C 
ENDBRANCH  19  21
ENDBRANCH   1  19
TORSDOF 6
ENDMDL
MODEL 2
REMARK VINA RESULT:     -11.3      2.557      4.231
REMARK  Name = 17754438
REMARK  6 active torsions:
REMARK  status: ('A' for Active; 'I' for Inactive)
REMARK    1  A    between atoms: N_1  and  C_19
REMARK    2  A    between atoms: C_7  and  C_12
REMARK    3  A    between atoms: N_10  and  C_15
REMARK    4  A    between atoms: C_15  and  C_16
REMARK    5  A    between atoms: C_16  and  O_17
REMARK    6  A    between atoms: C_19  and  C_21
REMARK                            x       y       z     vdW  Elec       q    Type
REMARK                         _______ _______ _______ _____ _____    ______ ____
ROOT
ATOM      1  N   UNL     1      33.346 -23.317 -17.274  0.00  0.00    -0.163 N 
ATOM      2  N   UNL     1      34.874 -24.113 -15.541  0.00  0.00    -0.378 NA
ATOM      3  N   UNL     1      32.094 -22.819 -17.311  0.00  0.00    -0.033 NA
ATOM      4  N   UNL     1      32.597 -23.404 -13.897  0.00  0.00    -0.208 NA
ATOM      5  N   UNL     1      31.634 -22.780 -16.060  0.00  0.00    -0.086 NA
ATOM      6  C   UNL     1      33.719 -23.608 -16.000  0.00  0.00    +0.267 C 
ATOM      7  C   UNL     1      34.841 -24.252 -14.196  0.00  0.00    +0.140 C 
ATOM      8  C   UNL     1      32.616 -23.259 -15.244  0.00  0.00    +0.098 C 
ATOM      9  C   UNL     1      33.750 -23.913 -13.408  0.00  0.00    +0.195 C 
ENDROOT
BRANCH   7  12
ATOM     10  N   UNL     1      38.055 -25.572 -13.366  0.00  0.00    -0.208 N 
ATOM     11  N   UNL     1      37.569 -25.594 -12.113  0.00  0.00    -0.176 NA
ATOM     12  C   UNL     1      36.029 -24.787 -13.596  0.00  0.00    +0.064 C 
ATOM     13  C   UNL     1      37.172 -25.098 -14.292  0.00  0.00    +0.088 C 
ATOM     14  C   UNL     1      36.331 -25.113 -12.260  0.00  0.00    +0.121 C 
BRANCH  10  15
ATOM     15  C   UNL     1      39.402 -26.025 -13.620  0.00  0.00    +0.148 C 
BRANCH  15  16
ATOM     16  C   UNL     1      40.092 -25.220 -14.713  0.00  0.00    +0.161 C 
BRANCH  16  17
ATOM     17  O   UNL     1      40.552 -26.096 -15.735  0.00  0.00    -0.380 OA
ATOM     18  H   UNL     1      40.448 -25.667 -16.598  0.00  0.00    +0.211 HD
ENDBRANCH  16  17
ENDBRANCH  15  16
ENDBRANCH  10  15
ENDBRANCH   7  12
BRANCH   1  19
ATOM     19  C   UNL     1      34.121 -23.481 -18.509  0.00  0.00    +0.145 C 
BRANCH  19  21
ATOM     20  N   UNL     1      34.733 -18.572 -21.256  0.00  0.00    -0.244 NA
ATOM     21  C   UNL     1      34.293 -22.189 -19.233  0.00  0.00    -0.000 C 
ATOM     22  C   UNL     1      35.568 -21.687 -19.477  0.00  0.00    -0.001 C 
ATOM     23  C   UNL     1      35.733 -20.469 -20.159  0.00  0.00    +0.017 C 
ATOM     24  C   UNL     1      33.180 -21.478 -19.666  0.00  0.00    -0.001 C 
ATOM     25  C   UNL     1      34.609 -19.742 -20.601  0.00  0.00    +0.081 C 
ATOM     26  C   UNL     1      33.346 -20.267 -20.344  0.00  0.00    +0.019 C 
ATOM     27  C   UNL     1      37.005 -19.941 -20.418  0.00  0.00    +0.003 C 
ATOM     28  C   UNL     1      37.136 -18.735 -21.093  0.00  0.00    +0.021 C 
ATOM     29  C   UNL     1      35.978 -18.097 -21.487  0.00  0.00    +0.099 C 
ENDBRANCH  19  21
ENDBRANCH   1  19
TORSDOF 6
ENDMDL
MODEL 3
REMARK VINA RESULT:     -10.7      4.463      6.967
REMARK  Name = 17754438
REMARK  6 active torsions:
REMARK  status: ('A' for Active; 'I' for Inactive)
REMARK    1  A    between atoms: N_1  and  C_19
REMARK    2  A    between atoms: C_7  and  C_12
REMARK    3  A    between atoms: N_10  and  C_15
REMARK    4  A    between atoms: C_15  and  C_16
REMARK    5  A    between atoms: C_16  and  O_17
REMARK    6  A    between atoms: C_19  and  C_21
REMARK                            x       y       z     vdW  Elec       q    Type
REMARK                         _______ _______ _______ _____ _____    ______ ____
ROOT
ATOM      1  N   UNL     1      34.269 -23.223 -17.064  0.00  0.00    -0.163 N 
ATOM      2  N   UNL     1      31.877 -23.308 -16.571  0.00  0.00    -0.378 NA
ATOM      3  N   UNL     1      35.401 -23.052 -16.353  0.00  0.00    -0.033 NA
ATOM      4  N   UNL     1      32.911 -22.869 -13.901  0.00  0.00    -0.208 NA
ATOM      5  N   UNL     1      35.059 -22.895 -15.074  0.00  0.00    -0.086 NA
ATOM      6  C   UNL     1      33.175 -23.180 -16.258  0.00  0.00    +0.267 C 
ATOM      7  C   UNL     1      31.100 -23.204 -15.468  0.00  0.00    +0.140 C 
ATOM      8  C   UNL     1      33.700 -22.971 -14.997  0.00  0.00    +0.098 C 
ATOM      9  C   UNL     1      31.595 -22.994 -14.188  0.00  0.00    +0.195 C 
ENDROOT
BRANCH   7  12
ATOM     10  N   UNL     1      27.591 -22.795 -15.991  0.00  0.00    -0.208 N 
ATOM     11  N   UNL     1      27.581 -24.138 -16.032  0.00  0.00    -0.176 NA
ATOM     12  C   UNL     1      29.688 -23.325 -15.687  0.00  0.00    +0.064 C 
ATOM     13  C   UNL     1      28.828 -22.258 -15.787  0.00  0.00    +0.088 C 
ATOM     14  C   UNL     1      28.865 -24.456 -15.845  0.00  0.00    +0.121 C 
BRANCH  10  15
ATOM     15  C   UNL     1      26.357 -22.064 -16.161  0.00  0.00    +0.148 C 
BRANCH  15  16
ATOM     16  C   UNL     1      26.181 -21.540 -17.580  0.00  0.00    +0.161 C 
BRANCH  16  17
ATOM     17  O   UNL     1      26.035 -20.126 -17.554  0.00  0.00    -0.380 OA
ATOM     18  H   UNL     1      26.857 -19.710 -17.855  0.00  0.00    +0.211 HD
ENDBRANCH  16  17
ENDBRANCH  15  16
ENDBRANCH  10  15
ENDBRANCH   7  12
BRANCH   1  19
ATOM     19  C   UNL     1      34.320 -23.422 -18.517  0.00  0.00    +0.145 C 
BRANCH  19  21
ATOM     20  N   UNL     1      34.715 -18.511 -21.300  0.00  0.00    -0.244 NA
ATOM     21  C   UNL     1      34.434 -22.129 -19.251  0.00  0.00    -0.000 C 
ATOM     22  C   UNL     1      35.687 -21.606 -19.556  0.00  0.00    -0.001 C 
ATOM     23  C   UNL     1      35.799 -20.387 -20.248  0.00  0.00    +0.017 C 
ATOM     24  C   UNL     1      33.290 -21.439 -19.632  0.00  0.00    -0.001 C 
ATOM     25  C   UNL     1      34.642 -19.681 -20.637  0.00  0.00    +0.081 C 
ATOM     26  C   UNL     1      33.402 -20.227 -20.319  0.00  0.00    +0.019 C 
ATOM     27  C   UNL     1      37.048 -19.838 -20.568  0.00  0.00    +0.003 C 
ATOM     28  C   UNL     1      37.125 -18.632 -21.251  0.00  0.00    +0.021 C 
ATOM     29  C   UNL     1      35.939 -18.015 -21.591  0.00  0.00    +0.099 C 
ENDBRANCH  19  21
ENDBRANCH   1  19
TORSDOF 6
ENDMDL
MODEL 4
REMARK VINA RESULT:     -10.1      2.825      4.378
REMARK  Name = 17754438
REMARK  6 active torsions:
REMARK  status: ('A' for Active; 'I' for Inactive)
REMARK    1  A    between atoms: N_1  and  C_19
REMARK    2  A    between atoms: C_7  and  C_12
REMARK    3  A    between atoms: N_10  and  C_15
REMARK    4  A    between atoms: C_15  and  C_16
REMARK    5  A    between atoms: C_16  and  O_17
REMARK    6  A    between atoms: C_19  and  C_21
REMARK                            x       y       z     vdW  Elec       q    Type
REMARK                         _______ _______ _______ _____ _____    ______ ____
ROOT
ATOM      1  N   UNL     1      33.099 -23.120 -17.545  0.00  0.00    -0.163 N 
ATOM      2  N   UNL     1      34.201 -23.895 -15.507  0.00  0.00    -0.378 NA
ATOM      3  N   UNL     1      31.942 -22.498 -17.846  0.00  0.00    -0.033 NA
ATOM      4  N   UNL     1      31.784 -22.783 -14.362  0.00  0.00    -0.208 NA
ATOM      5  N   UNL     1      31.285 -22.283 -16.706  0.00  0.00    -0.086 NA
ATOM      6  C   UNL     1      33.212 -23.319 -16.205  0.00  0.00    +0.267 C 
ATOM      7  C   UNL     1      33.925 -23.893 -14.182  0.00  0.00    +0.140 C 
ATOM      8  C   UNL     1      32.049 -22.779 -15.690  0.00  0.00    +0.098 C 
ATOM      9  C   UNL     1      32.767 -23.360 -13.633  0.00  0.00    +0.195 C 
ENDROOT
BRANCH   7  12
ATOM     10  N   UNL     1      36.707 -25.565 -12.691  0.00  0.00    -0.208 N 
ATOM     11  N   UNL     1      36.126 -25.204 -11.534  0.00  0.00    -0.176 NA
ATOM     12  C   UNL     1      34.919 -24.488 -13.337  0.00  0.00    +0.064 C 
ATOM     13  C   UNL     1      36.024 -25.161 -13.801  0.00  0.00    +0.088 C 
ATOM     14  C   UNL     1      35.035 -24.547 -11.935  0.00  0.00    +0.121 C 
BRANCH  10  15
ATOM     15  C   UNL     1      37.943 -26.310 -12.670  0.00  0.00    +0.148 C 
BRANCH  15  16
ATOM     16  C   UNL     1      39.147 -25.454 -13.040  0.00  0.00    +0.161 C 
BRANCH  16  17
ATOM     17  O   UNL     1      39.102 -24.228 -12.321  0.00  0.00    -0.380 OA
ATOM     18  H   UNL     1      39.946 -24.091 -11.864  0.00  0.00    +0.211 HD
ENDBRANCH  16  17
ENDBRANCH  15  16
ENDBRANCH  10  15
ENDBRANCH   7  12
BRANCH   1  19
ATOM     19  C   UNL     1      34.046 -23.492 -18.602  0.00  0.00    +0.145 C 
BRANCH  19  21
ATOM     20  N   UNL     1      37.205 -19.094 -20.248  0.00  0.00    -0.244 NA
ATOM     21  C   UNL     1      34.870 -22.329 -19.042  0.00  0.00    -0.000 C 
ATOM     22  C   UNL     1      34.420 -21.498 -20.064  0.00  0.00    -0.001 C 
ATOM     23  C   UNL     1      35.195 -20.402 -20.481  0.00  0.00    +0.017 C 
ATOM     24  C   UNL     1      36.094 -22.072 -18.436  0.00  0.00    -0.001 C 
ATOM     25  C   UNL     1      36.438 -20.135 -19.871  0.00  0.00    +0.081 C 
ATOM     26  C   UNL     1      36.864 -20.983 -18.852  0.00  0.00    +0.019 C 
ATOM     27  C   UNL     1      34.765 -19.549 -21.507  0.00  0.00    +0.003 C 
ATOM     28  C   UNL     1      35.554 -18.476 -21.898  0.00  0.00    +0.021 C 
ATOM     29  C   UNL     1      36.754 -18.294 -21.241  0.00  0.00    +0.099 C 
ENDBRANCH  19  21
ENDBRANCH   1  19
TORSDOF 6
ENDMDL
MODEL 5
REMARK VINA RESULT:      -9.9      8.078     14.064
REMARK  Name = 17754438
REMARK  6 active torsions:
REMARK  status: ('A' for Active; 'I' for Inactive)
REMARK    1  A    between atoms: N_1  and  C_19
REMARK    2  A    between atoms: C_7  and  C_12
REMARK    3  A    between atoms: N_10  and  C_15
REMARK    4  A    between atoms: C_15  and  C_16
REMARK    5  A    between atoms: C_16  and  O_17
REMARK    6  A    between atoms: C_19  and  C_21
REMARK                            x       y       z     vdW  Elec       q    Type
REMARK                         _______ _______ _______ _____ _____    ______ ____
ROOT
ATOM      1  N   UNL     1      31.634 -10.544 -20.613  0.00  0.00    -0.163 N 
ATOM      2  N   UNL     1      32.337  -8.705 -22.060  0.00  0.00    -0.378 NA
ATOM      3  N   UNL     1      31.566 -10.763 -19.284  0.00  0.00    -0.033 NA
ATOM      4  N   UNL     1      32.846  -7.511 -19.470  0.00  0.00    -0.208 NA
ATOM      5  N   UNL     1      32.008  -9.667 -18.668  0.00  0.00    -0.086 NA
ATOM      6  C   UNL     1      32.119  -9.303 -20.879  0.00  0.00    +0.267 C 
ATOM      7  C   UNL     1      32.831  -7.457 -21.887  0.00  0.00    +0.140 C 
ATOM      8  C   UNL     1      32.351  -8.762 -19.629  0.00  0.00    +0.098 C 
ATOM      9  C   UNL     1      33.075  -6.885 -20.647  0.00  0.00    +0.195 C 
ENDROOT
BRANCH   7  12
ATOM     10  N   UNL     1      34.175  -5.848 -24.779  0.00  0.00    -0.208 N 
ATOM     11  N   UNL     1      32.910  -5.437 -24.968  0.00  0.00    -0.176 NA
ATOM     12  C   UNL     1      33.102  -6.723 -23.090  0.00  0.00    +0.064 C 
ATOM     13  C   UNL     1      34.344  -6.622 -23.668  0.00  0.00    +0.088 C 
ATOM     14  C   UNL     1      32.259  -5.974 -23.932  0.00  0.00    +0.121 C 
BRANCH  10  15
ATOM     15  C   UNL     1      35.201  -5.463 -25.719  0.00  0.00    +0.148 C 
BRANCH  15  16
ATOM     16  C   UNL     1      34.813  -4.240 -26.538  0.00  0.00    +0.161 C 
BRANCH  16  17
ATOM     17  O   UNL     1      34.056  -4.643 -27.672  0.00  0.00    -0.380 OA
ATOM     18  H   UNL     1      33.164  -4.898 -27.392  0.00  0.00    +0.211 HD
ENDBRANCH  16  17
ENDBRANCH  15  16
ENDBRANCH  10  15
ENDBRANCH   7  12
BRANCH   1  19
ATOM     19  C   UNL     1      31.211 -11.578 -21.563  0.00  0.00    +0.145 C 
BRANCH  19  21
ATOM     20  N   UNL     1      34.604 -16.103 -21.375  0.00  0.00    -0.244 NA
ATOM     21  C   UNL     1      32.108 -12.769 -21.524  0.00  0.00    -0.000 C 
ATOM     22  C   UNL     1      32.715 -13.227 -22.689  0.00  0.00    -0.001 C 
ATOM     23  C   UNL     1      33.561 -14.350 -22.656  0.00  0.00    +0.017 C 
ATOM     24  C   UNL     1      32.340 -13.429 -20.323  0.00  0.00    -0.001 C 
ATOM     25  C   UNL     1      33.801 -15.025 -21.441  0.00  0.00    +0.081 C 
ATOM     26  C   UNL     1      33.180 -14.545 -20.291  0.00  0.00    +0.019 C 
ATOM     27  C   UNL     1      34.185 -14.832 -23.814  0.00  0.00    +0.003 C 
ATOM     28  C   UNL     1      35.014 -15.943 -23.749  0.00  0.00    +0.021 C 
ATOM     29  C   UNL     1      35.188 -16.537 -22.515  0.00  0.00    +0.099 C 
ENDBRANCH  19  21
ENDBRANCH   1  19
TORSDOF 6
ENDMDL
MODEL 6
REMARK VINA RESULT:      -9.9      3.601      7.489
REMARK  Name = 17754438
REMARK  6 active torsions:
REMARK  status: ('A' for Active; 'I' for Inactive)
REMARK    1  A    between atoms: N_1  and  C_19
REMARK    2  A    between atoms: C_7  and  C_12
REMARK    3  A    between atoms: N_10  and  C_15
REMARK    4  A    between atoms: C_15  and  C_16
REMARK    5  A    between atoms: C_16  and  O_17
REMARK    6  A    between atoms: C_19  and  C_21
REMARK                            x       y       z     vdW  Elec       q    Type
REMARK                         _______ _______ _______ _____ _____    ______ ____
ROOT
ATOM      1  N   UNL     1      33.393 -14.110 -23.681  0.00  0.00    -0.163 N 
ATOM      2  N   UNL     1      34.413 -16.104 -22.704  0.00  0.00    -0.378 NA
ATOM      3  N   UNL     1      33.138 -13.660 -24.926  0.00  0.00    -0.033 NA
ATOM      4  N   UNL     1      34.672 -16.750 -25.516  0.00  0.00    -0.208 NA
ATOM      5  N   UNL     1      33.577 -14.577 -25.788  0.00  0.00    -0.086 NA
ATOM      6  C   UNL     1      34.001 -15.325 -23.715  0.00  0.00    +0.267 C 
ATOM      7  C   UNL     1      34.974 -17.244 -23.168  0.00  0.00    +0.140 C 
ATOM      8  C   UNL     1      34.108 -15.604 -25.064  0.00  0.00    +0.098 C 
ATOM      9  C   UNL     1      35.098 -17.554 -24.515  0.00  0.00    +0.195 C 
ENDROOT
BRANCH   7  12
ATOM     10  N   UNL     1      35.516 -19.795 -20.727  0.00  0.00    -0.208 N 
ATOM     11  N   UNL     1      36.744 -19.256 -20.639  0.00  0.00    -0.176 NA
ATOM     12  C   UNL     1      35.453 -18.155 -22.169  0.00  0.00    +0.064 C 
ATOM     13  C   UNL     1      34.703 -19.172 -21.629  0.00  0.00    +0.088 C 
ATOM     14  C   UNL     1      36.699 -18.254 -21.522  0.00  0.00    +0.121 C 
BRANCH  10  15
ATOM     15  C   UNL     1      35.172 -20.931 -19.907  0.00  0.00    +0.148 C 
BRANCH  15  16
ATOM     16  C   UNL     1      36.397 -21.625 -19.326  0.00  0.00    +0.161 C 
BRANCH  16  17
ATOM     17  O   UNL     1      36.871 -20.897 -18.200  0.00  0.00    -0.380 OA
ATOM     18  H   UNL     1      37.434 -20.167 -18.500  0.00  0.00    +0.211 HD
ENDBRANCH  16  17
ENDBRANCH  15  16
ENDBRANCH  10  15
ENDBRANCH   7  12
BRANCH   1  19
ATOM     19  C   UNL     1      33.020 -13.312 -22.507  0.00  0.00    +0.145 C 
BRANCH  19  21
ATOM     20  N   UNL     1      33.770  -7.781 -23.435  0.00  0.00    -0.244 NA
ATOM     21  C   UNL     1      33.210 -11.853 -22.744  0.00  0.00    -0.000 C 
ATOM     22  C   UNL     1      32.357 -10.929 -22.148  0.00  0.00    -0.001 C 
ATOM     23  C   UNL     1      32.533  -9.552 -22.370  0.00  0.00    +0.017 C 
ATOM     24  C   UNL     1      34.239 -11.406 -23.565  0.00  0.00    -0.001 C 
ATOM     25  C   UNL     1      33.575  -9.092 -23.201  0.00  0.00    +0.081 C 
ATOM     26  C   UNL     1      34.413 -10.038 -23.785  0.00  0.00    +0.019 C 
ATOM     27  C   UNL     1      31.688  -8.602 -21.781  0.00  0.00    +0.003 C 
ATOM     28  C   UNL     1      31.887  -7.249 -22.021  0.00  0.00    +0.021 C 
ATOM     29  C   UNL     1      32.933  -6.895 -22.848  0.00  0.00    +0.099 C 
ENDBRANCH  19  21
ENDBRANCH   1  19
TORSDOF 6
ENDMDL
MODEL 7
REMARK VINA RESULT:      -9.8      3.703      7.400
REMARK  Name = 17754438
REMARK  6 active torsions:
REMARK  status: ('A' for Active; 'I' for Inactive)
REMARK    1  A    between atoms: N_1  and  C_19
REMARK    2  A    between atoms: C_7  and  C_12
REMARK    3  A    between atoms: N_10  and  C_15
REMARK    4  A    between atoms: C_15  and  C_16
REMARK    5  A    between atoms: C_16  and  O_17
REMARK    6  A    between atoms: C_19  and  C_21
REMARK                            x       y       z     vdW  Elec       q    Type
REMARK                         _______ _______ _______ _____ _____    ______ ____
ROOT
ATOM      1  N   UNL     1      33.038 -14.168 -22.118  0.00  0.00    -0.163 N 
ATOM      2  N   UNL     1      34.201 -16.250 -21.584  0.00  0.00    -0.378 NA
ATOM      3  N   UNL     1      32.924 -13.369 -23.198  0.00  0.00    -0.033 NA
ATOM      4  N   UNL     1      35.034 -15.918 -24.339  0.00  0.00    -0.208 NA
ATOM      5  N   UNL     1      33.650 -13.904 -24.179  0.00  0.00    -0.086 NA
ATOM      6  C   UNL     1      33.839 -15.234 -22.382  0.00  0.00    +0.267 C 
ATOM      7  C   UNL     1      35.016 -17.111 -22.236  0.00  0.00    +0.140 C 
ATOM      8  C   UNL     1      34.217 -15.047 -23.697  0.00  0.00    +0.098 C 
ATOM      9  C   UNL     1      35.415 -16.953 -23.556  0.00  0.00    +0.195 C 
ENDROOT
BRANCH   7  12
ATOM     10  N   UNL     1      35.450 -20.105 -20.337  0.00  0.00    -0.208 N 
ATOM     11  N   UNL     1      36.748 -19.755 -20.342  0.00  0.00    -0.176 NA
ATOM     12  C   UNL     1      35.466 -18.240 -21.474  0.00  0.00    +0.064 C 
ATOM     13  C   UNL     1      34.641 -19.231 -21.000  0.00  0.00    +0.088 C 
ATOM     14  C   UNL     1      36.751 -18.615 -21.038  0.00  0.00    +0.121 C 
BRANCH  10  15
ATOM     15  C   UNL     1      35.038 -21.315 -19.667  0.00  0.00    +0.148 C 
BRANCH  15  16
ATOM     16  C   UNL     1      33.536 -21.364 -19.422  0.00  0.00    +0.161 C 
BRANCH  16  17
ATOM     17  O   UNL     1      33.190 -22.600 -18.812  0.00  0.00    -0.380 OA
ATOM     18  H   UNL     1      33.936 -22.919 -18.281  0.00  0.00    +0.211 HD
ENDBRANCH  16  17
ENDBRANCH  15  16
ENDBRANCH  10  15
ENDBRANCH   7  12
BRANCH   1  19
ATOM     19  C   UNL     1      32.345 -13.839 -20.868  0.00  0.00    +0.145 C 
BRANCH  19  21
ATOM     20  N   UNL     1      31.683  -8.259 -20.193  0.00  0.00    -0.244 NA
ATOM     21  C   UNL     1      32.171 -12.367 -20.700  0.00  0.00    -0.000 C 
ATOM     22  C   UNL     1      32.277 -11.520 -21.799  0.00  0.00    -0.001 C 
ATOM     23  C   UNL     1      32.115 -10.132 -21.645  0.00  0.00    +0.017 C 
ATOM     24  C   UNL     1      31.904 -11.834 -19.445  0.00  0.00    -0.001 C 
ATOM     25  C   UNL     1      31.844  -9.584 -20.375  0.00  0.00    +0.081 C 
ATOM     26  C   UNL     1      31.743 -10.454 -19.293  0.00  0.00    +0.019 C 
ATOM     27  C   UNL     1      32.216  -9.257 -22.735  0.00  0.00    +0.003 C 
ATOM     28  C   UNL     1      32.051  -7.891 -22.550  0.00  0.00    +0.021 C 
ATOM     29  C   UNL     1      31.789  -7.448 -21.270  0.00  0.00    +0.099 C 
ENDBRANCH  19  21
ENDBRANCH   1  19
TORSDOF 6
ENDMDL
MODEL 8
REMARK VINA RESULT:      -9.8      7.875     14.050
REMARK  Name = 17754438
REMARK  6 active torsions:
REMARK  status: ('A' for Active; 'I' for Inactive)
REMARK    1  A    between atoms: N_1  and  C_19
REMARK    2  A    between atoms: C_7  and  C_12
REMARK    3  A    between atoms: N_10  and  C_15
REMARK    4  A    between atoms: C_15  and  C_16
REMARK    5  A    between atoms: C_16  and  O_17
REMARK    6  A    between atoms: C_19  and  C_21
REMARK                            x       y       z     vdW  Elec       q    Type
REMARK                         _______ _______ _______ _____ _____    ______ ____
ROOT
ATOM      1  N   UNL     1      31.707 -11.071 -20.774  0.00  0.00    -0.163 N 
ATOM      2  N   UNL     1      32.205  -8.942 -21.866  0.00  0.00    -0.378 NA
ATOM      3  N   UNL     1      31.545 -11.496 -19.505  0.00  0.00    -0.033 NA
ATOM      4  N   UNL     1      32.216  -8.085 -19.099  0.00  0.00    -0.208 NA
ATOM      5  N   UNL     1      31.711 -10.447 -18.699  0.00  0.00    -0.086 NA
ATOM      6  C   UNL     1      31.981  -9.740 -20.812  0.00  0.00    +0.267 C 
ATOM      7  C   UNL     1      32.440  -7.670 -21.471  0.00  0.00    +0.140 C 
ATOM      8  C   UNL     1      31.978  -9.362 -19.482  0.00  0.00    +0.098 C 
ATOM      9  C   UNL     1      32.446  -7.259 -20.146  0.00  0.00    +0.195 C 
ENDROOT
BRANCH   7  12
ATOM     10  N   UNL     1      32.511  -4.980 -23.820  0.00  0.00    -0.208 N 
ATOM     11  N   UNL     1      33.572  -5.633 -24.325  0.00  0.00    -0.176 NA
ATOM     12  C   UNL     1      32.694  -6.728 -22.522  0.00  0.00    +0.064 C 
ATOM     13  C   UNL     1      31.949  -5.595 -22.740  0.00  0.00    +0.088 C 
ATOM     14  C   UNL     1      33.679  -6.700 -23.528  0.00  0.00    +0.121 C 
BRANCH  10  15
ATOM     15  C   UNL     1      32.075  -3.745 -24.427  0.00  0.00    +0.148 C 
BRANCH  15  16
ATOM     16  C   UNL     1      31.111  -2.968 -23.540  0.00  0.00    +0.161 C 
BRANCH  16  17
ATOM     17  O   UNL     1      31.844  -2.133 -22.653  0.00  0.00    -0.380 OA
ATOM     18  H   UNL     1      31.251  -1.466 -22.273  0.00  0.00    +0.211 HD
ENDBRANCH  16  17
ENDBRANCH  15  16
ENDBRANCH  10  15
ENDBRANCH   7  12
BRANCH   1  19
ATOM     19  C   UNL     1      31.583 -12.005 -21.897  0.00  0.00    +0.145 C 
BRANCH  19  21
ATOM     20  N   UNL     1      34.820 -16.588 -21.159  0.00  0.00    -0.244 NA
ATOM     21  C   UNL     1      32.439 -13.212 -21.713  0.00  0.00    -0.000 C 
ATOM     22  C   UNL     1      33.054 -13.809 -22.809  0.00  0.00    -0.001 C 
ATOM     23  C   UNL     1      33.861 -14.948 -22.639  0.00  0.00    +0.017 C 
ATOM     24  C   UNL     1      32.625 -13.750 -20.445  0.00  0.00    -0.001 C 
ATOM     25  C   UNL     1      34.055 -15.498 -21.356  0.00  0.00    +0.081 C 
ATOM     26  C   UNL     1      33.427 -14.881 -20.276  0.00  0.00    +0.019 C 
ATOM     27  C   UNL     1      34.492 -15.567 -23.726  0.00  0.00    +0.003 C 
ATOM     28  C   UNL     1      35.282 -16.691 -23.526  0.00  0.00    +0.021 C 
ATOM     29  C   UNL     1      35.413 -17.156 -22.234  0.00  0.00    +0.099 C 
ENDBRANCH  19  21
ENDBRANCH   1  19
TORSDOF 6
ENDMDL
MODEL 9
REMARK VINA RESULT:      -9.7      3.913      9.612
REMARK  Name = 17754438
REMARK  6 active torsions:
REMARK  status: ('A' for Active; 'I' for Inactive)
REMARK    1  A    between atoms: N_1  and  C_19
REMARK    2  A    between atoms: C_7  and  C_12
REMARK    3  A    between atoms: N_10  and  C_15
REMARK    4  A    between atoms: C_15  and  C_16
REMARK    5  A    between atoms: C_16  and  O_17
REMARK    6  A    between atoms: C_19  and  C_21
REMARK                            x       y       z     vdW  Elec       q    Type
REMARK                         _______ _______ _______ _____ _____    ______ ____
ROOT
ATOM      1  N   UNL     1      34.981 -21.274 -19.404  0.00  0.00    -0.163 N 
ATOM      2  N   UNL     1      34.896 -19.609 -21.190  0.00  0.00    -0.378 NA
ATOM      3  N   UNL     1      35.914 -21.726 -18.541  0.00  0.00    -0.033 NA
ATOM      4  N   UNL     1      37.658 -19.305 -20.370  0.00  0.00    -0.208 NA
ATOM      5  N   UNL     1      37.044 -21.059 -18.777  0.00  0.00    -0.086 NA
ATOM      6  C   UNL     1      35.490 -20.307 -20.211  0.00  0.00    +0.267 C 
ATOM      7  C   UNL     1      35.759 -18.734 -21.755  0.00  0.00    +0.140 C 
ATOM      8  C   UNL     1      36.803 -20.185 -19.796  0.00  0.00    +0.098 C 
ATOM      9  C   UNL     1      37.082 -18.588 -21.363  0.00  0.00    +0.195 C 
ENDROOT
BRANCH   7  12
ATOM     10  N   UNL     1      34.444 -16.216 -23.920  0.00  0.00    -0.208 N 
ATOM     11  N   UNL     1      34.426 -17.204 -24.831  0.00  0.00    -0.176 NA
ATOM     12  C   UNL     1      35.227 -17.932 -22.819  0.00  0.00    +0.064 C 
ATOM     13  C   UNL     1      34.914 -16.600 -22.698  0.00  0.00    +0.088 C 
ATOM     14  C   UNL     1      34.906 -18.250 -24.152  0.00  0.00    +0.121 C 
BRANCH  10  15
ATOM     15  C   UNL     1      33.990 -14.895 -24.287  0.00  0.00    +0.148 C 
BRANCH  15  16
ATOM     16  C   UNL     1      33.231 -14.885 -25.607  0.00  0.00    +0.161 C 
BRANCH  16  17
ATOM     17  O   UNL     1      34.140 -15.081 -26.683  0.00  0.00    -0.380 OA
ATOM     18  H   UNL     1      34.180 -16.024 -26.904  0.00  0.00    +0.211 HD
ENDBRANCH  16  17
ENDBRANCH  15  16
ENDBRANCH  10  15
ENDBRANCH   7  12
BRANCH   1  19
ATOM     19  C   UNL     1      33.620 -21.821 -19.388  0.00  0.00    +0.145 C 
BRANCH  19  21
ATOM     20  N   UNL     1      32.329 -24.027 -14.339  0.00  0.00    -0.244 NA
ATOM     21  C   UNL     1      33.270 -22.401 -18.060  0.00  0.00    -0.000 C 
ATOM     22  C   UNL     1      31.962 -22.330 -17.588  0.00  0.00    -0.001 C 
ATOM     23  C   UNL     1      31.629 -22.875 -16.335  0.00  0.00    +0.017 C 
ATOM     24  C   UNL     1      34.248 -23.012 -17.284  0.00  0.00    -0.001 C 
ATOM     25  C   UNL     1      32.616 -23.497 -15.543  0.00  0.00    +0.081 C 
ATOM     26  C   UNL     1      33.915 -23.553 -16.040  0.00  0.00    +0.019 C 
ATOM     27  C   UNL     1      30.320 -22.818 -15.837  0.00  0.00    +0.003 C 
ATOM     28  C   UNL     1      30.022 -23.364 -14.596  0.00  0.00    +0.021 C 
ATOM     29  C   UNL     1      31.054 -23.952 -13.894  0.00  0.00    +0.099 C 
ENDBRANCH  19  21
ENDBRANCH   1  19
TORSDOF 6
ENDMDL
