MODEL 1
REMARK VINA RESULT:     -12.2      0.000      0.000
REMARK  Name = 71226662
REMARK  4 active torsions:
REMARK  status: ('A' for Active; 'I' for Inactive)
REMARK    1  A    between atoms: C_5  and  C_15
REMARK    2  A    between atoms: C_7  and  C_23
REMARK    3  A    between atoms: C_19  and  C_20
REMARK    4  A    between atoms: C_28  and  C_31
REMARK                            x       y       z     vdW  Elec       q    Type
REMARK                         _______ _______ _______ _____ _____    ______ ____
ROOT
ATOM      1  N   UNL     1      33.002 -24.323 -14.305  0.00  0.00    -0.251 N 
ATOM      2  N   UNL     1      34.941 -23.740 -15.216  0.00  0.00    -0.392 NA
ATOM      3  N   UNL     1      30.356 -23.903 -15.025  0.00  0.00    -0.231 NA
ATOM      4  N   UNL     1      30.921 -22.716 -16.935  0.00  0.00    -0.344 N 
ATOM      5  C   UNL     1      34.365 -24.368 -14.211  0.00  0.00    +0.182 C 
ATOM      6  C   UNL     1      32.691 -23.621 -15.445  0.00  0.00    +0.185 C 
ATOM      7  C   UNL     1      33.904 -23.271 -15.990  0.00  0.00    +0.136 C 
ATOM      8  C   UNL     1      31.996 -24.826 -13.507  0.00  0.00    +0.089 C 
ATOM      9  C   UNL     1      31.298 -23.410 -15.807  0.00  0.00    +0.128 C 
ATOM     10  C   UNL     1      30.727 -24.602 -13.888  0.00  0.00    +0.116 C 
ATOM     11  H   UNL     1      29.966 -22.597 -17.143  0.00  0.00    +0.143 HD
ATOM     12  H   UNL     1      31.606 -22.340 -17.534  0.00  0.00    +0.143 HD
ENDROOT
BRANCH   5  15
ATOM     13  O   UNL     1      36.446 -26.794 -14.959  0.00  0.00    -0.260 OA
ATOM     14  N   UNL     1      36.530 -25.204 -13.271  0.00  0.00    -0.263 N 
ATOM     15  C   UNL     1      35.084 -25.067 -13.072  0.00  0.00    +0.143 C 
ATOM     16  C   UNL     1      34.967 -24.302 -11.747  0.00  0.00    +0.030 C 
ATOM     17  C   UNL     1      36.243 -23.467 -11.695  0.00  0.00    +0.024 C 
ATOM     18  C   UNL     1      37.281 -24.380 -12.327  0.00  0.00    +0.095 C 
ATOM     19  C   UNL     1      37.083 -26.105 -14.169  0.00  0.00    +0.293 C 
BRANCH  19  20
ATOM     20  C   UNL     1      38.522 -26.239 -14.169  0.00  0.00    -0.007 C 
ATOM     21  C   UNL     1      39.718 -26.350 -14.169  0.00  0.00    -0.081 C 
ATOM     22  C   UNL     1      41.174 -26.486 -14.168  0.00  0.00    +0.090 C 
ENDBRANCH  19  20
ENDBRANCH   5  15
BRANCH   7  23
ATOM     23  C   UNL     1      34.123 -22.526 -17.191  0.00  0.00    +0.028 C 
ATOM     24  C   UNL     1      33.037 -22.126 -17.972  0.00  0.00    +0.002 C 
ATOM     25  C   UNL     1      35.421 -22.200 -17.583  0.00  0.00    +0.002 C 
ATOM     26  C   UNL     1      33.251 -21.401 -19.143  0.00  0.00    +0.005 C 
ATOM     27  C   UNL     1      35.635 -21.474 -18.754  0.00  0.00    +0.005 C 
ATOM     28  C   UNL     1      34.550 -21.074 -19.535  0.00  0.00    +0.054 C 
BRANCH  28  31
ATOM     29  O   UNL     1      35.063 -20.925 -21.799  0.00  0.00    -0.270 OA
ATOM     30  N   UNL     1      34.659 -18.924 -20.641  0.00  0.00    -0.266 N 
ATOM     31  C   UNL     1      34.772 -20.316 -20.756  0.00  0.00    +0.251 C 
ATOM     32  H   UNL     1      34.421 -18.586 -19.748  0.00  0.00    +0.157 HD
ATOM     33  N   UNL     1      34.681 -16.640 -21.307  0.00  0.00    -0.229 NA
ATOM     34  C   UNL     1      34.842 -17.939 -21.643  0.00  0.00    +0.134 C 
ATOM     35  C   UNL     1      35.178 -18.375 -22.915  0.00  0.00    +0.034 C 
ATOM     36  C   UNL     1      35.361 -17.417 -23.905  0.00  0.00    +0.004 C 
ATOM     37  C   UNL     1      34.865 -15.736 -22.296  0.00  0.00    +0.100 C 
ATOM     38  C   UNL     1      35.203 -16.069 -23.597  0.00  0.00    +0.021 C 
ENDBRANCH  28  31
ENDBRANCH   7  23
TORSDOF 4
ENDMDL
MODEL 2
REMARK VINA RESULT:     -10.5     10.910     19.611
REMARK  Name = 71226662
REMARK  4 active torsions:
REMARK  status: ('A' for Active; 'I' for Inactive)
REMARK    1  A    between atoms: C_5  and  C_15
REMARK    2  A    between atoms: C_7  and  C_23
REMARK    3  A    between atoms: C_19  and  C_20
REMARK    4  A    between atoms: C_28  and  C_31
REMARK                            x       y       z     vdW  Elec       q    Type
REMARK                         _______ _______ _______ _____ _____    ______ ____
ROOT
ATOM      1  N   UNL     1      32.446  -3.393 -25.340  0.00  0.00    -0.251 N 
ATOM      2  N   UNL     1      33.558  -5.281 -25.698  0.00  0.00    -0.392 NA
ATOM      3  N   UNL     1      30.507  -2.644 -23.503  0.00  0.00    -0.231 NA
ATOM      4  N   UNL     1      30.479  -4.724 -22.478  0.00  0.00    -0.344 N 
ATOM      5  C   UNL     1      33.385  -4.036 -26.096  0.00  0.00    +0.182 C 
ATOM      6  C   UNL     1      31.992  -4.286 -24.400  0.00  0.00    +0.185 C 
ATOM      7  C   UNL     1      32.693  -5.445 -24.641  0.00  0.00    +0.136 C 
ATOM      8  C   UNL     1      31.938  -2.112 -25.377  0.00  0.00    +0.089 C 
ATOM      9  C   UNL     1      30.974  -3.877 -23.444  0.00  0.00    +0.128 C 
ATOM     10  C   UNL     1      31.001  -1.786 -24.472  0.00  0.00    +0.116 C 
ATOM     11  H   UNL     1      29.790  -4.405 -21.851  0.00  0.00    +0.143 HD
ATOM     12  H   UNL     1      30.813  -5.647 -22.414  0.00  0.00    +0.143 HD
ENDROOT
BRANCH   5  15
ATOM     13  O   UNL     1      36.628  -4.489 -26.338  0.00  0.00    -0.260 OA
ATOM     14  N   UNL     1      35.013  -4.251 -27.987  0.00  0.00    -0.263 N 
ATOM     15  C   UNL     1      34.116  -3.362 -27.243  0.00  0.00    +0.143 C 
ATOM     16  C   UNL     1      33.157  -2.827 -28.314  0.00  0.00    +0.030 C 
ATOM     17  C   UNL     1      33.106  -3.947 -29.349  0.00  0.00    +0.024 C 
ATOM     18  C   UNL     1      34.527  -4.489 -29.344  0.00  0.00    +0.095 C 
ATOM     19  C   UNL     1      36.225  -4.693 -27.478  0.00  0.00    +0.293 C 
BRANCH  19  20
ATOM     20  C   UNL     1      37.078  -5.451 -28.366  0.00  0.00    -0.007 C 
ATOM     21  C   UNL     1      37.786  -6.081 -29.103  0.00  0.00    -0.081 C 
ATOM     22  C   UNL     1      38.648  -6.849 -30.000  0.00  0.00    +0.090 C 
ENDBRANCH  19  20
ENDBRANCH   5  15
BRANCH   7  23
ATOM     23  C   UNL     1      32.582  -6.680 -23.927  0.00  0.00    +0.028 C 
ATOM     24  C   UNL     1      33.705  -7.232 -23.309  0.00  0.00    +0.002 C 
ATOM     25  C   UNL     1      31.352  -7.332 -23.850  0.00  0.00    +0.002 C 
ATOM     26  C   UNL     1      33.597  -8.436 -22.614  0.00  0.00    +0.005 C 
ATOM     27  C   UNL     1      31.244  -8.536 -23.154  0.00  0.00    +0.005 C 
ATOM     28  C   UNL     1      32.366  -9.089 -22.536  0.00  0.00    +0.054 C 
BRANCH  28  31
ATOM     29  O   UNL     1      31.593 -10.374 -20.758  0.00  0.00    -0.270 OA
ATOM     30  N   UNL     1      32.937 -11.434 -22.363  0.00  0.00    -0.266 N 
ATOM     31  C   UNL     1      32.254 -10.343 -21.810  0.00  0.00    +0.251 C 
ATOM     32  H   UNL     1      33.418 -11.257 -23.204  0.00  0.00    +0.157 HD
ATOM     33  N   UNL     1      33.750 -13.661 -22.574  0.00  0.00    -0.229 NA
ATOM     34  C   UNL     1      33.028 -12.760 -21.870  0.00  0.00    +0.134 C 
ATOM     35  C   UNL     1      32.365 -13.049 -20.689  0.00  0.00    +0.034 C 
ATOM     36  C   UNL     1      32.448 -14.347 -20.196  0.00  0.00    +0.004 C 
ATOM     37  C   UNL     1      33.808 -14.912 -22.065  0.00  0.00    +0.100 C 
ATOM     38  C   UNL     1      33.182 -15.303 -20.892  0.00  0.00    +0.021 C 
ENDBRANCH  28  31
ENDBRANCH   7  23
TORSDOF 4
ENDMDL
MODEL 3
REMARK VINA RESULT:     -10.4      1.612      2.904
REMARK  Name = 71226662
REMARK  4 active torsions:
REMARK  status: ('A' for Active; 'I' for Inactive)
REMARK    1  A    between atoms: C_5  and  C_15
REMARK    2  A    between atoms: C_7  and  C_23
REMARK    3  A    between atoms: C_19  and  C_20
REMARK    4  A    between atoms: C_28  and  C_31
REMARK                            x       y       z     vdW  Elec       q    Type
REMARK                         _______ _______ _______ _____ _____    ______ ____
ROOT
ATOM      1  N   UNL     1      35.087 -23.823 -15.355  0.00  0.00    -0.251 N 
ATOM      2  N   UNL     1      36.735 -22.925 -16.540  0.00  0.00    -0.392 NA
ATOM      3  N   UNL     1      32.324 -23.798 -15.610  0.00  0.00    -0.231 NA
ATOM      4  N   UNL     1      32.376 -22.491 -17.524  0.00  0.00    -0.344 N 
ATOM      5  C   UNL     1      36.437 -23.659 -15.487  0.00  0.00    +0.182 C 
ATOM      6  C   UNL     1      34.487 -23.149 -16.391  0.00  0.00    +0.185 C 
ATOM      7  C   UNL     1      35.525 -22.602 -17.109  0.00  0.00    +0.136 C 
ATOM      8  C   UNL     1      34.316 -24.495 -14.429  0.00  0.00    +0.089 C 
ATOM      9  C   UNL     1      33.036 -23.146 -16.509  0.00  0.00    +0.128 C 
ATOM     10  C   UNL     1      32.982 -24.460 -14.586  0.00  0.00    +0.116 C 
ATOM     11  H   UNL     1      31.392 -22.515 -17.566  0.00  0.00    +0.143 HD
ATOM     12  H   UNL     1      32.886 -21.999 -18.207  0.00  0.00    +0.143 HD
ENDROOT
BRANCH   5  15
ATOM     13  O   UNL     1      36.567 -22.441 -12.442  0.00  0.00    -0.260 OA
ATOM     14  N   UNL     1      36.867 -24.610 -13.210  0.00  0.00    -0.263 N 
ATOM     15  C   UNL     1      37.434 -24.267 -14.518  0.00  0.00    +0.143 C 
ATOM     16  C   UNL     1      38.011 -25.595 -15.027  0.00  0.00    +0.030 C 
ATOM     17  C   UNL     1      37.126 -26.651 -14.372  0.00  0.00    +0.024 C 
ATOM     18  C   UNL     1      36.829 -26.055 -13.005  0.00  0.00    +0.095 C 
ATOM     19  C   UNL     1      36.533 -23.654 -12.263  0.00  0.00    +0.293 C 
BRANCH  19  20
ATOM     20  C   UNL     1      36.113 -24.129 -10.964  0.00  0.00    -0.007 C 
ATOM     21  C   UNL     1      35.764 -24.524  -9.885  0.00  0.00    -0.081 C 
ATOM     22  C   UNL     1      35.339 -25.006  -8.572  0.00  0.00    +0.090 C 
ENDBRANCH  19  20
ENDBRANCH   5  15
BRANCH   7  23
ATOM     23  C   UNL     1      35.423 -21.802 -18.290  0.00  0.00    +0.028 C 
ATOM     24  C   UNL     1      34.177 -21.577 -18.877  0.00  0.00    +0.002 C 
ATOM     25  C   UNL     1      36.571 -21.247 -18.857  0.00  0.00    +0.002 C 
ATOM     26  C   UNL     1      34.080 -20.798 -20.029  0.00  0.00    +0.005 C 
ATOM     27  C   UNL     1      36.473 -20.468 -20.009  0.00  0.00    +0.005 C 
ATOM     28  C   UNL     1      35.228 -20.243 -20.596  0.00  0.00    +0.054 C 
BRANCH  28  31
ATOM     29  O   UNL     1      35.171 -19.984 -22.907  0.00  0.00    -0.270 OA
ATOM     30  N   UNL     1      35.003 -18.048 -21.592  0.00  0.00    -0.266 N 
ATOM     31  C   UNL     1      35.125 -19.429 -21.797  0.00  0.00    +0.251 C 
ATOM     32  H   UNL     1      34.979 -17.755 -20.652  0.00  0.00    +0.157 HD
ATOM     33  N   UNL     1      34.797 -15.740 -22.133  0.00  0.00    -0.229 NA
ATOM     34  C   UNL     1      34.909 -17.018 -22.560  0.00  0.00    +0.134 C 
ATOM     35  C   UNL     1      34.938 -17.390 -23.894  0.00  0.00    +0.034 C 
ATOM     36  C   UNL     1      34.848 -16.387 -24.852  0.00  0.00    +0.004 C 
ATOM     37  C   UNL     1      34.710 -14.792 -23.092  0.00  0.00    +0.100 C 
ATOM     38  C   UNL     1      34.731 -15.060 -24.452  0.00  0.00    +0.021 C 
ENDBRANCH  28  31
ENDBRANCH   7  23
TORSDOF 4
ENDMDL
MODEL 4
REMARK VINA RESULT:      -9.6      2.295      5.638
REMARK  Name = 71226662
REMARK  4 active torsions:
REMARK  status: ('A' for Active; 'I' for Inactive)
REMARK    1  A    between atoms: C_5  and  C_15
REMARK    2  A    between atoms: C_7  and  C_23
REMARK    3  A    between atoms: C_19  and  C_20
REMARK    4  A    between atoms: C_28  and  C_31
REMARK                            x       y       z     vdW  Elec       q    Type
REMARK                         _______ _______ _______ _____ _____    ______ ____
ROOT
ATOM      1  N   UNL     1      33.788 -23.901 -15.027  0.00  0.00    -0.251 N 
ATOM      2  N   UNL     1      32.314 -22.966 -16.399  0.00  0.00    -0.392 NA
ATOM      3  N   UNL     1      36.560 -24.014 -14.999  0.00  0.00    -0.231 NA
ATOM      4  N   UNL     1      36.766 -22.765 -16.942  0.00  0.00    -0.344 N 
ATOM      5  C   UNL     1      32.467 -23.679 -15.302  0.00  0.00    +0.182 C 
ATOM      6  C   UNL     1      34.522 -23.289 -16.014  0.00  0.00    +0.185 C 
ATOM      7  C   UNL     1      33.590 -22.718 -16.850  0.00  0.00    +0.136 C 
ATOM      8  C   UNL     1      34.427 -24.580 -14.011  0.00  0.00    +0.089 C 
ATOM      9  C   UNL     1      35.975 -23.358 -15.984  0.00  0.00    +0.128 C 
ATOM     10  C   UNL     1      35.770 -24.613 -14.031  0.00  0.00    +0.116 C 
ATOM     11  H   UNL     1      37.747 -22.837 -16.883  0.00  0.00    +0.143 HD
ATOM     12  H   UNL     1      36.353 -22.270 -17.685  0.00  0.00    +0.143 HD
ENDROOT
BRANCH   5  15
ATOM     13  O   UNL     1      30.152 -21.570 -14.319  0.00  0.00    -0.260 OA
ATOM     14  N   UNL     1      30.005 -23.820 -14.866  0.00  0.00    -0.263 N 
ATOM     15  C   UNL     1      31.348 -24.208 -14.423  0.00  0.00    +0.143 C 
ATOM     16  C   UNL     1      31.298 -25.741 -14.397  0.00  0.00    +0.030 C 
ATOM     17  C   UNL     1      30.269 -26.090 -15.468  0.00  0.00    +0.024 C 
ATOM     18  C   UNL     1      29.245 -24.973 -15.343  0.00  0.00    +0.095 C 
ATOM     19  C   UNL     1      29.508 -22.534 -14.720  0.00  0.00    +0.293 C 
BRANCH  19  20
ATOM     20  C   UNL     1      28.122 -22.317 -15.070  0.00  0.00    -0.007 C 
ATOM     21  C   UNL     1      26.971 -22.138 -15.360  0.00  0.00    -0.081 C 
ATOM     22  C   UNL     1      25.569 -21.919 -15.713  0.00  0.00    +0.090 C 
ENDBRANCH  19  20
ENDBRANCH   5  15
BRANCH   7  23
ATOM     23  C   UNL     1      33.849 -21.961 -18.035  0.00  0.00    +0.028 C 
ATOM     24  C   UNL     1      35.156 -21.831 -18.509  0.00  0.00    +0.002 C 
ATOM     25  C   UNL     1      32.796 -21.352 -18.718  0.00  0.00    +0.002 C 
ATOM     26  C   UNL     1      35.408 -21.091 -19.664  0.00  0.00    +0.005 C 
ATOM     27  C   UNL     1      33.049 -20.613 -19.873  0.00  0.00    +0.005 C 
ATOM     28  C   UNL     1      34.354 -20.483 -20.347  0.00  0.00    +0.054 C 
BRANCH  28  31
ATOM     29  O   UNL     1      34.932 -20.314 -22.594  0.00  0.00    -0.270 OA
ATOM     30  N   UNL     1      34.514 -18.322 -21.426  0.00  0.00    -0.266 N 
ATOM     31  C   UNL     1      34.618 -19.713 -21.552  0.00  0.00    +0.251 C 
ATOM     32  H   UNL     1      34.254 -17.991 -20.536  0.00  0.00    +0.157 HD
ATOM     33  N   UNL     1      34.575 -16.031 -22.065  0.00  0.00    -0.229 NA
ATOM     34  C   UNL     1      34.734 -17.328 -22.411  0.00  0.00    +0.134 C 
ATOM     35  C   UNL     1      35.101 -17.753 -23.678  0.00  0.00    +0.034 C 
ATOM     36  C   UNL     1      35.321 -16.786 -24.651  0.00  0.00    +0.004 C 
ATOM     37  C   UNL     1      34.796 -15.118 -23.038  0.00  0.00    +0.100 C 
ATOM     38  C   UNL     1      35.167 -15.440 -24.334  0.00  0.00    +0.021 C 
ENDBRANCH  28  31
ENDBRANCH   7  23
TORSDOF 4
ENDMDL
MODEL 5
REMARK VINA RESULT:      -9.3      8.654     16.229
REMARK  Name = 71226662
REMARK  4 active torsions:
REMARK  status: ('A' for Active; 'I' for Inactive)
REMARK    1  A    between atoms: C_5  and  C_15
REMARK    2  A    between atoms: C_7  and  C_23
REMARK    3  A    between atoms: C_19  and  C_20
REMARK    4  A    between atoms: C_28  and  C_31
REMARK                            x       y       z     vdW  Elec       q    Type
REMARK                         _______ _______ _______ _____ _____    ______ ____
ROOT
ATOM      1  N   UNL     1      32.505  -7.502 -21.338  0.00  0.00    -0.251 N 
ATOM      2  N   UNL     1      33.366  -8.240 -23.246  0.00  0.00    -0.392 NA
ATOM      3  N   UNL     1      31.541  -8.770 -19.066  0.00  0.00    -0.231 NA
ATOM      4  N   UNL     1      31.971 -10.890 -19.901  0.00  0.00    -0.344 N 
ATOM      5  C   UNL     1      33.030  -7.170 -22.555  0.00  0.00    +0.182 C 
ATOM      6  C   UNL     1      32.506  -8.873 -21.250  0.00  0.00    +0.185 C 
ATOM      7  C   UNL     1      33.041  -9.307 -22.440  0.00  0.00    +0.136 C 
ATOM      8  C   UNL     1      32.021  -6.743 -20.294  0.00  0.00    +0.089 C 
ATOM      9  C   UNL     1      31.996  -9.522 -20.051  0.00  0.00    +0.128 C 
ATOM     10  C   UNL     1      31.563  -7.392 -19.210  0.00  0.00    +0.116 C 
ATOM     11  H   UNL     1      31.618 -11.287 -19.072  0.00  0.00    +0.143 HD
ATOM     12  H   UNL     1      32.306 -11.471 -20.621  0.00  0.00    +0.143 HD
ENDROOT
BRANCH   5  15
ATOM     13  O   UNL     1      35.882  -6.297 -23.927  0.00  0.00    -0.260 OA
ATOM     14  N   UNL     1      33.718  -5.592 -24.374  0.00  0.00    -0.263 N 
ATOM     15  C   UNL     1      33.191  -5.732 -23.013  0.00  0.00    +0.143 C 
ATOM     16  C   UNL     1      31.855  -4.979 -23.058  0.00  0.00    +0.030 C 
ATOM     17  C   UNL     1      31.407  -5.117 -24.509  0.00  0.00    +0.024 C 
ATOM     18  C   UNL     1      32.713  -5.046 -25.284  0.00  0.00    +0.095 C 
ATOM     19  C   UNL     1      35.044  -5.839 -24.695  0.00  0.00    +0.293 C 
BRANCH  19  20
ATOM     20  C   UNL     1      35.466  -5.530 -26.043  0.00  0.00    -0.007 C 
ATOM     21  C   UNL     1      35.817  -5.273 -27.162  0.00  0.00    -0.081 C 
ATOM     22  C   UNL     1      36.245  -4.961 -28.525  0.00  0.00    +0.090 C 
ENDBRANCH  19  20
ENDBRANCH   5  15
BRANCH   7  23
ATOM     23  C   UNL     1      33.258 -10.663 -22.840  0.00  0.00    +0.028 C 
ATOM     24  C   UNL     1      34.089 -10.947 -23.925  0.00  0.00    +0.002 C 
ATOM     25  C   UNL     1      32.637 -11.702 -22.147  0.00  0.00    +0.002 C 
ATOM     26  C   UNL     1      34.298 -12.269 -24.316  0.00  0.00    +0.005 C 
ATOM     27  C   UNL     1      32.847 -13.024 -22.538  0.00  0.00    +0.005 C 
ATOM     28  C   UNL     1      33.677 -13.308 -23.622  0.00  0.00    +0.054 C 
BRANCH  28  31
ATOM     29  O   UNL     1      33.594 -15.031 -25.183  0.00  0.00    -0.270 OA
ATOM     30  N   UNL     1      34.427 -15.537 -23.049  0.00  0.00    -0.266 N 
ATOM     31  C   UNL     1      33.898 -14.687 -24.029  0.00  0.00    +0.251 C 
ATOM     32  H   UNL     1      34.620 -15.120 -22.178  0.00  0.00    +0.157 HD
ATOM     33  N   UNL     1      35.234 -17.548 -22.064  0.00  0.00    -0.229 NA
ATOM     34  C   UNL     1      34.722 -16.920 -23.147  0.00  0.00    +0.134 C 
ATOM     35  C   UNL     1      34.466 -17.544 -24.357  0.00  0.00    +0.034 C 
ATOM     36  C   UNL     1      34.751 -18.901 -24.463  0.00  0.00    +0.004 C 
ATOM     37  C   UNL     1      35.499 -18.866 -22.205  0.00  0.00    +0.100 C 
ATOM     38  C   UNL     1      35.278 -19.582 -23.370  0.00  0.00    +0.021 C 
ENDBRANCH  28  31
ENDBRANCH   7  23
TORSDOF 4
ENDMDL
