MODEL 1
REMARK VINA RESULT:     -12.0      0.000      0.000
REMARK  Name = 59568713
REMARK  8 active torsions:
REMARK  status: ('A' for Active; 'I' for Inactive)
REMARK    1  A    between atoms: N_1  and  C_9
REMARK    2  A    between atoms: N_2  and  C_24
REMARK    3  A    between atoms: C_9  and  C_10
REMARK    4  A    between atoms: C_10  and  C_13
REMARK    5  A    between atoms: C_10  and  O_22
REMARK    6  A    between atoms: C_24  and  C_25
REMARK    7  A    between atoms: C_25  and  C_28
REMARK    8  A    between atoms: C_25  and  O_37
REMARK                            x       y       z     vdW  Elec       q    Type
REMARK                         _______ _______ _______ _____ _____    ______ ____
ROOT
ATOM      1  N   UNL     1      34.522 -16.286 -21.775  0.00  0.00    +0.386 N 
ATOM      2  N   UNL     1      33.346 -13.657 -22.031  0.00  0.00    +0.386 N 
ATOM      3  C   UNL     1      33.788 -14.413 -23.210  0.00  0.00    -0.101 C 
ATOM      4  C   UNL     1      32.939 -14.572 -20.959  0.00  0.00    -0.101 C 
ATOM      5  C   UNL     1      34.929 -15.370 -22.848  0.00  0.00    -0.101 C 
ATOM      6  C   UNL     1      34.079 -15.530 -20.597  0.00  0.00    -0.101 C 
ATOM      7  H   UNL     1      33.739 -16.846 -22.110  0.00  0.00    -0.080 HD
ATOM      8  H   UNL     1      34.131 -13.097 -21.696  0.00  0.00    -0.080 HD
ENDROOT
BRANCH   1   9
ATOM      9  C   UNL     1      35.613 -17.195 -21.428  0.00  0.00    -0.043 C 
BRANCH   9  10
ATOM     10  C   UNL     1      35.398 -18.573 -22.067  0.00  0.00    +0.112 C 
BRANCH  10  13
ATOM     11  O   UNL     1      34.835 -22.752 -17.727  0.00  0.00    -0.440 OA
ATOM     12  O   UNL     1      32.527 -22.808 -17.895  0.00  0.00    -0.245 OA
ATOM     13  C   UNL     1      34.884 -19.578 -21.060  0.00  0.00    -0.002 C 
ATOM     14  C   UNL     1      35.770 -20.278 -20.236  0.00  0.00    -0.024 C 
ATOM     15  C   UNL     1      35.247 -21.186 -19.333  0.00  0.00    +0.023 C 
ATOM     16  C   UNL     1      33.498 -19.792 -20.969  0.00  0.00    -0.002 C 
ATOM     17  C   UNL     1      33.883 -21.387 -19.255  0.00  0.00    +0.075 C 
ATOM     18  C   UNL     1      32.981 -20.711 -20.055  0.00  0.00    +0.006 C 
ATOM     19  C   UNL     1      35.935 -22.049 -18.356  0.00  0.00    +0.235 C 
ATOM     20  C   UNL     1      37.243 -20.061 -20.322  0.00  0.00    +0.031 C 
ATOM     21  C   UNL     1      33.615 -22.385 -18.232  0.00  0.00    +0.341 C 
ENDBRANCH  10  13
BRANCH  10  22
ATOM     22  O   UNL     1      34.450 -18.482 -23.131  0.00  0.00    -0.382 OA
ATOM     23  H   UNL     1      34.779 -17.871 -23.807  0.00  0.00    +0.211 HD
ENDBRANCH  10  22
ENDBRANCH   9  10
ENDBRANCH   1   9
BRANCH   2  24
ATOM     24  C   UNL     1      32.258 -12.745 -22.377  0.00  0.00    -0.043 C 
BRANCH  24  25
ATOM     25  C   UNL     1      31.911 -11.836 -21.192  0.00  0.00    +0.112 C 
BRANCH  25  28
ATOM     26  O   UNL     1      32.626  -5.829 -21.011  0.00  0.00    -0.440 OA
ATOM     27  O   UNL     1      33.059  -5.679 -23.280  0.00  0.00    -0.245 OA
ATOM     28  C   UNL     1      32.154 -10.379 -21.522  0.00  0.00    -0.002 C 
ATOM     29  C   UNL     1      32.092  -9.402 -20.524  0.00  0.00    -0.024 C 
ATOM     30  C   UNL     1      32.322  -8.085 -20.881  0.00  0.00    +0.023 C 
ATOM     31  C   UNL     1      32.441 -10.028 -22.854  0.00  0.00    -0.002 C 
ATOM     32  C   UNL     1      32.602  -7.755 -22.191  0.00  0.00    +0.075 C 
ATOM     33  C   UNL     1      32.670  -8.696 -23.201  0.00  0.00    +0.006 C 
ATOM     34  C   UNL     1      32.322  -6.869 -20.049  0.00  0.00    +0.235 C 
ATOM     35  C   UNL     1      31.788  -9.759 -19.109  0.00  0.00    +0.031 C 
ATOM     36  C   UNL     1      32.797  -6.316 -22.280  0.00  0.00    +0.341 C 
ENDBRANCH  25  28
BRANCH  25  37
ATOM     37  O   UNL     1      30.537 -11.989 -20.837  0.00  0.00    -0.382 OA
ATOM     38  H   UNL     1      30.196 -11.148 -20.494  0.00  0.00    +0.211 HD
ENDBRANCH  25  37
ENDBRANCH  24  25
ENDBRANCH   2  24
TORSDOF 8
ENDMDL
MODEL 2
REMARK VINA RESULT:     -12.0      0.020     11.645
REMARK  Name = 59568713
REMARK  8 active torsions:
REMARK  status: ('A' for Active; 'I' for Inactive)
REMARK    1  A    between atoms: N_1  and  C_9
REMARK    2  A    between atoms: N_2  and  C_24
REMARK    3  A    between atoms: C_9  and  C_10
REMARK    4  A    between atoms: C_10  and  C_13
REMARK    5  A    between atoms: C_10  and  O_22
REMARK    6  A    between atoms: C_24  and  C_25
REMARK    7  A    between atoms: C_25  and  C_28
REMARK    8  A    between atoms: C_25  and  O_37
REMARK                            x       y       z     vdW  Elec       q    Type
REMARK                         _______ _______ _______ _____ _____    ______ ____
ROOT
ATOM      1  N   UNL     1      33.353 -13.663 -22.035  0.00  0.00    +0.386 N 
ATOM      2  N   UNL     1      34.524 -16.294 -21.773  0.00  0.00    +0.386 N 
ATOM      3  C   UNL     1      34.920 -15.388 -22.858  0.00  0.00    -0.101 C 
ATOM      4  C   UNL     1      34.100 -15.528 -20.595  0.00  0.00    -0.101 C 
ATOM      5  C   UNL     1      33.778 -14.430 -23.213  0.00  0.00    -0.101 C 
ATOM      6  C   UNL     1      32.958 -14.569 -20.950  0.00  0.00    -0.101 C 
ATOM      7  H   UNL     1      34.143 -13.103 -21.715  0.00  0.00    -0.080 HD
ATOM      8  H   UNL     1      33.733 -16.853 -22.094  0.00  0.00    -0.080 HD
ENDROOT
BRANCH   1   9
ATOM      9  C   UNL     1      32.262 -12.753 -22.375  0.00  0.00    -0.043 C 
BRANCH   9  10
ATOM     10  C   UNL     1      31.915 -11.849 -21.185  0.00  0.00    +0.112 C 
BRANCH  10  13
ATOM     11  O   UNL     1      32.612  -5.841 -20.981  0.00  0.00    -0.440 OA
ATOM     12  O   UNL     1      33.034  -5.680 -23.251  0.00  0.00    -0.245 OA
ATOM     13  C   UNL     1      32.152 -10.390 -21.510  0.00  0.00    -0.002 C 
ATOM     14  C   UNL     1      32.093  -9.418 -20.506  0.00  0.00    -0.024 C 
ATOM     15  C   UNL     1      32.316  -8.099 -20.859  0.00  0.00    +0.023 C 
ATOM     16  C   UNL     1      32.432 -10.033 -22.840  0.00  0.00    -0.002 C 
ATOM     17  C   UNL     1      32.589  -7.763 -22.169  0.00  0.00    +0.075 C 
ATOM     18  C   UNL     1      32.654  -8.700 -23.184  0.00  0.00    +0.006 C 
ATOM     19  C   UNL     1      32.316  -6.886 -20.022  0.00  0.00    +0.235 C 
ATOM     20  C   UNL     1      31.797  -9.782 -19.091  0.00  0.00    +0.031 C 
ATOM     21  C   UNL     1      32.779  -6.323 -22.253  0.00  0.00    +0.341 C 
ENDBRANCH  10  13
BRANCH  10  22
ATOM     22  O   UNL     1      30.544 -12.009 -20.825  0.00  0.00    -0.382 OA
ATOM     23  H   UNL     1      30.093 -11.152 -20.876  0.00  0.00    +0.211 HD
ENDBRANCH  10  22
ENDBRANCH   9  10
ENDBRANCH   1   9
BRANCH   2  24
ATOM     24  C   UNL     1      35.614 -17.206 -21.434  0.00  0.00    -0.043 C 
BRANCH  24  25
ATOM     25  C   UNL     1      35.391 -18.583 -22.073  0.00  0.00    +0.112 C 
BRANCH  25  28
ATOM     26  O   UNL     1      34.833 -22.753 -17.722  0.00  0.00    -0.440 OA
ATOM     27  O   UNL     1      32.525 -22.813 -17.893  0.00  0.00    -0.245 OA
ATOM     28  C   UNL     1      34.878 -19.586 -21.063  0.00  0.00    -0.002 C 
ATOM     29  C   UNL     1      35.765 -20.284 -20.237  0.00  0.00    -0.024 C 
ATOM     30  C   UNL     1      35.242 -21.190 -19.332  0.00  0.00    +0.023 C 
ATOM     31  C   UNL     1      33.492 -19.804 -20.973  0.00  0.00    -0.002 C 
ATOM     32  C   UNL     1      33.880 -21.393 -19.255  0.00  0.00    +0.075 C 
ATOM     33  C   UNL     1      32.977 -20.721 -20.057  0.00  0.00    +0.006 C 
ATOM     34  C   UNL     1      35.931 -22.049 -18.354  0.00  0.00    +0.235 C 
ATOM     35  C   UNL     1      37.237 -20.064 -20.322  0.00  0.00    +0.031 C 
ATOM     36  C   UNL     1      33.612 -22.390 -18.230  0.00  0.00    +0.341 C 
ENDBRANCH  25  28
BRANCH  25  37
ATOM     37  O   UNL     1      34.438 -18.489 -23.131  0.00  0.00    -0.382 OA
ATOM     38  H   UNL     1      34.860 -18.097 -23.912  0.00  0.00    +0.211 HD
ENDBRANCH  25  37
ENDBRANCH  24  25
ENDBRANCH   2  24
TORSDOF 8
ENDMDL
MODEL 3
REMARK VINA RESULT:     -11.6      2.752     12.066
REMARK  Name = 59568713
REMARK  8 active torsions:
REMARK  status: ('A' for Active; 'I' for Inactive)
REMARK    1  A    between atoms: N_1  and  C_9
REMARK    2  A    between atoms: N_2  and  C_24
REMARK    3  A    between atoms: C_9  and  C_10
REMARK    4  A    between atoms: C_10  and  C_13
REMARK    5  A    between atoms: C_10  and  O_22
REMARK    6  A    between atoms: C_24  and  C_25
REMARK    7  A    between atoms: C_25  and  C_28
REMARK    8  A    between atoms: C_25  and  O_37
REMARK                            x       y       z     vdW  Elec       q    Type
REMARK                         _______ _______ _______ _____ _____    ______ ____
ROOT
ATOM      1  N   UNL     1      31.594  -9.791 -20.597  0.00  0.00    +0.386 N 
ATOM      2  N   UNL     1      32.786 -12.166 -21.735  0.00  0.00    +0.386 N 
ATOM      3  C   UNL     1      31.949 -12.235 -20.531  0.00  0.00    -0.101 C 
ATOM      4  C   UNL     1      32.374 -11.040 -22.582  0.00  0.00    -0.101 C 
ATOM      5  C   UNL     1      32.006 -10.917 -19.751  0.00  0.00    -0.101 C 
ATOM      6  C   UNL     1      32.430  -9.722 -21.801  0.00  0.00    -0.101 C 
ATOM      7  H   UNL     1      30.627  -9.941 -20.885  0.00  0.00    -0.080 HD
ATOM      8  H   UNL     1      33.753 -12.013 -21.447  0.00  0.00    -0.080 HD
ENDROOT
BRANCH   1   9
ATOM      9  C   UNL     1      31.652  -8.534 -19.852  0.00  0.00    -0.043 C 
BRANCH   9  10
ATOM     10  C   UNL     1      32.783  -7.641 -20.378  0.00  0.00    +0.112 C 
BRANCH  10  13
ATOM     11  O   UNL     1      31.929  -3.706 -24.895  0.00  0.00    -0.440 OA
ATOM     12  O   UNL     1      29.971  -2.878 -23.981  0.00  0.00    -0.245 OA
ATOM     13  C   UNL     1      32.257  -6.567 -21.304  0.00  0.00    -0.002 C 
ATOM     14  C   UNL     1      32.944  -6.238 -22.477  0.00  0.00    -0.024 C 
ATOM     15  C   UNL     1      32.419  -5.248 -23.288  0.00  0.00    +0.023 C 
ATOM     16  C   UNL     1      31.064  -5.908 -20.962  0.00  0.00    -0.002 C 
ATOM     17  C   UNL     1      31.247  -4.608 -22.939  0.00  0.00    +0.075 C 
ATOM     18  C   UNL     1      30.544  -4.910 -21.788  0.00  0.00    +0.006 C 
ATOM     19  C   UNL     1      32.923  -4.707 -24.562  0.00  0.00    +0.235 C 
ATOM     20  C   UNL     1      34.211  -6.930 -22.852  0.00  0.00    +0.031 C 
ATOM     21  C   UNL     1      30.930  -3.623 -23.961  0.00  0.00    +0.341 C 
ENDBRANCH  10  13
BRANCH  10  22
ATOM     22  O   UNL     1      33.454  -7.003 -19.291  0.00  0.00    -0.382 OA
ATOM     23  H   UNL     1      34.220  -7.535 -19.026  0.00  0.00    +0.211 HD
ENDBRANCH  10  22
ENDBRANCH   9  10
ENDBRANCH   1   9
BRANCH   2  24
ATOM     24  C   UNL     1      32.730 -13.422 -22.479  0.00  0.00    -0.043 C 
BRANCH  24  25
ATOM     25  C   UNL     1      34.068 -13.704 -23.175  0.00  0.00    +0.112 C 
BRANCH  25  28
ATOM     26  O   UNL     1      35.325 -19.476 -21.860  0.00  0.00    -0.440 OA
ATOM     27  O   UNL     1      35.310 -20.124 -24.082  0.00  0.00    -0.245 OA
ATOM     28  C   UNL     1      34.364 -15.187 -23.227  0.00  0.00    -0.002 C 
ATOM     29  C   UNL     1      34.589 -15.911 -22.052  0.00  0.00    -0.024 C 
ATOM     30  C   UNL     1      34.856 -17.263 -22.158  0.00  0.00    +0.023 C 
ATOM     31  C   UNL     1      34.410 -15.821 -24.482  0.00  0.00    -0.002 C 
ATOM     32  C   UNL     1      34.898 -17.873 -23.394  0.00  0.00    +0.075 C 
ATOM     33  C   UNL     1      34.681 -17.187 -24.574  0.00  0.00    +0.006 C 
ATOM     34  C   UNL     1      35.127 -18.256 -21.103  0.00  0.00    +0.235 C 
ATOM     35  C   UNL     1      34.545 -15.250 -20.717  0.00  0.00    +0.031 C 
ATOM     36  C   UNL     1      35.197 -19.285 -23.211  0.00  0.00    +0.341 C 
ENDBRANCH  25  28
BRANCH  25  37
ATOM     37  O   UNL     1      34.043 -13.207 -24.513  0.00  0.00    -0.382 OA
ATOM     38  H   UNL     1      33.505 -13.795 -25.066  0.00  0.00    +0.211 HD
ENDBRANCH  25  37
ENDBRANCH  24  25
ENDBRANCH   2  24
TORSDOF 8
ENDMDL
MODEL 4
REMARK VINA RESULT:     -11.6      2.745      4.984
REMARK  Name = 59568713
REMARK  8 active torsions:
REMARK  status: ('A' for Active; 'I' for Inactive)
REMARK    1  A    between atoms: N_1  and  C_9
REMARK    2  A    between atoms: N_2  and  C_24
REMARK    3  A    between atoms: C_9  and  C_10
REMARK    4  A    between atoms: C_10  and  C_13
REMARK    5  A    between atoms: C_10  and  O_22
REMARK    6  A    between atoms: C_24  and  C_25
REMARK    7  A    between atoms: C_25  and  C_28
REMARK    8  A    between atoms: C_25  and  O_37
REMARK                            x       y       z     vdW  Elec       q    Type
REMARK                         _______ _______ _______ _____ _____    ______ ____
ROOT
ATOM      1  N   UNL     1      32.798 -12.172 -21.673  0.00  0.00    +0.386 N 
ATOM      2  N   UNL     1      31.610  -9.780 -20.567  0.00  0.00    +0.386 N 
ATOM      3  C   UNL     1      32.019 -10.896 -19.706  0.00  0.00    -0.101 C 
ATOM      4  C   UNL     1      32.447  -9.727 -21.771  0.00  0.00    -0.101 C 
ATOM      5  C   UNL     1      31.960 -12.224 -20.469  0.00  0.00    -0.101 C 
ATOM      6  C   UNL     1      32.390 -11.056 -22.534  0.00  0.00    -0.101 C 
ATOM      7  H   UNL     1      33.764 -12.020 -21.386  0.00  0.00    -0.080 HD
ATOM      8  H   UNL     1      30.643  -9.934 -20.855  0.00  0.00    -0.080 HD
ENDROOT
BRANCH   1   9
ATOM      9  C   UNL     1      32.737 -13.438 -22.402  0.00  0.00    -0.043 C 
BRANCH   9  10
ATOM     10  C   UNL     1      34.059 -13.711 -23.131  0.00  0.00    +0.112 C 
BRANCH  10  13
ATOM     11  O   UNL     1      35.331 -19.495 -21.887  0.00  0.00    -0.440 OA
ATOM     12  O   UNL     1      35.309 -20.118 -24.115  0.00  0.00    -0.245 OA
ATOM     13  C   UNL     1      34.357 -15.193 -23.201  0.00  0.00    -0.002 C 
ATOM     14  C   UNL     1      34.587 -15.929 -22.035  0.00  0.00    -0.024 C 
ATOM     15  C   UNL     1      34.857 -17.280 -22.157  0.00  0.00    +0.023 C 
ATOM     16  C   UNL     1      34.399 -15.812 -24.462  0.00  0.00    -0.002 C 
ATOM     17  C   UNL     1      34.896 -17.876 -23.401  0.00  0.00    +0.075 C 
ATOM     18  C   UNL     1      34.673 -17.176 -24.572  0.00  0.00    +0.006 C 
ATOM     19  C   UNL     1      35.133 -18.285 -21.114  0.00  0.00    +0.235 C 
ATOM     20  C   UNL     1      34.546 -15.284 -20.691  0.00  0.00    +0.031 C 
ATOM     21  C   UNL     1      35.197 -19.289 -23.234  0.00  0.00    +0.341 C 
ENDBRANCH  10  13
BRANCH  10  22
ATOM     22  O   UNL     1      34.002 -13.204 -24.464  0.00  0.00    -0.382 OA
ATOM     23  H   UNL     1      34.794 -13.478 -24.949  0.00  0.00    +0.211 HD
ENDBRANCH  10  22
ENDBRANCH   9  10
ENDBRANCH   1   9
BRANCH   2  24
ATOM     24  C   UNL     1      31.667  -8.514 -19.839  0.00  0.00    -0.043 C 
BRANCH  24  25
ATOM     25  C   UNL     1      32.796  -7.626 -20.378  0.00  0.00    +0.112 C 
BRANCH  25  28
ATOM     26  O   UNL     1      31.923  -3.715 -24.913  0.00  0.00    -0.440 OA
ATOM     27  O   UNL     1      29.966  -2.886 -23.997  0.00  0.00    -0.245 OA
ATOM     28  C   UNL     1      32.265  -6.558 -21.309  0.00  0.00    -0.002 C 
ATOM     29  C   UNL     1      32.949  -6.233 -22.485  0.00  0.00    -0.024 C 
ATOM     30  C   UNL     1      32.420  -5.249 -23.299  0.00  0.00    +0.023 C 
ATOM     31  C   UNL     1      31.072  -5.898 -20.966  0.00  0.00    -0.002 C 
ATOM     32  C   UNL     1      31.248  -4.609 -22.951  0.00  0.00    +0.075 C 
ATOM     33  C   UNL     1      30.549  -4.906 -21.796  0.00  0.00    +0.006 C 
ATOM     34  C   UNL     1      32.920  -4.713 -24.577  0.00  0.00    +0.235 C 
ATOM     35  C   UNL     1      34.216  -6.924 -22.859  0.00  0.00    +0.031 C 
ATOM     36  C   UNL     1      30.926  -3.629 -23.977  0.00  0.00    +0.341 C 
ENDBRANCH  25  28
BRANCH  25  37
ATOM     37  O   UNL     1      33.474  -6.981 -19.299  0.00  0.00    -0.382 OA
ATOM     38  H   UNL     1      33.414  -7.532 -18.504  0.00  0.00    +0.211 HD
ENDBRANCH  25  37
ENDBRANCH  24  25
ENDBRANCH   2  24
TORSDOF 8
ENDMDL
MODEL 5
REMARK VINA RESULT:     -11.1      1.337      1.977
REMARK  Name = 59568713
REMARK  8 active torsions:
REMARK  status: ('A' for Active; 'I' for Inactive)
REMARK    1  A    between atoms: N_1  and  C_9
REMARK    2  A    between atoms: N_2  and  C_24
REMARK    3  A    between atoms: C_9  and  C_10
REMARK    4  A    between atoms: C_10  and  C_13
REMARK    5  A    between atoms: C_10  and  O_22
REMARK    6  A    between atoms: C_24  and  C_25
REMARK    7  A    between atoms: C_25  and  C_28
REMARK    8  A    between atoms: C_25  and  O_37
REMARK                            x       y       z     vdW  Elec       q    Type
REMARK                         _______ _______ _______ _____ _____    ______ ____
ROOT
ATOM      1  N   UNL     1      34.707 -16.912 -21.713  0.00  0.00    +0.386 N 
ATOM      2  N   UNL     1      33.815 -14.234 -22.341  0.00  0.00    +0.386 N 
ATOM      3  C   UNL     1      34.027 -15.234 -23.395  0.00  0.00    -0.101 C 
ATOM      4  C   UNL     1      33.435 -14.888 -21.083  0.00  0.00    -0.101 C 
ATOM      5  C   UNL     1      35.086 -16.257 -22.971  0.00  0.00    -0.101 C 
ATOM      6  C   UNL     1      34.494 -15.912 -20.659  0.00  0.00    -0.101 C 
ATOM      7  H   UNL     1      33.832 -17.412 -21.862  0.00  0.00    -0.080 HD
ATOM      8  H   UNL     1      34.692 -13.734 -22.190  0.00  0.00    -0.080 HD
ENDROOT
BRANCH   1   9
ATOM      9  C   UNL     1      35.720 -17.884 -21.308  0.00  0.00    -0.043 C 
BRANCH   9  10
ATOM     10  C   UNL     1      35.372 -19.284 -21.831  0.00  0.00    +0.112 C 
BRANCH  10  13
ATOM     11  O   UNL     1      34.281 -22.987 -17.170  0.00  0.00    -0.440 OA
ATOM     12  O   UNL     1      31.984 -22.798 -17.386  0.00  0.00    -0.245 OA
ATOM     13  C   UNL     1      34.734 -20.135 -20.755  0.00  0.00    -0.002 C 
ATOM     14  C   UNL     1      35.524 -20.857 -19.855  0.00  0.00    -0.024 C 
ATOM     15  C   UNL     1      34.889 -21.619 -18.892  0.00  0.00    +0.023 C 
ATOM     16  C   UNL     1      33.332 -20.184 -20.679  0.00  0.00    -0.002 C 
ATOM     17  C   UNL     1      33.511 -21.660 -18.829  0.00  0.00    +0.075 C 
ATOM     18  C   UNL     1      32.702 -20.958 -19.703  0.00  0.00    +0.006 C 
ATOM     19  C   UNL     1      35.462 -22.467 -17.831  0.00  0.00    +0.235 C 
ATOM     20  C   UNL     1      37.013 -20.814 -19.925  0.00  0.00    +0.031 C 
ATOM     21  C   UNL     1      33.117 -22.530 -17.732  0.00  0.00    +0.341 C 
ENDBRANCH  10  13
BRANCH  10  22
ATOM     22  O   UNL     1      34.460 -19.191 -22.925  0.00  0.00    -0.382 OA
ATOM     23  H   UNL     1      33.720 -18.614 -22.681  0.00  0.00    +0.211 HD
ENDBRANCH  10  22
ENDBRANCH   9  10
ENDBRANCH   1   9
BRANCH   2  24
ATOM     24  C   UNL     1      32.804 -13.260 -22.745  0.00  0.00    -0.043 C 
BRANCH  24  25
ATOM     25  C   UNL     1      33.440 -12.110 -23.536  0.00  0.00    +0.112 C 
BRANCH  25  28
ATOM     26  O   UNL     1      33.205  -6.250 -22.042  0.00  0.00    -0.440 OA
ATOM     27  O   UNL     1      31.497  -6.572 -20.513  0.00  0.00    -0.245 OA
ATOM     28  C   UNL     1      33.102 -10.766 -22.929  0.00  0.00    -0.002 C 
ATOM     29  C   UNL     1      33.790  -9.613 -23.321  0.00  0.00    -0.024 C 
ATOM     30  C   UNL     1      33.441  -8.411 -22.734  0.00  0.00    +0.023 C 
ATOM     31  C   UNL     1      32.084 -10.700 -21.962  0.00  0.00    -0.002 C 
ATOM     32  C   UNL     1      32.440  -8.360 -21.786  0.00  0.00    +0.075 C 
ATOM     33  C   UNL     1      31.742  -9.481 -21.376  0.00  0.00    +0.006 C 
ATOM     34  C   UNL     1      33.989  -7.061 -22.952  0.00  0.00    +0.235 C 
ATOM     35  C   UNL     1      34.873  -9.669 -24.345  0.00  0.00    +0.031 C 
ATOM     36  C   UNL     1      32.285  -6.985 -21.340  0.00  0.00    +0.341 C 
ENDBRANCH  25  28
BRANCH  25  37
ATOM     37  O   UNL     1      34.861 -12.248 -23.552  0.00  0.00    -0.382 OA
ATOM     38  H   UNL     1      35.094 -13.187 -23.609  0.00  0.00    +0.211 HD
ENDBRANCH  25  37
ENDBRANCH  24  25
ENDBRANCH   2  24
TORSDOF 8
ENDMDL
MODEL 6
REMARK VINA RESULT:     -11.1      3.621     11.946
REMARK  Name = 59568713
REMARK  8 active torsions:
REMARK  status: ('A' for Active; 'I' for Inactive)
REMARK    1  A    between atoms: N_1  and  C_9
REMARK    2  A    between atoms: N_2  and  C_24
REMARK    3  A    between atoms: C_9  and  C_10
REMARK    4  A    between atoms: C_10  and  C_13
REMARK    5  A    between atoms: C_10  and  O_22
REMARK    6  A    between atoms: C_24  and  C_25
REMARK    7  A    between atoms: C_25  and  C_28
REMARK    8  A    between atoms: C_25  and  O_37
REMARK                            x       y       z     vdW  Elec       q    Type
REMARK                         _______ _______ _______ _____ _____    ______ ____
ROOT
ATOM      1  N   UNL     1      34.823 -19.759 -21.226  0.00  0.00    +0.386 N 
ATOM      2  N   UNL     1      33.999 -21.667 -19.216  0.00  0.00    +0.386 N 
ATOM      3  C   UNL     1      35.405 -21.268 -19.359  0.00  0.00    -0.101 C 
ATOM      4  C   UNL     1      33.112 -20.578 -19.641  0.00  0.00    -0.101 C 
ATOM      5  C   UNL     1      35.710 -20.849 -20.800  0.00  0.00    -0.101 C 
ATOM      6  C   UNL     1      33.417 -20.157 -21.083  0.00  0.00    -0.101 C 
ATOM      7  H   UNL     1      34.992 -18.954 -20.624  0.00  0.00    -0.080 HD
ATOM      8  H   UNL     1      33.831 -22.472 -19.820  0.00  0.00    -0.080 HD
ENDROOT
BRANCH   1   9
ATOM      9  C   UNL     1      35.112 -19.363 -22.603  0.00  0.00    -0.043 C 
BRANCH   9  10
ATOM     10  C   UNL     1      35.956 -18.082 -22.636  0.00  0.00    +0.112 C 
BRANCH  10  13
ATOM     11  O   UNL     1      32.622 -13.037 -22.863  0.00  0.00    -0.440 OA
ATOM     12  O   UNL     1      32.400 -12.921 -20.562  0.00  0.00    -0.245 OA
ATOM     13  C   UNL     1      35.124 -16.861 -22.311  0.00  0.00    -0.002 C 
ATOM     14  C   UNL     1      34.641 -16.036 -23.332  0.00  0.00    -0.024 C 
ATOM     15  C   UNL     1      33.886 -14.932 -22.979  0.00  0.00    +0.023 C 
ATOM     16  C   UNL     1      34.848 -16.573 -20.964  0.00  0.00    -0.002 C 
ATOM     17  C   UNL     1      33.623 -14.661 -21.652  0.00  0.00    +0.075 C 
ATOM     18  C   UNL     1      34.086 -15.456 -20.620  0.00  0.00    +0.006 C 
ATOM     19  C   UNL     1      33.258 -13.907 -23.832  0.00  0.00    +0.235 C 
ATOM     20  C   UNL     1      34.927 -16.329 -24.766  0.00  0.00    +0.031 C 
ATOM     21  C   UNL     1      32.816 -13.453 -21.572  0.00  0.00    +0.341 C 
ENDBRANCH  10  13
BRANCH  10  22
ATOM     22  O   UNL     1      37.017 -18.165 -21.685  0.00  0.00    -0.382 OA
ATOM     23  H   UNL     1      37.347 -17.274 -21.489  0.00  0.00    +0.211 HD
ENDBRANCH  10  22
ENDBRANCH   9  10
ENDBRANCH   1   9
BRANCH   2  24
ATOM     24  C   UNL     1      33.709 -22.066 -17.841  0.00  0.00    -0.043 C 
BRANCH  24  25
ATOM     25  C   UNL     1      34.410 -23.386 -17.496  0.00  0.00    +0.112 C 
BRANCH  25  28
ATOM     26  O   UNL     1      36.794 -23.324 -11.934  0.00  0.00    -0.440 OA
ATOM     27  O   UNL     1      34.871 -24.164 -10.957  0.00  0.00    -0.245 OA
ATOM     28  C   UNL     1      34.662 -23.508 -16.009  0.00  0.00    -0.002 C 
ATOM     29  C   UNL     1      35.895 -23.140 -15.462  0.00  0.00    -0.024 C 
ATOM     30  C   UNL     1      36.071 -23.273 -14.096  0.00  0.00    +0.023 C 
ATOM     31  C   UNL     1      33.631 -24.001 -15.189  0.00  0.00    -0.002 C 
ATOM     32  C   UNL     1      35.051 -23.758 -13.304  0.00  0.00    +0.075 C 
ATOM     33  C   UNL     1      33.821 -24.131 -13.813  0.00  0.00    +0.006 C 
ATOM     34  C   UNL     1      37.247 -22.967 -13.263  0.00  0.00    +0.235 C 
ATOM     35  C   UNL     1      36.996 -22.617 -16.319  0.00  0.00    +0.031 C 
ATOM     36  C   UNL     1      35.506 -23.793 -11.923  0.00  0.00    +0.341 C 
ENDBRANCH  25  28
BRANCH  25  37
ATOM     37  O   UNL     1      33.608 -24.494 -17.905  0.00  0.00    -0.382 OA
ATOM     38  H   UNL     1      34.075 -25.321 -17.709  0.00  0.00    +0.211 HD
ENDBRANCH  25  37
ENDBRANCH  24  25
ENDBRANCH   2  24
TORSDOF 8
ENDMDL
MODEL 7
REMARK VINA RESULT:     -11.1      3.646      7.004
REMARK  Name = 59568713
REMARK  8 active torsions:
REMARK  status: ('A' for Active; 'I' for Inactive)
REMARK    1  A    between atoms: N_1  and  C_9
REMARK    2  A    between atoms: N_2  and  C_24
REMARK    3  A    between atoms: C_9  and  C_10
REMARK    4  A    between atoms: C_10  and  C_13
REMARK    5  A    between atoms: C_10  and  O_22
REMARK    6  A    between atoms: C_24  and  C_25
REMARK    7  A    between atoms: C_25  and  C_28
REMARK    8  A    between atoms: C_25  and  O_37
REMARK                            x       y       z     vdW  Elec       q    Type
REMARK                         _______ _______ _______ _____ _____    ______ ____
ROOT
ATOM      1  N   UNL     1      34.017 -21.700 -19.176  0.00  0.00    +0.386 N 
ATOM      2  N   UNL     1      34.830 -19.800 -21.199  0.00  0.00    +0.386 N 
ATOM      3  C   UNL     1      35.724 -20.881 -20.765  0.00  0.00    -0.101 C 
ATOM      4  C   UNL     1      33.427 -20.207 -21.056  0.00  0.00    -0.101 C 
ATOM      5  C   UNL     1      35.420 -21.292 -19.320  0.00  0.00    -0.101 C 
ATOM      6  C   UNL     1      33.123 -20.620 -19.611  0.00  0.00    -0.101 C 
ATOM      7  H   UNL     1      33.856 -22.511 -19.773  0.00  0.00    -0.080 HD
ATOM      8  H   UNL     1      34.992 -18.989 -20.601  0.00  0.00    -0.080 HD
ENDROOT
BRANCH   1   9
ATOM      9  C   UNL     1      33.729 -22.088 -17.797  0.00  0.00    -0.043 C 
BRANCH   9  10
ATOM     10  C   UNL     1      34.407 -23.421 -17.453  0.00  0.00    +0.112 C 
BRANCH  10  13
ATOM     11  O   UNL     1      36.794 -23.337 -11.893  0.00  0.00    -0.440 OA
ATOM     12  O   UNL     1      34.890 -24.220 -10.918  0.00  0.00    -0.245 OA
ATOM     13  C   UNL     1      34.662 -23.545 -15.967  0.00  0.00    -0.002 C 
ATOM     14  C   UNL     1      35.888 -23.154 -15.419  0.00  0.00    -0.024 C 
ATOM     15  C   UNL     1      36.068 -23.290 -14.055  0.00  0.00    +0.023 C 
ATOM     16  C   UNL     1      33.643 -24.062 -15.150  0.00  0.00    -0.002 C 
ATOM     17  C   UNL     1      35.059 -23.800 -13.264  0.00  0.00    +0.075 C 
ATOM     18  C   UNL     1      33.836 -24.196 -13.774  0.00  0.00    +0.006 C 
ATOM     19  C   UNL     1      37.239 -22.963 -13.221  0.00  0.00    +0.235 C 
ATOM     20  C   UNL     1      36.978 -22.605 -16.275  0.00  0.00    +0.031 C 
ATOM     21  C   UNL     1      35.516 -23.832 -11.883  0.00  0.00    +0.341 C 
ENDBRANCH  10  13
BRANCH  10  22
ATOM     22  O   UNL     1      33.582 -24.514 -17.857  0.00  0.00    -0.382 OA
ATOM     23  H   UNL     1      33.966 -24.937 -18.640  0.00  0.00    +0.211 HD
ENDBRANCH  10  22
ENDBRANCH   9  10
ENDBRANCH   1   9
BRANCH   2  24
ATOM     24  C   UNL     1      35.119 -19.409 -22.577  0.00  0.00    -0.043 C 
BRANCH  24  25
ATOM     25  C   UNL     1      35.966 -18.131 -22.615  0.00  0.00    +0.112 C 
BRANCH  25  28
ATOM     26  O   UNL     1      32.650 -13.073 -22.837  0.00  0.00    -0.440 OA
ATOM     27  O   UNL     1      32.427 -12.960 -20.536  0.00  0.00    -0.245 OA
ATOM     28  C   UNL     1      35.138 -16.907 -22.289  0.00  0.00    -0.002 C 
ATOM     29  C   UNL     1      34.659 -16.078 -23.308  0.00  0.00    -0.024 C 
ATOM     30  C   UNL     1      33.908 -14.972 -22.954  0.00  0.00    +0.023 C 
ATOM     31  C   UNL     1      34.861 -16.620 -20.940  0.00  0.00    -0.002 C 
ATOM     32  C   UNL     1      33.643 -14.702 -21.628  0.00  0.00    +0.075 C 
ATOM     33  C   UNL     1      34.102 -15.501 -20.596  0.00  0.00    +0.006 C 
ATOM     34  C   UNL     1      33.286 -13.943 -23.806  0.00  0.00    +0.235 C 
ATOM     35  C   UNL     1      34.947 -16.370 -24.742  0.00  0.00    +0.031 C 
ATOM     36  C   UNL     1      32.842 -13.491 -21.546  0.00  0.00    +0.341 C 
ENDBRANCH  25  28
BRANCH  25  37
ATOM     37  O   UNL     1      37.030 -18.214 -21.666  0.00  0.00    -0.382 OA
ATOM     38  H   UNL     1      37.370 -17.325 -21.483  0.00  0.00    +0.211 HD
ENDBRANCH  25  37
ENDBRANCH  24  25
ENDBRANCH   2  24
TORSDOF 8
ENDMDL
MODEL 8
REMARK VINA RESULT:     -11.0      3.819      6.171
REMARK  Name = 59568713
REMARK  8 active torsions:
REMARK  status: ('A' for Active; 'I' for Inactive)
REMARK    1  A    between atoms: N_1  and  C_9
REMARK    2  A    between atoms: N_2  and  C_24
REMARK    3  A    between atoms: C_9  and  C_10
REMARK    4  A    between atoms: C_10  and  C_13
REMARK    5  A    between atoms: C_10  and  O_22
REMARK    6  A    between atoms: C_24  and  C_25
REMARK    7  A    between atoms: C_25  and  C_28
REMARK    8  A    between atoms: C_25  and  O_37
REMARK                            x       y       z     vdW  Elec       q    Type
REMARK                         _______ _______ _______ _____ _____    ______ ____
ROOT
ATOM      1  N   UNL     1      32.262 -11.947 -20.299  0.00  0.00    +0.386 N 
ATOM      2  N   UNL     1      31.459  -9.171 -20.395  0.00  0.00    +0.386 N 
ATOM      3  C   UNL     1      32.080  -9.744 -19.194  0.00  0.00    -0.101 C 
ATOM      4  C   UNL     1      31.926  -9.870 -21.597  0.00  0.00    -0.101 C 
ATOM      5  C   UNL     1      31.795 -11.246 -19.096  0.00  0.00    -0.101 C 
ATOM      6  C   UNL     1      31.642 -11.374 -21.499  0.00  0.00    -0.101 C 
ATOM      7  H   UNL     1      33.272 -11.825 -20.369  0.00  0.00    -0.080 HD
ATOM      8  H   UNL     1      30.448  -9.295 -20.324  0.00  0.00    -0.080 HD
ENDROOT
BRANCH   1   9
ATOM      9  C   UNL     1      31.986 -13.379 -20.205  0.00  0.00    -0.043 C 
BRANCH   9  10
ATOM     10  C   UNL     1      33.271 -14.196 -20.393  0.00  0.00    +0.112 C 
BRANCH  10  13
ATOM     11  O   UNL     1      34.928 -16.760 -25.618  0.00  0.00    -0.440 OA
ATOM     12  O   UNL     1      33.960 -15.091 -26.897  0.00  0.00    -0.245 OA
ATOM     13  C   UNL     1      33.505 -14.533 -21.849  0.00  0.00    -0.002 C 
ATOM     14  C   UNL     1      34.206 -15.689 -22.209  0.00  0.00    -0.024 C 
ATOM     15  C   UNL     1      34.393 -15.948 -23.554  0.00  0.00    +0.023 C 
ATOM     16  C   UNL     1      33.006 -13.661 -22.831  0.00  0.00    -0.002 C 
ATOM     17  C   UNL     1      33.898 -15.082 -24.509  0.00  0.00    +0.075 C 
ATOM     18  C   UNL     1      33.202 -13.932 -24.186  0.00  0.00    +0.006 C 
ATOM     19  C   UNL     1      35.081 -17.074 -24.211  0.00  0.00    +0.235 C 
ATOM     20  C   UNL     1      34.741 -16.623 -21.177  0.00  0.00    +0.031 C 
ATOM     21  C   UNL     1      34.237 -15.596 -25.827  0.00  0.00    +0.341 C 
ENDBRANCH  10  13
BRANCH  10  22
ATOM     22  O   UNL     1      34.398 -13.461 -19.917  0.00  0.00    -0.382 OA
ATOM     23  H   UNL     1      34.191 -12.514 -19.921  0.00  0.00    +0.211 HD
ENDBRANCH  10  22
ENDBRANCH   9  10
ENDBRANCH   1   9
BRANCH   2  24
ATOM     24  C   UNL     1      31.732  -7.739 -20.488  0.00  0.00    -0.043 C 
BRANCH  24  25
ATOM     25  C   UNL     1      33.119  -7.487 -21.092  0.00  0.00    +0.112 C 
BRANCH  25  28
ATOM     26  O   UNL     1      34.089  -4.525 -26.280  0.00  0.00    -0.440 OA
ATOM     27  O   UNL     1      32.227  -3.176 -26.012  0.00  0.00    -0.245 OA
ATOM     28  C   UNL     1      33.043  -6.559 -22.286  0.00  0.00    -0.002 C 
ATOM     29  C   UNL     1      34.006  -6.620 -23.299  0.00  0.00    -0.024 C 
ATOM     30  C   UNL     1      33.888  -5.749 -24.366  0.00  0.00    +0.023 C 
ATOM     31  C   UNL     1      31.987  -5.634 -22.354  0.00  0.00    -0.002 C 
ATOM     32  C   UNL     1      32.847  -4.846 -24.421  0.00  0.00    +0.075 C 
ATOM     33  C   UNL     1      31.880  -4.759 -23.436  0.00  0.00    +0.006 C 
ATOM     34  C   UNL     1      34.744  -5.595 -25.556  0.00  0.00    +0.235 C 
ATOM     35  C   UNL     1      35.131  -7.596 -23.238  0.00  0.00    +0.031 C 
ATOM     36  C   UNL     1      32.969  -4.062 -25.640  0.00  0.00    +0.341 C 
ENDBRANCH  25  28
BRANCH  25  37
ATOM     37  O   UNL     1      33.981  -6.893 -20.121  0.00  0.00    -0.382 OA
ATOM     38  H   UNL     1      33.457  -6.607 -19.357  0.00  0.00    +0.211 HD
ENDBRANCH  25  37
ENDBRANCH  24  25
ENDBRANCH   2  24
TORSDOF 8
ENDMDL
MODEL 9
REMARK VINA RESULT:     -10.9      2.791     12.262
REMARK  Name = 59568713
REMARK  8 active torsions:
REMARK  status: ('A' for Active; 'I' for Inactive)
REMARK    1  A    between atoms: N_1  and  C_9
REMARK    2  A    between atoms: N_2  and  C_24
REMARK    3  A    between atoms: C_9  and  C_10
REMARK    4  A    between atoms: C_10  and  C_13
REMARK    5  A    between atoms: C_10  and  O_22
REMARK    6  A    between atoms: C_24  and  C_25
REMARK    7  A    between atoms: C_25  and  C_28
REMARK    8  A    between atoms: C_25  and  O_37
REMARK                            x       y       z     vdW  Elec       q    Type
REMARK                         _______ _______ _______ _____ _____    ______ ____
ROOT
ATOM      1  N   UNL     1      32.253  -9.170 -21.847  0.00  0.00    +0.386 N 
ATOM      2  N   UNL     1      32.371 -11.996 -22.446  0.00  0.00    +0.386 N 
ATOM      3  C   UNL     1      33.451 -11.086 -22.847  0.00  0.00    -0.101 C 
ATOM      4  C   UNL     1      31.708 -11.502 -21.234  0.00  0.00    -0.101 C 
ATOM      5  C   UNL     1      32.916  -9.666 -23.059  0.00  0.00    -0.101 C 
ATOM      6  C   UNL     1      31.174 -10.081 -21.445  0.00  0.00    -0.101 C 
ATOM      7  H   UNL     1      32.941  -9.136 -21.095  0.00  0.00    -0.080 HD
ATOM      8  H   UNL     1      31.682 -12.029 -23.198  0.00  0.00    -0.080 HD
ENDROOT
BRANCH   1   9
ATOM      9  C   UNL     1      31.740  -7.817 -22.052  0.00  0.00    -0.043 C 
BRANCH   9  10
ATOM     10  C   UNL     1      32.861  -6.780 -21.900  0.00  0.00    +0.112 C 
BRANCH  10  13
ATOM     11  O   UNL     1      35.085  -4.481 -27.037  0.00  0.00    -0.440 OA
ATOM     12  O   UNL     1      33.229  -3.147 -27.399  0.00  0.00    -0.245 OA
ATOM     13  C   UNL     1      33.085  -6.013 -23.185  0.00  0.00    -0.002 C 
ATOM     14  C   UNL     1      34.263  -6.184 -23.920  0.00  0.00    -0.024 C 
ATOM     15  C   UNL     1      34.416  -5.457 -25.087  0.00  0.00    +0.023 C 
ATOM     16  C   UNL     1      32.087  -5.127 -23.622  0.00  0.00    -0.002 C 
ATOM     17  C   UNL     1      33.428  -4.589 -25.505  0.00  0.00    +0.075 C 
ATOM     18  C   UNL     1      32.254  -4.398 -24.801  0.00  0.00    +0.006 C 
ATOM     19  C   UNL     1      35.535  -5.438 -26.046  0.00  0.00    +0.235 C 
ATOM     20  C   UNL     1      35.330  -7.121 -23.467  0.00  0.00    +0.031 C 
ATOM     21  C   UNL     1      33.850  -3.964 -26.748  0.00  0.00    +0.341 C 
ENDBRANCH  10  13
BRANCH  10  22
ATOM     22  O   UNL     1      32.533  -5.845 -20.873  0.00  0.00    -0.382 OA
ATOM     23  H   UNL     1      32.160  -6.317 -20.112  0.00  0.00    +0.211 HD
ENDBRANCH  10  22
ENDBRANCH   9  10
ENDBRANCH   1   9
BRANCH   2  24
ATOM     24  C   UNL     1      32.881 -13.350 -22.243  0.00  0.00    -0.043 C 
BRANCH  24  25
ATOM     25  C   UNL     1      34.038 -13.647 -23.205  0.00  0.00    +0.112 C 
BRANCH  25  28
ATOM     26  O   UNL     1      35.387 -19.396 -21.878  0.00  0.00    -0.440 OA
ATOM     27  O   UNL     1      35.349 -20.056 -24.096  0.00  0.00    -0.245 OA
ATOM     28  C   UNL     1      34.352 -15.127 -23.254  0.00  0.00    -0.002 C 
ATOM     29  C   UNL     1      34.603 -15.841 -22.078  0.00  0.00    -0.024 C 
ATOM     30  C   UNL     1      34.886 -17.191 -22.180  0.00  0.00    +0.023 C 
ATOM     31  C   UNL     1      34.389 -15.767 -24.505  0.00  0.00    -0.002 C 
ATOM     32  C   UNL     1      34.918 -17.807 -23.414  0.00  0.00    +0.075 C 
ATOM     33  C   UNL     1      34.676 -17.130 -24.595  0.00  0.00    +0.006 C 
ATOM     34  C   UNL     1      35.184 -18.174 -21.124  0.00  0.00    +0.235 C 
ATOM     35  C   UNL     1      34.568 -15.174 -20.745  0.00  0.00    +0.031 C 
ATOM     36  C   UNL     1      35.238 -19.214 -23.228  0.00  0.00    +0.341 C 
ENDBRANCH  25  28
BRANCH  25  37
ATOM     37  O   UNL     1      33.705 -13.219 -24.526  0.00  0.00    -0.382 OA
ATOM     38  H   UNL     1      33.068 -13.838 -24.915  0.00  0.00    +0.211 HD
ENDBRANCH  25  37
ENDBRANCH  24  25
ENDBRANCH   2  24
TORSDOF 8
ENDMDL
