MODEL 1
REMARK VINA RESULT:     -12.1      0.000      0.000
REMARK  Name = 11840906
REMARK  7 active torsions:
REMARK  status: ('A' for Active; 'I' for Inactive)
REMARK    1  A    between atoms: O_1  and  C_3
REMARK    2  A    between atoms: O_1  and  C_18
REMARK    3  A    between atoms: C_5  and  C_9
REMARK    4  A    between atoms: C_18  and  C_19
REMARK    5  A    between atoms: C_19  and  N_20
REMARK    6  A    between atoms: C_19  and  C_24
REMARK    7  A    between atoms: C_24  and  C_26
REMARK                            x       y       z     vdW  Elec       q    Type
REMARK                         _______ _______ _______ _____ _____    ______ ____
ROOT
ATOM      1  O   UNL     1      35.449 -20.957 -20.084  0.00  0.00    -0.476 OA
ENDROOT
BRANCH   1   3
ATOM      2  N   UNL     1      32.866 -22.655 -18.152  0.00  0.00    -0.239 NA
ATOM      3  C   UNL     1      34.851 -21.641 -19.058  0.00  0.00    +0.158 C 
ATOM      4  C   UNL     1      35.577 -22.003 -17.938  0.00  0.00    +0.040 C 
ATOM      5  C   UNL     1      34.943 -22.698 -16.914  0.00  0.00    +0.022 C 
ATOM      6  C   UNL     1      33.517 -21.981 -19.127  0.00  0.00    +0.136 C 
ATOM      7  C   UNL     1      33.599 -22.996 -17.068  0.00  0.00    +0.099 C 
BRANCH   5   9
ATOM      8  N   UNL     1      37.077 -24.644 -11.118  0.00  0.00    -0.242 NA
ATOM      9  C   UNL     1      35.663 -23.094 -15.726  0.00  0.00    +0.002 C 
ATOM     10  C   UNL     1      35.651 -23.878 -13.421  0.00  0.00    +0.003 C 
ATOM     11  C   UNL     1      34.964 -23.491 -14.584  0.00  0.00    +0.000 C 
ATOM     12  C   UNL     1      37.060 -23.861 -13.420  0.00  0.00    +0.019 C 
ATOM     13  C   UNL     1      37.057 -23.078 -15.719  0.00  0.00    +0.000 C 
ATOM     14  C   UNL     1      37.755 -23.460 -14.572  0.00  0.00    +0.002 C 
ATOM     15  C   UNL     1      34.977 -24.282 -12.262  0.00  0.00    +0.021 C 
ATOM     16  C   UNL     1      37.709 -24.252 -12.247  0.00  0.00    +0.099 C 
ATOM     17  C   UNL     1      35.727 -24.649 -11.156  0.00  0.00    +0.099 C 
ENDBRANCH   5   9
ENDBRANCH   1   3
BRANCH   1  18
ATOM     18  C   UNL     1      34.614 -20.104 -20.857  0.00  0.00    +0.184 C 
BRANCH  18  19
ATOM     19  C   UNL     1      35.279 -18.733 -21.017  0.00  0.00    -0.021 C 
BRANCH  19  20
ATOM     20  N   UNL     1      36.717 -18.880 -20.789  0.00  0.00    +0.384 N 
ATOM     21  H   UNL     1      37.144 -17.957 -20.707  0.00  0.00    -0.089 HD
ATOM     22  H   UNL     1      37.136 -19.380 -21.573  0.00  0.00    -0.089 HD
ATOM     23  H   UNL     1      36.872 -19.404 -19.928  0.00  0.00    -0.089 HD
ENDBRANCH  19  20
BRANCH  19  24
ATOM     24  C   UNL     1      34.998 -18.129 -22.410  0.00  0.00    -0.012 C 
BRANCH  24  26
ATOM     25  N   UNL     1      33.955 -14.914 -21.689  0.00  0.00    -0.270 NA
ATOM     26  C   UNL     1      35.357 -16.660 -22.527  0.00  0.00    +0.046 C 
ATOM     27  C   UNL     1      34.668 -15.953 -23.649  0.00  0.00    -0.007 C 
ATOM     28  C   UNL     1      34.779 -15.863 -21.362  0.00  0.00    +0.130 C 
ATOM     29  C   UNL     1      33.871 -14.945 -23.092  0.00  0.00    +0.071 C 
ATOM     30  C   UNL     1      34.733 -16.155 -25.014  0.00  0.00    -0.024 C 
ATOM     31  C   UNL     1      33.111 -14.116 -23.899  0.00  0.00    +0.014 C 
ATOM     32  C   UNL     1      33.969 -15.322 -25.835  0.00  0.00    +0.052 C 
ATOM     33  C   UNL     1      33.165 -14.312 -25.282  0.00  0.00    -0.020 C 
ENDBRANCH  24  26
ENDBRANCH  19  24
ENDBRANCH  18  19
ENDBRANCH   1  18
TORSDOF 7
ENDMDL
MODEL 2
REMARK VINA RESULT:     -12.0      2.654     10.847
REMARK  Name = 11840906
REMARK  7 active torsions:
REMARK  status: ('A' for Active; 'I' for Inactive)
REMARK    1  A    between atoms: O_1  and  C_3
REMARK    2  A    between atoms: O_1  and  C_18
REMARK    3  A    between atoms: C_5  and  C_9
REMARK    4  A    between atoms: C_18  and  C_19
REMARK    5  A    between atoms: C_19  and  N_20
REMARK    6  A    between atoms: C_19  and  C_24
REMARK    7  A    between atoms: C_24  and  C_26
REMARK                            x       y       z     vdW  Elec       q    Type
REMARK                         _______ _______ _______ _____ _____    ______ ____
ROOT
ATOM      1  O   UNL     1      35.741 -18.129 -23.105  0.00  0.00    -0.476 OA
ENDROOT
BRANCH   1   3
ATOM      2  N   UNL     1      34.244 -15.653 -25.322  0.00  0.00    -0.239 NA
ATOM      3  C   UNL     1      35.053 -17.015 -23.512  0.00  0.00    +0.158 C 
ATOM      4  C   UNL     1      34.494 -16.157 -22.583  0.00  0.00    +0.040 C 
ATOM      5  C   UNL     1      33.803 -15.034 -23.026  0.00  0.00    +0.022 C 
ATOM      6  C   UNL     1      34.908 -16.733 -24.853  0.00  0.00    +0.136 C 
ATOM      7  C   UNL     1      33.707 -14.830 -24.393  0.00  0.00    +0.099 C 
BRANCH   5   9
ATOM      8  N   UNL     1      31.230 -10.094 -19.722  0.00  0.00    -0.242 NA
ATOM      9  C   UNL     1      33.204 -14.112 -22.090  0.00  0.00    +0.002 C 
ATOM     10  C   UNL     1      32.396 -11.876 -21.565  0.00  0.00    +0.003 C 
ATOM     11  C   UNL     1      32.976 -12.785 -22.465  0.00  0.00    +0.000 C 
ATOM     12  C   UNL     1      32.045 -12.318 -20.273  0.00  0.00    +0.019 C 
ATOM     13  C   UNL     1      32.856 -14.543 -20.811  0.00  0.00    +0.000 C 
ATOM     14  C   UNL     1      32.279 -13.653 -19.905  0.00  0.00    +0.002 C 
ATOM     15  C   UNL     1      32.154 -10.541 -21.913  0.00  0.00    +0.021 C 
ATOM     16  C   UNL     1      31.470 -11.387 -19.406  0.00  0.00    +0.099 C 
ATOM     17  C   UNL     1      31.578  -9.706 -20.968  0.00  0.00    +0.099 C 
ENDBRANCH   5   9
ENDBRANCH   1   3
BRANCH   1  18
ATOM     18  C   UNL     1      34.971 -19.188 -22.549  0.00  0.00    +0.184 C 
BRANCH  18  19
ATOM     19  C   UNL     1      35.637 -19.695 -21.266  0.00  0.00    -0.021 C 
BRANCH  19  20
ATOM     20  N   UNL     1      36.486 -18.631 -20.727  0.00  0.00    +0.384 N 
ATOM     21  H   UNL     1      36.504 -18.694 -19.709  0.00  0.00    -0.089 HD
ATOM     22  H   UNL     1      36.112 -17.724 -21.005  0.00  0.00    -0.089 HD
ATOM     23  H   UNL     1      37.433 -18.735 -21.091  0.00  0.00    -0.089 HD
ENDBRANCH  19  20
BRANCH  19  24
ATOM     24  C   UNL     1      34.588 -20.146 -20.227  0.00  0.00    -0.012 C 
BRANCH  24  26
ATOM     25  N   UNL     1      33.208 -22.649 -18.283  0.00  0.00    -0.270 NA
ATOM     26  C   UNL     1      34.672 -21.617 -19.867  0.00  0.00    +0.046 C 
ATOM     27  C   UNL     1      35.390 -21.889 -18.584  0.00  0.00    -0.007 C 
ATOM     28  C   UNL     1      33.301 -22.164 -19.485  0.00  0.00    +0.130 C 
ATOM     29  C   UNL     1      34.481 -22.494 -17.707  0.00  0.00    +0.071 C 
ATOM     30  C   UNL     1      36.700 -21.648 -18.218  0.00  0.00    -0.024 C 
ATOM     31  C   UNL     1      34.869 -22.867 -16.432  0.00  0.00    +0.014 C 
ATOM     32  C   UNL     1      37.098 -22.021 -16.933  0.00  0.00    +0.052 C 
ATOM     33  C   UNL     1      36.191 -22.625 -16.047  0.00  0.00    -0.020 C 
ENDBRANCH  24  26
ENDBRANCH  19  24
ENDBRANCH  18  19
ENDBRANCH   1  18
TORSDOF 7
ENDMDL
MODEL 3
REMARK VINA RESULT:     -12.0      1.227      2.204
REMARK  Name = 11840906
REMARK  7 active torsions:
REMARK  status: ('A' for Active; 'I' for Inactive)
REMARK    1  A    between atoms: O_1  and  C_3
REMARK    2  A    between atoms: O_1  and  C_18
REMARK    3  A    between atoms: C_5  and  C_9
REMARK    4  A    between atoms: C_18  and  C_19
REMARK    5  A    between atoms: C_19  and  N_20
REMARK    6  A    between atoms: C_19  and  C_24
REMARK    7  A    between atoms: C_24  and  C_26
REMARK                            x       y       z     vdW  Elec       q    Type
REMARK                         _______ _______ _______ _____ _____    ______ ____
ROOT
ATOM      1  O   UNL     1      36.052 -20.949 -19.564  0.00  0.00    -0.476 OA
ENDROOT
BRANCH   1   3
ATOM      2  N   UNL     1      32.963 -22.520 -18.433  0.00  0.00    -0.239 NA
ATOM      3  C   UNL     1      35.181 -21.652 -18.772  0.00  0.00    +0.158 C 
ATOM      4  C   UNL     1      35.602 -22.187 -17.568  0.00  0.00    +0.040 C 
ATOM      5  C   UNL     1      34.695 -22.895 -16.787  0.00  0.00    +0.022 C 
ATOM      6  C   UNL     1      33.873 -21.838 -19.164  0.00  0.00    +0.136 C 
ATOM      7  C   UNL     1      33.400 -23.032 -17.259  0.00  0.00    +0.099 C 
BRANCH   5   9
ATOM      8  N   UNL     1      37.574 -25.504 -11.606  0.00  0.00    -0.242 NA
ATOM      9  C   UNL     1      35.091 -23.469 -15.523  0.00  0.00    +0.002 C 
ATOM     10  C   UNL     1      36.825 -24.385 -14.079  0.00  0.00    +0.003 C 
ATOM     11  C   UNL     1      36.425 -23.824 -15.303  0.00  0.00    +0.000 C 
ATOM     12  C   UNL     1      35.863 -24.586 -13.069  0.00  0.00    +0.019 C 
ATOM     13  C   UNL     1      34.144 -23.671 -14.520  0.00  0.00    +0.000 C 
ATOM     14  C   UNL     1      34.524 -24.227 -13.298  0.00  0.00    +0.002 C 
ATOM     15  C   UNL     1      38.154 -24.750 -13.830  0.00  0.00    +0.021 C 
ATOM     16  C   UNL     1      36.297 -25.145 -11.865  0.00  0.00    +0.099 C 
ATOM     17  C   UNL     1      38.469 -25.296 -12.596  0.00  0.00    +0.099 C 
ENDBRANCH   5   9
ENDBRANCH   1   3
BRANCH   1  18
ATOM     18  C   UNL     1      35.488 -20.221 -20.647  0.00  0.00    +0.184 C 
BRANCH  18  19
ATOM     19  C   UNL     1      36.223 -18.887 -20.815  0.00  0.00    -0.021 C 
BRANCH  19  20
ATOM     20  N   UNL     1      37.573 -19.025 -20.270  0.00  0.00    +0.384 N 
ATOM     21  H   UNL     1      37.546 -18.899 -19.257  0.00  0.00    -0.089 HD
ATOM     22  H   UNL     1      38.182 -18.318 -20.683  0.00  0.00    -0.089 HD
ATOM     23  H   UNL     1      37.935 -19.954 -20.486  0.00  0.00    -0.089 HD
ENDBRANCH  19  20
BRANCH  19  24
ATOM     24  C   UNL     1      36.265 -18.449 -22.295  0.00  0.00    -0.012 C 
BRANCH  24  26
ATOM     25  N   UNL     1      34.859 -16.369 -24.670  0.00  0.00    -0.270 NA
ATOM     26  C   UNL     1      34.965 -17.850 -22.796  0.00  0.00    +0.046 C 
ATOM     27  C   UNL     1      34.729 -16.445 -22.344  0.00  0.00    -0.007 C 
ATOM     28  C   UNL     1      35.022 -17.603 -24.300  0.00  0.00    +0.130 C 
ATOM     29  C   UNL     1      34.673 -15.634 -23.485  0.00  0.00    +0.071 C 
ATOM     30  C   UNL     1      34.567 -15.923 -21.075  0.00  0.00    -0.024 C 
ATOM     31  C   UNL     1      34.460 -14.271 -23.375  0.00  0.00    +0.014 C 
ATOM     32  C   UNL     1      34.351 -14.549 -20.957  0.00  0.00    +0.052 C 
ATOM     33  C   UNL     1      34.299 -13.730 -22.097  0.00  0.00    -0.020 C 
ENDBRANCH  24  26
ENDBRANCH  19  24
ENDBRANCH  18  19
ENDBRANCH   1  18
TORSDOF 7
ENDMDL
MODEL 4
REMARK VINA RESULT:     -11.9      1.557     10.911
REMARK  Name = 11840906
REMARK  7 active torsions:
REMARK  status: ('A' for Active; 'I' for Inactive)
REMARK    1  A    between atoms: O_1  and  C_3
REMARK    2  A    between atoms: O_1  and  C_18
REMARK    3  A    between atoms: C_5  and  C_9
REMARK    4  A    between atoms: C_18  and  C_19
REMARK    5  A    between atoms: C_19  and  N_20
REMARK    6  A    between atoms: C_19  and  C_24
REMARK    7  A    between atoms: C_24  and  C_26
REMARK                            x       y       z     vdW  Elec       q    Type
REMARK                         _______ _______ _______ _____ _____    ______ ____
ROOT
ATOM      1  O   UNL     1      33.144 -22.250 -18.588  0.00  0.00    -0.476 OA
ENDROOT
BRANCH   1   3
ATOM      2  N   UNL     1      36.620 -21.466 -19.353  0.00  0.00    -0.239 NA
ATOM      3  C   UNL     1      34.229 -21.630 -19.151  0.00  0.00    +0.158 C 
ATOM      4  C   UNL     1      34.057 -20.591 -20.047  0.00  0.00    +0.040 C 
ATOM      5  C   UNL     1      35.178 -19.982 -20.602  0.00  0.00    +0.022 C 
ATOM      6  C   UNL     1      35.508 -22.034 -18.834  0.00  0.00    +0.136 C 
ATOM      7  C   UNL     1      36.425 -20.452 -20.225  0.00  0.00    +0.099 C 
BRANCH   5   9
ATOM      8  N   UNL     1      34.488 -14.408 -23.826  0.00  0.00    -0.242 NA
ATOM      9  C   UNL     1      35.044 -18.892 -21.541  0.00  0.00    +0.002 C 
ATOM     10  C   UNL     1      34.749 -16.515 -21.977  0.00  0.00    +0.003 C 
ATOM     11  C   UNL     1      34.882 -17.584 -21.076  0.00  0.00    +0.000 C 
ATOM     12  C   UNL     1      34.782 -16.777 -23.362  0.00  0.00    +0.019 C 
ATOM     13  C   UNL     1      35.075 -19.145 -22.911  0.00  0.00    +0.000 C 
ATOM     14  C   UNL     1      34.944 -18.094 -23.820  0.00  0.00    +0.002 C 
ATOM     15  C   UNL     1      34.586 -15.195 -21.541  0.00  0.00    +0.021 C 
ATOM     16  C   UNL     1      34.647 -15.689 -24.227  0.00  0.00    +0.099 C 
ATOM     17  C   UNL     1      34.463 -14.195 -22.493  0.00  0.00    +0.099 C 
ENDBRANCH   5   9
ENDBRANCH   1   3
BRANCH   1  18
ATOM     18  C   UNL     1      33.398 -23.438 -17.848  0.00  0.00    +0.184 C 
BRANCH  18  19
ATOM     19  C   UNL     1      33.327 -23.139 -16.347  0.00  0.00    -0.021 C 
BRANCH  19  20
ATOM     20  N   UNL     1      31.997 -23.505 -15.859  0.00  0.00    +0.384 N 
ATOM     21  H   UNL     1      31.344 -23.536 -16.644  0.00  0.00    -0.089 HD
ATOM     22  H   UNL     1      31.680 -22.812 -15.181  0.00  0.00    -0.089 HD
ATOM     23  H   UNL     1      32.037 -24.422 -15.415  0.00  0.00    -0.089 HD
ENDBRANCH  19  20
BRANCH  19  24
ATOM     24  C   UNL     1      34.428 -23.892 -15.570  0.00  0.00    -0.012 C 
BRANCH  24  26
ATOM     25  N   UNL     1      37.692 -23.139 -14.716  0.00  0.00    -0.270 NA
ATOM     26  C   UNL     1      35.305 -22.991 -14.720  0.00  0.00    +0.046 C 
ATOM     27  C   UNL     1      35.792 -23.629 -13.460  0.00  0.00    -0.007 C 
ATOM     28  C   UNL     1      36.653 -22.752 -15.393  0.00  0.00    +0.130 C 
ATOM     29  C   UNL     1      37.190 -23.681 -13.520  0.00  0.00    +0.071 C 
ATOM     30  C   UNL     1      35.095 -24.106 -12.366  0.00  0.00    -0.024 C 
ATOM     31  C   UNL     1      37.924 -24.223 -12.479  0.00  0.00    +0.014 C 
ATOM     32  C   UNL     1      35.829 -24.655 -11.312  0.00  0.00    +0.052 C 
ATOM     33  C   UNL     1      37.231 -24.713 -11.368  0.00  0.00    -0.020 C 
ENDBRANCH  24  26
ENDBRANCH  19  24
ENDBRANCH  18  19
ENDBRANCH   1  18
TORSDOF 7
ENDMDL
MODEL 5
REMARK VINA RESULT:     -11.8      7.702     14.653
REMARK  Name = 11840906
REMARK  7 active torsions:
REMARK  status: ('A' for Active; 'I' for Inactive)
REMARK    1  A    between atoms: O_1  and  C_3
REMARK    2  A    between atoms: O_1  and  C_18
REMARK    3  A    between atoms: C_5  and  C_9
REMARK    4  A    between atoms: C_18  and  C_19
REMARK    5  A    between atoms: C_19  and  N_20
REMARK    6  A    between atoms: C_19  and  C_24
REMARK    7  A    between atoms: C_24  and  C_26
REMARK                            x       y       z     vdW  Elec       q    Type
REMARK                         _______ _______ _______ _____ _____    ______ ____
ROOT
ATOM      1  O   UNL     1      31.352 -11.107 -21.155  0.00  0.00    -0.476 OA
ENDROOT
BRANCH   1   3
ATOM      2  N   UNL     1      32.450  -8.058 -19.486  0.00  0.00    -0.239 NA
ATOM      3  C   UNL     1      31.903  -9.864 -20.978  0.00  0.00    +0.158 C 
ATOM      4  C   UNL     1      32.447  -9.177 -22.048  0.00  0.00    +0.040 C 
ATOM      5  C   UNL     1      32.998  -7.918 -21.837  0.00  0.00    +0.022 C 
ATOM      6  C   UNL     1      31.924  -9.279 -19.730  0.00  0.00    +0.136 C 
ATOM      7  C   UNL     1      32.975  -7.408 -20.549  0.00  0.00    +0.099 C 
BRANCH   5   9
ATOM      8  N   UNL     1      34.543  -3.946 -26.713  0.00  0.00    -0.242 NA
ATOM      9  C   UNL     1      33.576  -7.166 -22.926  0.00  0.00    +0.002 C 
ATOM     10  C   UNL     1      33.397  -5.397 -24.589  0.00  0.00    +0.003 C 
ATOM     11  C   UNL     1      32.849  -6.135 -23.528  0.00  0.00    +0.000 C 
ATOM     12  C   UNL     1      34.694  -5.707 -25.043  0.00  0.00    +0.019 C 
ATOM     13  C   UNL     1      34.858  -7.470 -23.380  0.00  0.00    +0.000 C 
ATOM     14  C   UNL     1      35.418  -6.745 -24.433  0.00  0.00    +0.002 C 
ATOM     15  C   UNL     1      32.692  -4.359 -25.211  0.00  0.00    +0.021 C 
ATOM     16  C   UNL     1      35.207  -4.952 -26.099  0.00  0.00    +0.099 C 
ATOM     17  C   UNL     1      33.303  -3.676 -26.251  0.00  0.00    +0.099 C 
ENDBRANCH   5   9
ENDBRANCH   1   3
BRANCH   1  18
ATOM     18  C   UNL     1      31.567 -12.056 -20.119  0.00  0.00    +0.184 C 
BRANCH  18  19
ATOM     19  C   UNL     1      32.556 -13.126 -20.592  0.00  0.00    -0.021 C 
BRANCH  19  20
ATOM     20  N   UNL     1      32.356 -14.335 -19.791  0.00  0.00    +0.384 N 
ATOM     21  H   UNL     1      31.615 -14.171 -19.108  0.00  0.00    -0.089 HD
ATOM     22  H   UNL     1      33.221 -14.568 -19.304  0.00  0.00    -0.089 HD
ATOM     23  H   UNL     1      32.090 -15.107 -20.402  0.00  0.00    -0.089 HD
ENDBRANCH  19  20
BRANCH  19  24
ATOM     24  C   UNL     1      32.388 -13.424 -22.097  0.00  0.00    -0.012 C 
BRANCH  24  26
ATOM     25  N   UNL     1      33.832 -14.460 -25.062  0.00  0.00    -0.270 NA
ATOM     26  C   UNL     1      33.700 -13.577 -22.844  0.00  0.00    +0.046 C 
ATOM     27  C   UNL     1      34.252 -14.965 -22.826  0.00  0.00    -0.007 C 
ATOM     28  C   UNL     1      33.491 -13.430 -24.347  0.00  0.00    +0.130 C 
ATOM     29  C   UNL     1      34.306 -15.419 -24.149  0.00  0.00    +0.071 C 
ATOM     30  C   UNL     1      34.675 -15.751 -21.772  0.00  0.00    -0.024 C 
ATOM     31  C   UNL     1      34.784 -16.685 -24.445  0.00  0.00    +0.014 C 
ATOM     32  C   UNL     1      35.158 -17.029 -22.062  0.00  0.00    +0.052 C 
ATOM     33  C   UNL     1      35.212 -17.492 -23.387  0.00  0.00    -0.020 C 
ENDBRANCH  24  26
ENDBRANCH  19  24
ENDBRANCH  18  19
ENDBRANCH   1  18
TORSDOF 7
ENDMDL
MODEL 6
REMARK VINA RESULT:     -11.8      2.170     11.163
REMARK  Name = 11840906
REMARK  7 active torsions:
REMARK  status: ('A' for Active; 'I' for Inactive)
REMARK    1  A    between atoms: O_1  and  C_3
REMARK    2  A    between atoms: O_1  and  C_18
REMARK    3  A    between atoms: C_5  and  C_9
REMARK    4  A    between atoms: C_18  and  C_19
REMARK    5  A    between atoms: C_19  and  N_20
REMARK    6  A    between atoms: C_19  and  C_24
REMARK    7  A    between atoms: C_24  and  C_26
REMARK                            x       y       z     vdW  Elec       q    Type
REMARK                         _______ _______ _______ _____ _____    ______ ____
ROOT
ATOM      1  O   UNL     1      34.640 -21.628 -19.874  0.00  0.00    -0.476 OA
ENDROOT
BRANCH   1   3
ATOM      2  N   UNL     1      37.530 -19.429 -20.184  0.00  0.00    -0.239 NA
ATOM      3  C   UNL     1      35.418 -20.575 -20.282  0.00  0.00    +0.158 C 
ATOM      4  C   UNL     1      34.918 -19.632 -21.160  0.00  0.00    +0.040 C 
ATOM      5  C   UNL     1      35.731 -18.575 -21.556  0.00  0.00    +0.022 C 
ATOM      6  C   UNL     1      36.711 -20.441 -19.823  0.00  0.00    +0.136 C 
ATOM      7  C   UNL     1      37.017 -18.519 -21.044  0.00  0.00    +0.099 C 
BRANCH   5   9
ATOM      8  N   UNL     1      33.590 -13.332 -24.696  0.00  0.00    -0.242 NA
ATOM      9  C   UNL     1      35.249 -17.567 -22.471  0.00  0.00    +0.002 C 
ATOM     10  C   UNL     1      34.531 -15.279 -22.894  0.00  0.00    +0.003 C 
ATOM     11  C   UNL     1      35.002 -16.269 -22.016  0.00  0.00    +0.000 C 
ATOM     12  C   UNL     1      34.310 -15.610 -24.246  0.00  0.00    +0.019 C 
ATOM     13  C   UNL     1      35.028 -17.889 -23.809  0.00  0.00    +0.000 C 
ATOM     14  C   UNL     1      34.560 -16.917 -24.695  0.00  0.00    +0.002 C 
ATOM     15  C   UNL     1      34.276 -13.971 -22.466  0.00  0.00    +0.021 C 
ATOM     16  C   UNL     1      33.843 -14.601 -25.090  0.00  0.00    +0.099 C 
ATOM     17  C   UNL     1      33.814 -13.051 -23.395  0.00  0.00    +0.099 C 
ENDBRANCH   5   9
ENDBRANCH   1   3
BRANCH   1  18
ATOM     18  C   UNL     1      35.053 -22.311 -18.697  0.00  0.00    +0.184 C 
BRANCH  18  19
ATOM     19  C   UNL     1      33.929 -22.278 -17.656  0.00  0.00    -0.021 C 
BRANCH  19  20
ATOM     20  N   UNL     1      32.644 -22.330 -18.354  0.00  0.00    +0.384 N 
ATOM     21  H   UNL     1      32.584 -23.195 -18.894  0.00  0.00    -0.089 HD
ATOM     22  H   UNL     1      32.565 -21.531 -18.983  0.00  0.00    -0.089 HD
ATOM     23  H   UNL     1      31.885 -22.302 -17.673  0.00  0.00    -0.089 HD
ENDBRANCH  19  20
BRANCH  19  24
ATOM     24  C   UNL     1      34.059 -23.440 -16.649  0.00  0.00    -0.012 C 
BRANCH  24  26
ATOM     25  N   UNL     1      33.758 -24.619 -13.413  0.00  0.00    -0.270 NA
ATOM     26  C   UNL     1      33.591 -23.094 -15.248  0.00  0.00    +0.046 C 
ATOM     27  C   UNL     1      32.248 -23.649 -14.900  0.00  0.00    -0.007 C 
ATOM     28  C   UNL     1      34.422 -23.826 -14.199  0.00  0.00    +0.130 C 
ATOM     29  C   UNL     1      32.415 -24.527 -13.822  0.00  0.00    +0.071 C 
ATOM     30  C   UNL     1      31.006 -23.410 -15.455  0.00  0.00    -0.024 C 
ATOM     31  C   UNL     1      31.332 -25.193 -13.276  0.00  0.00    +0.014 C 
ATOM     32  C   UNL     1      29.908 -24.080 -14.910  0.00  0.00    +0.052 C 
ATOM     33  C   UNL     1      30.069 -24.964 -13.831  0.00  0.00    -0.020 C 
ENDBRANCH  24  26
ENDBRANCH  19  24
ENDBRANCH  18  19
ENDBRANCH   1  18
TORSDOF 7
ENDMDL
MODEL 7
REMARK VINA RESULT:     -11.8      4.401      7.983
REMARK  Name = 11840906
REMARK  7 active torsions:
REMARK  status: ('A' for Active; 'I' for Inactive)
REMARK    1  A    between atoms: O_1  and  C_3
REMARK    2  A    between atoms: O_1  and  C_18
REMARK    3  A    between atoms: C_5  and  C_9
REMARK    4  A    between atoms: C_18  and  C_19
REMARK    5  A    between atoms: C_19  and  N_20
REMARK    6  A    between atoms: C_19  and  C_24
REMARK    7  A    between atoms: C_24  and  C_26
REMARK                            x       y       z     vdW  Elec       q    Type
REMARK                         _______ _______ _______ _____ _____    ______ ____
ROOT
ATOM      1  O   UNL     1      34.586 -13.713 -22.497  0.00  0.00    -0.476 OA
ENDROOT
BRANCH   1   3
ATOM      2  N   UNL     1      34.782 -16.515 -24.819  0.00  0.00    -0.239 NA
ATOM      3  C   UNL     1      34.734 -14.997 -22.955  0.00  0.00    +0.158 C 
ATOM      4  C   UNL     1      34.976 -16.034 -22.072  0.00  0.00    +0.040 C 
ATOM      5  C   UNL     1      35.122 -17.325 -22.567  0.00  0.00    +0.022 C 
ATOM      6  C   UNL     1      34.646 -15.274 -24.302  0.00  0.00    +0.136 C 
ATOM      7  C   UNL     1      35.017 -17.511 -23.935  0.00  0.00    +0.099 C 
BRANCH   5   9
ATOM      8  N   UNL     1      35.053 -22.434 -18.588  0.00  0.00    -0.242 NA
ATOM      9  C   UNL     1      35.374 -18.437 -21.680  0.00  0.00    +0.002 C 
ATOM     10  C   UNL     1      34.537 -20.272 -20.316  0.00  0.00    +0.003 C 
ATOM     11  C   UNL     1      34.307 -19.189 -21.180  0.00  0.00    +0.000 C 
ATOM     12  C   UNL     1      35.861 -20.594 -19.957  0.00  0.00    +0.019 C 
ATOM     13  C   UNL     1      36.681 -18.760 -21.320  0.00  0.00    +0.000 C 
ATOM     14  C   UNL     1      36.927 -19.833 -20.463  0.00  0.00    +0.002 C 
ATOM     15  C   UNL     1      33.488 -21.044 -19.801  0.00  0.00    +0.021 C 
ATOM     16  C   UNL     1      36.051 -21.677 -19.097  0.00  0.00    +0.099 C 
ATOM     17  C   UNL     1      33.797 -22.097 -18.955  0.00  0.00    +0.099 C 
ENDBRANCH   5   9
ENDBRANCH   1   3
BRANCH   1  18
ATOM     18  C   UNL     1      33.489 -12.972 -23.015  0.00  0.00    +0.184 C 
BRANCH  18  19
ATOM     19  C   UNL     1      33.920 -11.526 -23.286  0.00  0.00    -0.021 C 
BRANCH  19  20
ATOM     20  N   UNL     1      34.652 -11.486 -24.552  0.00  0.00    +0.384 N 
ATOM     21  H   UNL     1      34.779 -12.436 -24.902  0.00  0.00    -0.089 HD
ATOM     22  H   UNL     1      35.564 -11.054 -24.404  0.00  0.00    -0.089 HD
ATOM     23  H   UNL     1      34.124 -10.941 -25.233  0.00  0.00    -0.089 HD
ENDBRANCH  19  20
BRANCH  19  24
ATOM     24  C   UNL     1      32.707 -10.572 -23.316  0.00  0.00    -0.012 C 
BRANCH  24  26
ATOM     25  N   UNL     1      31.436  -7.433 -22.623  0.00  0.00    -0.270 NA
ATOM     26  C   UNL     1      32.877  -9.334 -22.456  0.00  0.00    +0.046 C 
ATOM     27  C   UNL     1      33.572  -8.205 -23.146  0.00  0.00    -0.007 C 
ATOM     28  C   UNL     1      31.534  -8.658 -22.202  0.00  0.00    +0.130 C 
ATOM     29  C   UNL     1      32.678  -7.128 -23.207  0.00  0.00    +0.071 C 
ATOM     30  C   UNL     1      34.851  -8.115 -23.660  0.00  0.00    -0.024 C 
ATOM     31  C   UNL     1      33.051  -5.931 -23.794  0.00  0.00    +0.014 C 
ATOM     32  C   UNL     1      35.234  -6.911 -24.254  0.00  0.00    +0.052 C 
ATOM     33  C   UNL     1      34.341  -5.828 -24.321  0.00  0.00    -0.020 C 
ENDBRANCH  24  26
ENDBRANCH  19  24
ENDBRANCH  18  19
ENDBRANCH   1  18
TORSDOF 7
ENDMDL
MODEL 8
REMARK VINA RESULT:     -11.8      7.168     14.114
REMARK  Name = 11840906
REMARK  7 active torsions:
REMARK  status: ('A' for Active; 'I' for Inactive)
REMARK    1  A    between atoms: O_1  and  C_3
REMARK    2  A    between atoms: O_1  and  C_18
REMARK    3  A    between atoms: C_5  and  C_9
REMARK    4  A    between atoms: C_18  and  C_19
REMARK    5  A    between atoms: C_19  and  N_20
REMARK    6  A    between atoms: C_19  and  C_24
REMARK    7  A    between atoms: C_24  and  C_26
REMARK                            x       y       z     vdW  Elec       q    Type
REMARK                         _______ _______ _______ _____ _____    ______ ____
ROOT
ATOM      1  O   UNL     1      31.523 -12.358 -21.259  0.00  0.00    -0.476 OA
ENDROOT
BRANCH   1   3
ATOM      2  N   UNL     1      32.160  -9.544 -19.032  0.00  0.00    -0.239 NA
ATOM      3  C   UNL     1      31.784 -11.077 -20.847  0.00  0.00    +0.158 C 
ATOM      4  C   UNL     1      31.934 -10.059 -21.771  0.00  0.00    +0.040 C 
ATOM      5  C   UNL     1      32.199  -8.770 -21.322  0.00  0.00    +0.022 C 
ATOM      6  C   UNL     1      31.903 -10.784 -19.505  0.00  0.00    +0.136 C 
ATOM      7  C   UNL     1      32.301  -8.567 -19.956  0.00  0.00    +0.099 C 
BRANCH   5   9
ATOM      8  N   UNL     1      33.983  -4.391 -25.747  0.00  0.00    -0.242 NA
ATOM      9  C   UNL     1      32.361  -7.677 -22.252  0.00  0.00    +0.002 C 
ATOM     10  C   UNL     1      33.688  -6.532 -23.942  0.00  0.00    +0.003 C 
ATOM     11  C   UNL     1      33.516  -7.590 -23.034  0.00  0.00    +0.000 C 
ATOM     12  C   UNL     1      32.679  -5.555 -24.057  0.00  0.00    +0.019 C 
ATOM     13  C   UNL     1      31.367  -6.707 -22.369  0.00  0.00    +0.000 C 
ATOM     14  C   UNL     1      31.522  -5.650 -23.266  0.00  0.00    +0.002 C 
ATOM     15  C   UNL     1      34.834  -6.419 -24.739  0.00  0.00    +0.021 C 
ATOM     16  C   UNL     1      32.885  -4.519 -24.970  0.00  0.00    +0.099 C 
ATOM     17  C   UNL     1      34.929  -5.346 -25.612  0.00  0.00    +0.099 C 
ENDBRANCH   5   9
ENDBRANCH   1   3
BRANCH   1  18
ATOM     18  C   UNL     1      32.647 -13.189 -21.520  0.00  0.00    +0.184 C 
BRANCH  18  19
ATOM     19  C   UNL     1      33.096 -13.013 -22.974  0.00  0.00    -0.021 C 
BRANCH  19  20
ATOM     20  N   UNL     1      34.438 -12.429 -22.982  0.00  0.00    +0.384 N 
ATOM     21  H   UNL     1      34.962 -12.772 -22.177  0.00  0.00    -0.089 HD
ATOM     22  H   UNL     1      34.367 -11.413 -22.935  0.00  0.00    -0.089 HD
ATOM     23  H   UNL     1      34.920 -12.697 -23.840  0.00  0.00    -0.089 HD
ENDBRANCH  19  20
BRANCH  19  24
ATOM     24  C   UNL     1      33.070 -14.354 -23.739  0.00  0.00    -0.012 C 
BRANCH  24  26
ATOM     25  N   UNL     1      34.788 -16.949 -25.243  0.00  0.00    -0.270 NA
ATOM     26  C   UNL     1      34.442 -14.964 -23.956  0.00  0.00    +0.046 C 
ATOM     27  C   UNL     1      34.740 -16.125 -23.064  0.00  0.00    -0.007 C 
ATOM     28  C   UNL     1      34.513 -15.681 -25.300  0.00  0.00    +0.130 C 
ATOM     29  C   UNL     1      34.935 -17.248 -23.877  0.00  0.00    +0.071 C 
ATOM     30  C   UNL     1      34.843 -16.199 -21.688  0.00  0.00    -0.024 C 
ATOM     31  C   UNL     1      35.233 -18.481 -23.322  0.00  0.00    +0.014 C 
ATOM     32  C   UNL     1      35.143 -17.439 -21.121  0.00  0.00    +0.052 C 
ATOM     33  C   UNL     1      35.336 -18.571 -21.932  0.00  0.00    -0.020 C 
ENDBRANCH  24  26
ENDBRANCH  19  24
ENDBRANCH  18  19
ENDBRANCH   1  18
TORSDOF 7
ENDMDL
MODEL 9
REMARK VINA RESULT:     -11.7      4.252      7.888
REMARK  Name = 11840906
REMARK  7 active torsions:
REMARK  status: ('A' for Active; 'I' for Inactive)
REMARK    1  A    between atoms: O_1  and  C_3
REMARK    2  A    between atoms: O_1  and  C_18
REMARK    3  A    between atoms: C_5  and  C_9
REMARK    4  A    between atoms: C_18  and  C_19
REMARK    5  A    between atoms: C_19  and  N_20
REMARK    6  A    between atoms: C_19  and  C_24
REMARK    7  A    between atoms: C_24  and  C_26
REMARK                            x       y       z     vdW  Elec       q    Type
REMARK                         _______ _______ _______ _____ _____    ______ ____
ROOT
ATOM      1  O   UNL     1      34.028 -13.519 -21.837  0.00  0.00    -0.476 OA
ENDROOT
BRANCH   1   3
ATOM      2  N   UNL     1      34.681 -15.950 -24.474  0.00  0.00    -0.239 NA
ATOM      3  C   UNL     1      34.348 -14.708 -22.441  0.00  0.00    +0.158 C 
ATOM      4  C   UNL     1      34.649 -15.823 -21.681  0.00  0.00    +0.040 C 
ATOM      5  C   UNL     1      34.969 -17.015 -22.322  0.00  0.00    +0.022 C 
ATOM      6  C   UNL     1      34.375 -14.809 -23.815  0.00  0.00    +0.136 C 
ATOM      7  C   UNL     1      34.970 -17.025 -23.707  0.00  0.00    +0.099 C 
BRANCH   5   9
ATOM      8  N   UNL     1      35.206 -22.479 -18.854  0.00  0.00    -0.242 NA
ATOM      9  C   UNL     1      35.288 -18.203 -21.567  0.00  0.00    +0.002 C 
ATOM     10  C   UNL     1      34.559 -20.167 -20.325  0.00  0.00    +0.003 C 
ATOM     11  C   UNL     1      34.263 -19.009 -21.063  0.00  0.00    +0.000 C 
ATOM     12  C   UNL     1      35.907 -20.510 -20.098  0.00  0.00    +0.019 C 
ATOM     13  C   UNL     1      36.620 -18.547 -21.338  0.00  0.00    +0.000 C 
ATOM     14  C   UNL     1      36.931 -19.695 -20.607  0.00  0.00    +0.002 C 
ATOM     15  C   UNL     1      33.553 -20.993 -19.809  0.00  0.00    +0.021 C 
ATOM     16  C   UNL     1      36.163 -21.668 -19.362  0.00  0.00    +0.099 C 
ATOM     17  C   UNL     1      33.927 -22.119 -19.093  0.00  0.00    +0.099 C 
ENDBRANCH   5   9
ENDBRANCH   1   3
BRANCH   1  18
ATOM     18  C   UNL     1      32.905 -12.819 -22.356  0.00  0.00    +0.184 C 
BRANCH  18  19
ATOM     19  C   UNL     1      31.813 -12.724 -21.286  0.00  0.00    -0.021 C 
BRANCH  19  20
ATOM     20  N   UNL     1      32.375 -13.151 -20.004  0.00  0.00    +0.384 N 
ATOM     21  H   UNL     1      32.029 -12.542 -19.262  0.00  0.00    -0.089 HD
ATOM     22  H   UNL     1      33.393 -13.095 -20.044  0.00  0.00    -0.089 HD
ATOM     23  H   UNL     1      32.094 -14.113 -19.813  0.00  0.00    -0.089 HD
ENDBRANCH  19  20
BRANCH  19  24
ATOM     24  C   UNL     1      31.240 -11.293 -21.190  0.00  0.00    -0.012 C 
BRANCH  24  26
ATOM     25  N   UNL     1      31.970  -8.425 -19.405  0.00  0.00    -0.270 NA
ATOM     26  C   UNL     1      32.290 -10.226 -20.945  0.00  0.00    +0.046 C 
ATOM     27  C   UNL     1      32.039  -8.947 -21.675  0.00  0.00    -0.007 C 
ATOM     28  C   UNL     1      32.206  -9.697 -19.516  0.00  0.00    +0.130 C 
ATOM     29  C   UNL     1      31.866  -7.938 -20.720  0.00  0.00    +0.071 C 
ATOM     30  C   UNL     1      31.978  -8.681 -23.029  0.00  0.00    -0.024 C 
ATOM     31  C   UNL     1      31.619  -6.631 -21.106  0.00  0.00    +0.014 C 
ATOM     32  C   UNL     1      31.730  -7.366 -23.427  0.00  0.00    +0.052 C 
ATOM     33  C   UNL     1      31.551  -6.350 -22.473  0.00  0.00    -0.020 C 
ENDBRANCH  24  26
ENDBRANCH  19  24
ENDBRANCH  18  19
ENDBRANCH   1  18
TORSDOF 7
ENDMDL
