MODEL 1
REMARK VINA RESULT:     -11.4      0.000      0.000
REMARK  Name = 4470378
REMARK  6 active torsions:
REMARK  status: ('A' for Active; 'I' for Inactive)
REMARK    1  A    between atoms: C_5  and  O_10
REMARK    2  A    between atoms: C_6  and  O_24
REMARK    3  A    between atoms: O_10  and  C_11
REMARK    4  A    between atoms: C_12  and  C_19
REMARK    5  A    between atoms: O_24  and  C_25
REMARK    6  A    between atoms: C_26  and  C_33
REMARK                            x       y       z     vdW  Elec       q    Type
REMARK                         _______ _______ _______ _____ _____    ______ ____
ROOT
ATOM      1  F   UNL     1      34.084 -22.678 -19.252  0.00  0.00    -0.221 F 
ATOM      2  F   UNL     1      37.890 -21.217 -16.808  0.00  0.00    -0.199 F 
ATOM      3  N   UNL     1      35.005 -23.159 -15.775  0.00  0.00    -0.331 NA
ATOM      4  C   UNL     1      36.006 -21.923 -18.074  0.00  0.00    +0.031 C 
ATOM      5  C   UNL     1      34.341 -23.198 -16.953  0.00  0.00    +0.298 C 
ATOM      6  C   UNL     1      36.172 -22.491 -15.783  0.00  0.00    +0.312 C 
ATOM      7  C   UNL     1      34.794 -22.602 -18.119  0.00  0.00    +0.270 C 
ATOM      8  C   UNL     1      36.719 -21.862 -16.881  0.00  0.00    +0.201 C 
ATOM      9  C   UNL     1      36.540 -21.262 -19.299  0.00  0.00    +0.032 C 
ENDROOT
BRANCH   5  10
ATOM     10  O   UNL     1      33.148 -23.871 -16.970  0.00  0.00    -0.428 OA
BRANCH  10  11
ATOM     11  C   UNL     1      32.187 -23.485 -16.059  0.00  0.00    +0.148 C 
ATOM     12  C   UNL     1      29.901 -22.959 -15.553  0.00  0.00    +0.032 C 
ATOM     13  C   UNL     1      30.873 -23.352 -16.475  0.00  0.00    +0.040 C 
ATOM     14  C   UNL     1      32.557 -23.237 -14.747  0.00  0.00    +0.038 C 
ATOM     15  C   UNL     1      30.258 -22.707 -14.229  0.00  0.00    +0.003 C 
ATOM     16  C   UNL     1      31.586 -22.845 -13.826  0.00  0.00    +0.003 C 
BRANCH  12  19
ATOM     17  N   UNL     1      28.163 -23.095 -17.235  0.00  0.00    -0.387 N 
ATOM     18  N   UNL     1      27.589 -22.399 -15.102  0.00  0.00    -0.345 N 
ATOM     19  C   UNL     1      28.525 -22.816 -15.971  0.00  0.00    +0.096 C 
ATOM     20  H   UNL     1      27.224 -22.994 -17.512  0.00  0.00    +0.157 HD
ATOM     21  H   UNL     1      28.838 -23.401 -17.884  0.00  0.00    +0.157 HD
ATOM     22  H   UNL     1      26.653 -22.302 -15.394  0.00  0.00    +0.144 HD
ATOM     23  H   UNL     1      27.838 -22.189 -14.173  0.00  0.00    +0.144 HD
ENDBRANCH  12  19
ENDBRANCH  10  11
ENDBRANCH   5  10
BRANCH   6  24
ATOM     24  O   UNL     1      36.861 -22.444 -14.583  0.00  0.00    -0.426 OA
BRANCH  24  25
ATOM     25  C   UNL     1      37.284 -23.622 -14.050  0.00  0.00    +0.148 C 
ATOM     26  C   UNL     1      38.881 -25.433 -13.980  0.00  0.00    +0.034 C 
ATOM     27  C   UNL     1      38.448 -24.225 -14.525  0.00  0.00    +0.040 C 
ATOM     28  C   UNL     1      36.552 -24.228 -13.029  0.00  0.00    +0.038 C 
ATOM     29  C   UNL     1      38.149 -26.040 -12.959  0.00  0.00    +0.003 C 
ATOM     30  C   UNL     1      36.985 -25.437 -12.483  0.00  0.00    +0.003 C 
BRANCH  26  33
ATOM     31  N   UNL     1      40.929 -26.794 -13.633  0.00  0.00    -0.343 N 
ATOM     32  N   UNL     1      40.429 -25.938 -15.749  0.00  0.00    -0.285 NA
ATOM     33  C   UNL     1      40.096 -26.062 -14.476  0.00  0.00    +0.117 C 
ATOM     34  H   UNL     1      41.746 -27.211 -13.989  0.00  0.00    +0.144 HD
ATOM     35  H   UNL     1      40.700 -26.895 -12.680  0.00  0.00    +0.144 HD
ATOM     36  H   UNL     1      41.250 -26.363 -16.085  0.00  0.00    +0.188 HD
ENDBRANCH  26  33
ENDBRANCH  24  25
ENDBRANCH   6  24
TORSDOF 6
ENDMDL
MODEL 2
REMARK VINA RESULT:     -11.1      1.767      2.322
REMARK  Name = 4470378
REMARK  6 active torsions:
REMARK  status: ('A' for Active; 'I' for Inactive)
REMARK    1  A    between atoms: C_5  and  O_10
REMARK    2  A    between atoms: C_6  and  O_24
REMARK    3  A    between atoms: O_10  and  C_11
REMARK    4  A    between atoms: C_12  and  C_19
REMARK    5  A    between atoms: O_24  and  C_25
REMARK    6  A    between atoms: C_26  and  C_33
REMARK                            x       y       z     vdW  Elec       q    Type
REMARK                         _______ _______ _______ _____ _____    ______ ____
ROOT
ATOM      1  F   UNL     1      33.528 -22.813 -19.190  0.00  0.00    -0.221 F 
ATOM      2  F   UNL     1      37.577 -21.022 -17.461  0.00  0.00    -0.199 F 
ATOM      3  N   UNL     1      35.111 -23.212 -15.950  0.00  0.00    -0.331 NA
ATOM      4  C   UNL     1      35.562 -21.891 -18.372  0.00  0.00    +0.031 C 
ATOM      5  C   UNL     1      34.247 -23.308 -16.986  0.00  0.00    +0.298 C 
ATOM      6  C   UNL     1      36.194 -22.443 -16.160  0.00  0.00    +0.312 C 
ATOM      7  C   UNL     1      34.425 -22.675 -18.205  0.00  0.00    +0.270 C 
ATOM      8  C   UNL     1      36.473 -21.768 -17.329  0.00  0.00    +0.201 C 
ATOM      9  C   UNL     1      35.802 -21.186 -19.663  0.00  0.00    +0.032 C 
ENDROOT
BRANCH   5  10
ATOM     10  O   UNL     1      33.135 -24.084 -16.796  0.00  0.00    -0.428 OA
BRANCH  10  11
ATOM     11  C   UNL     1      32.165 -23.605 -15.939  0.00  0.00    +0.148 C 
ATOM     12  C   UNL     1      29.882 -22.988 -15.528  0.00  0.00    +0.032 C 
ATOM     13  C   UNL     1      30.863 -23.474 -16.394  0.00  0.00    +0.040 C 
ATOM     14  C   UNL     1      32.513 -23.264 -14.643  0.00  0.00    +0.038 C 
ATOM     15  C   UNL     1      30.218 -22.641 -14.220  0.00  0.00    +0.003 C 
ATOM     16  C   UNL     1      31.534 -22.779 -13.777  0.00  0.00    +0.003 C 
BRANCH  12  19
ATOM     17  N   UNL     1      28.193 -23.138 -17.258  0.00  0.00    -0.387 N 
ATOM     18  N   UNL     1      27.560 -22.415 -15.150  0.00  0.00    -0.345 N 
ATOM     19  C   UNL     1      28.519 -22.845 -15.987  0.00  0.00    +0.096 C 
ATOM     20  H   UNL     1      27.263 -23.038 -17.563  0.00  0.00    +0.157 HD
ATOM     21  H   UNL     1      28.886 -23.453 -17.883  0.00  0.00    +0.157 HD
ATOM     22  H   UNL     1      26.634 -22.319 -15.470  0.00  0.00    +0.144 HD
ATOM     23  H   UNL     1      27.783 -22.194 -14.217  0.00  0.00    +0.144 HD
ENDBRANCH  12  19
ENDBRANCH  10  11
ENDBRANCH   5  10
BRANCH   6  24
ATOM     24  O   UNL     1      37.085 -22.335 -15.105  0.00  0.00    -0.426 OA
BRANCH  24  25
ATOM     25  C   UNL     1      37.207 -23.402 -14.270  0.00  0.00    +0.148 C 
ATOM     26  C   UNL     1      36.808 -24.435 -12.122  0.00  0.00    +0.034 C 
ATOM     27  C   UNL     1      36.682 -23.342 -12.979  0.00  0.00    +0.040 C 
ATOM     28  C   UNL     1      37.860 -24.557 -14.703  0.00  0.00    +0.038 C 
ATOM     29  C   UNL     1      37.461 -25.589 -12.555  0.00  0.00    +0.003 C 
ATOM     30  C   UNL     1      37.986 -25.650 -13.846  0.00  0.00    +0.003 C 
BRANCH  26  33
ATOM     31  N   UNL     1      36.707 -23.425  -9.856  0.00  0.00    -0.343 N 
ATOM     32  N   UNL     1      35.323 -25.226 -10.406  0.00  0.00    -0.285 NA
ATOM     33  C   UNL     1      36.260 -24.372 -10.776  0.00  0.00    +0.117 C 
ATOM     34  H   UNL     1      36.323 -23.400  -8.950  0.00  0.00    +0.144 HD
ATOM     35  H   UNL     1      37.407 -22.782 -10.112  0.00  0.00    +0.144 HD
ATOM     36  H   UNL     1      34.952 -25.184  -9.495  0.00  0.00    +0.188 HD
ENDBRANCH  26  33
ENDBRANCH  24  25
ENDBRANCH   6  24
TORSDOF 6
ENDMDL
MODEL 3
REMARK VINA RESULT:     -11.1     10.239     13.942
REMARK  Name = 4470378
REMARK  6 active torsions:
REMARK  status: ('A' for Active; 'I' for Inactive)
REMARK    1  A    between atoms: C_5  and  O_10
REMARK    2  A    between atoms: C_6  and  O_24
REMARK    3  A    between atoms: O_10  and  C_11
REMARK    4  A    between atoms: C_12  and  C_19
REMARK    5  A    between atoms: O_24  and  C_25
REMARK    6  A    between atoms: C_26  and  C_33
REMARK                            x       y       z     vdW  Elec       q    Type
REMARK                         _______ _______ _______ _____ _____    ______ ____
ROOT
ATOM      1  F   UNL     1      34.147 -15.706 -20.143  0.00  0.00    -0.221 F 
ATOM      2  F   UNL     1      31.657 -12.050 -21.884  0.00  0.00    -0.199 F 
ATOM      3  N   UNL     1      34.483 -13.867 -23.253  0.00  0.00    -0.331 NA
ATOM      4  C   UNL     1      32.871 -13.878 -20.969  0.00  0.00    +0.031 C 
ATOM      5  C   UNL     1      34.673 -14.754 -22.250  0.00  0.00    +0.298 C 
ATOM      6  C   UNL     1      33.473 -12.996 -23.080  0.00  0.00    +0.312 C 
ATOM      7  C   UNL     1      33.903 -14.801 -21.099  0.00  0.00    +0.270 C 
ATOM      8  C   UNL     1      32.644 -12.949 -21.980  0.00  0.00    +0.201 C 
ATOM      9  C   UNL     1      32.012 -13.882 -19.751  0.00  0.00    +0.032 C 
ENDROOT
BRANCH   5  10
ATOM     10  O   UNL     1      35.697 -15.651 -22.402  0.00  0.00    -0.428 OA
BRANCH  10  11
ATOM     11  C   UNL     1      35.358 -16.975 -22.593  0.00  0.00    +0.148 C 
ATOM     12  C   UNL     1      35.043 -19.184 -21.710  0.00  0.00    +0.032 C 
ATOM     13  C   UNL     1      35.385 -17.845 -21.515  0.00  0.00    +0.040 C 
ATOM     14  C   UNL     1      34.998 -17.406 -23.859  0.00  0.00    +0.038 C 
ATOM     15  C   UNL     1      34.678 -19.633 -22.979  0.00  0.00    +0.003 C 
ATOM     16  C   UNL     1      34.656 -18.744 -24.054  0.00  0.00    +0.003 C 
BRANCH  12  19
ATOM     17  N   UNL     1      36.229 -20.434 -20.008  0.00  0.00    -0.387 N 
ATOM     18  N   UNL     1      33.926 -20.646 -20.136  0.00  0.00    -0.345 N 
ATOM     19  C   UNL     1      35.066 -20.105 -20.596  0.00  0.00    +0.096 C 
ATOM     20  H   UNL     1      36.237 -21.062 -19.250  0.00  0.00    +0.157 HD
ATOM     21  H   UNL     1      37.074 -20.045 -20.335  0.00  0.00    +0.157 HD
ATOM     22  H   UNL     1      33.950 -21.274 -19.377  0.00  0.00    +0.144 HD
ATOM     23  H   UNL     1      33.067 -20.417 -20.558  0.00  0.00    +0.144 HD
ENDBRANCH  12  19
ENDBRANCH  10  11
ENDBRANCH   5  10
BRANCH   6  24
ATOM     24  O   UNL     1      33.269 -12.082 -24.101  0.00  0.00    -0.426 OA
BRANCH  24  25
ATOM     25  C   UNL     1      33.881 -10.871 -23.996  0.00  0.00    +0.148 C 
ATOM     26  C   UNL     1      33.931  -8.621 -23.114  0.00  0.00    +0.034 C 
ATOM     27  C   UNL     1      33.305  -9.863 -23.221  0.00  0.00    +0.040 C 
ATOM     28  C   UNL     1      35.082 -10.635 -24.664  0.00  0.00    +0.038 C 
ATOM     29  C   UNL     1      35.132  -8.386 -23.783  0.00  0.00    +0.003 C 
ATOM     30  C   UNL     1      35.708  -9.393 -24.558  0.00  0.00    +0.003 C 
BRANCH  26  33
ATOM     31  N   UNL     1      32.676  -7.862 -21.111  0.00  0.00    -0.343 N 
ATOM     32  N   UNL     1      33.394  -6.314 -22.708  0.00  0.00    -0.285 NA
ATOM     33  C   UNL     1      33.330  -7.571 -22.307  0.00  0.00    +0.117 C 
ATOM     34  H   UNL     1      32.277  -7.136 -20.579  0.00  0.00    +0.144 HD
ATOM     35  H   UNL     1      32.615  -8.793 -20.796  0.00  0.00    +0.144 HD
ATOM     36  H   UNL     1      32.988  -5.603 -22.162  0.00  0.00    +0.188 HD
ENDBRANCH  26  33
ENDBRANCH  24  25
ENDBRANCH   6  24
TORSDOF 6
ENDMDL
MODEL 4
REMARK VINA RESULT:     -11.0     10.270     13.004
REMARK  Name = 4470378
REMARK  6 active torsions:
REMARK  status: ('A' for Active; 'I' for Inactive)
REMARK    1  A    between atoms: C_5  and  O_10
REMARK    2  A    between atoms: C_6  and  O_24
REMARK    3  A    between atoms: O_10  and  C_11
REMARK    4  A    between atoms: C_12  and  C_19
REMARK    5  A    between atoms: O_24  and  C_25
REMARK    6  A    between atoms: C_26  and  C_33
REMARK                            x       y       z     vdW  Elec       q    Type
REMARK                         _______ _______ _______ _____ _____    ______ ____
ROOT
ATOM      1  F   UNL     1      31.728 -11.950 -22.008  0.00  0.00    -0.221 F 
ATOM      2  F   UNL     1      34.088 -15.635 -20.152  0.00  0.00    -0.199 F 
ATOM      3  N   UNL     1      34.547 -13.851 -23.277  0.00  0.00    -0.331 NA
ATOM      4  C   UNL     1      32.876 -13.792 -21.037  0.00  0.00    +0.031 C 
ATOM      5  C   UNL     1      33.550 -12.945 -23.154  0.00  0.00    +0.298 C 
ATOM      6  C   UNL     1      34.679 -14.717 -22.256  0.00  0.00    +0.312 C 
ATOM      7  C   UNL     1      32.696 -12.874 -22.066  0.00  0.00    +0.270 C 
ATOM      8  C   UNL     1      33.890 -14.740 -21.127  0.00  0.00    +0.201 C 
ATOM      9  C   UNL     1      31.984 -13.762 -19.842  0.00  0.00    +0.032 C 
ENDROOT
BRANCH   5  10
ATOM     10  O   UNL     1      33.393 -12.053 -24.182  0.00  0.00    -0.428 OA
BRANCH  10  11
ATOM     11  C   UNL     1      33.942 -10.797 -24.021  0.00  0.00    +0.148 C 
ATOM     12  C   UNL     1      33.834  -8.591 -23.082  0.00  0.00    +0.032 C 
ATOM     13  C   UNL     1      33.279  -9.862 -23.243  0.00  0.00    +0.040 C 
ATOM     14  C   UNL     1      35.143 -10.497 -24.642  0.00  0.00    +0.038 C 
ATOM     15  C   UNL     1      35.043  -8.275 -23.701  0.00  0.00    +0.003 C 
ATOM     16  C   UNL     1      35.698  -9.228 -24.481  0.00  0.00    +0.003 C 
BRANCH  12  19
ATOM     17  N   UNL     1      33.310  -6.293 -22.526  0.00  0.00    -0.387 N 
ATOM     18  N   UNL     1      32.364  -7.983 -21.256  0.00  0.00    -0.345 N 
ATOM     19  C   UNL     1      33.156  -7.604 -22.273  0.00  0.00    +0.096 C 
ATOM     20  H   UNL     1      32.845  -5.626 -21.971  0.00  0.00    +0.157 HD
ATOM     21  H   UNL     1      33.888  -5.999 -23.267  0.00  0.00    +0.157 HD
ATOM     22  H   UNL     1      31.906  -7.304 -20.709  0.00  0.00    +0.144 HD
ATOM     23  H   UNL     1      32.242  -8.940 -21.057  0.00  0.00    +0.144 HD
ENDBRANCH  12  19
ENDBRANCH  10  11
ENDBRANCH   5  10
BRANCH   6  24
ATOM     24  O   UNL     1      35.695 -15.651 -22.372  0.00  0.00    -0.426 OA
BRANCH  24  25
ATOM     25  C   UNL     1      35.341 -16.949 -22.571  0.00  0.00    +0.148 C 
ATOM     26  C   UNL     1      34.971 -19.173 -21.702  0.00  0.00    +0.034 C 
ATOM     27  C   UNL     1      35.333 -17.842 -21.499  0.00  0.00    +0.040 C 
ATOM     28  C   UNL     1      34.988 -17.389 -23.847  0.00  0.00    +0.038 C 
ATOM     29  C   UNL     1      34.618 -19.613 -22.978  0.00  0.00    +0.003 C 
ATOM     30  C   UNL     1      34.627 -18.720 -24.050  0.00  0.00    +0.003 C 
BRANCH  26  33
ATOM     31  N   UNL     1      36.141 -20.474 -19.940  0.00  0.00    -0.343 N 
ATOM     32  N   UNL     1      33.820 -20.620 -20.166  0.00  0.00    -0.285 NA
ATOM     33  C   UNL     1      34.962 -20.104 -20.584  0.00  0.00    +0.117 C 
ATOM     34  H   UNL     1      36.113 -21.105 -19.186  0.00  0.00    +0.144 HD
ATOM     35  H   UNL     1      37.003 -20.103 -20.239  0.00  0.00    +0.144 HD
ATOM     36  H   UNL     1      33.813 -21.249 -19.409  0.00  0.00    +0.188 HD
ENDBRANCH  26  33
ENDBRANCH  24  25
ENDBRANCH   6  24
TORSDOF 6
ENDMDL
MODEL 5
REMARK VINA RESULT:     -10.8      2.712      7.830
REMARK  Name = 4470378
REMARK  6 active torsions:
REMARK  status: ('A' for Active; 'I' for Inactive)
REMARK    1  A    between atoms: C_5  and  O_10
REMARK    2  A    between atoms: C_6  and  O_24
REMARK    3  A    between atoms: O_10  and  C_11
REMARK    4  A    between atoms: C_12  and  C_19
REMARK    5  A    between atoms: O_24  and  C_25
REMARK    6  A    between atoms: C_26  and  C_33
REMARK                            x       y       z     vdW  Elec       q    Type
REMARK                         _______ _______ _______ _____ _____    ______ ____
ROOT
ATOM      1  F   UNL     1      33.501 -23.075 -13.393  0.00  0.00    -0.221 F 
ATOM      2  F   UNL     1      32.430 -23.356 -18.015  0.00  0.00    -0.199 F 
ATOM      3  N   UNL     1      35.599 -22.793 -16.340  0.00  0.00    -0.331 NA
ATOM      4  C   UNL     1      32.914 -23.223 -15.692  0.00  0.00    +0.031 C 
ATOM      5  C   UNL     1      35.173 -22.836 -15.057  0.00  0.00    +0.298 C 
ATOM      6  C   UNL     1      34.651 -22.970 -17.278  0.00  0.00    +0.312 C 
ATOM      7  C   UNL     1      33.855 -23.046 -14.684  0.00  0.00    +0.270 C 
ATOM      8  C   UNL     1      33.313 -23.186 -17.024  0.00  0.00    +0.201 C 
ATOM      9  C   UNL     1      31.481 -23.452 -15.347  0.00  0.00    +0.032 C 
ENDROOT
BRANCH   5  10
ATOM     10  O   UNL     1      36.119 -22.656 -14.083  0.00  0.00    -0.428 OA
BRANCH  10  11
ATOM     11  C   UNL     1      36.754 -23.782 -13.600  0.00  0.00    +0.148 C 
ATOM     12  C   UNL     1      38.584 -25.331 -13.690  0.00  0.00    +0.032 C 
ATOM     13  C   UNL     1      37.943 -24.192 -14.179  0.00  0.00    +0.040 C 
ATOM     14  C   UNL     1      36.187 -24.479 -12.545  0.00  0.00    +0.038 C 
ATOM     15  C   UNL     1      38.026 -26.044 -12.629  0.00  0.00    +0.003 C 
ATOM     16  C   UNL     1      36.827 -25.618 -12.056  0.00  0.00    +0.003 C 
BRANCH  12  19
ATOM     17  N   UNL     1      40.154 -25.403 -15.533  0.00  0.00    -0.387 N 
ATOM     18  N   UNL     1      40.668 -26.561 -13.594  0.00  0.00    -0.345 N 
ATOM     19  C   UNL     1      39.826 -25.773 -14.283  0.00  0.00    +0.096 C 
ATOM     20  H   UNL     1      41.001 -25.707 -15.930  0.00  0.00    +0.157 HD
ATOM     21  H   UNL     1      39.547 -24.826 -16.051  0.00  0.00    +0.157 HD
ATOM     22  H   UNL     1      41.512 -26.859 -14.005  0.00  0.00    +0.144 HD
ATOM     23  H   UNL     1      40.441 -26.842 -12.678  0.00  0.00    +0.144 HD
ENDBRANCH  12  19
ENDBRANCH  10  11
ENDBRANCH   5  10
BRANCH   6  24
ATOM     24  O   UNL     1      35.075 -22.927 -18.595  0.00  0.00    -0.426 OA
BRANCH  24  25
ATOM     25  C   UNL     1      34.822 -21.794 -19.304  0.00  0.00    +0.148 C 
ATOM     26  C   UNL     1      35.620 -19.853 -20.503  0.00  0.00    +0.034 C 
ATOM     27  C   UNL     1      35.879 -21.016 -19.777  0.00  0.00    +0.040 C 
ATOM     28  C   UNL     1      33.505 -21.408 -19.556  0.00  0.00    +0.038 C 
ATOM     29  C   UNL     1      34.303 -19.468 -20.755  0.00  0.00    +0.003 C 
ATOM     30  C   UNL     1      33.246 -20.246 -20.282  0.00  0.00    +0.003 C 
BRANCH  26  33
ATOM     31  N   UNL     1      36.779 -18.629 -22.326  0.00  0.00    -0.343 N 
ATOM     32  N   UNL     1      37.697 -18.689 -20.178  0.00  0.00    -0.285 NA
ATOM     33  C   UNL     1      36.722 -19.042 -20.996  0.00  0.00    +0.117 C 
ATOM     34  H   UNL     1      37.534 -18.081 -22.639  0.00  0.00    +0.144 HD
ATOM     35  H   UNL     1      36.064 -18.885 -22.952  0.00  0.00    +0.144 HD
ATOM     36  H   UNL     1      38.443 -18.141 -20.510  0.00  0.00    +0.188 HD
ENDBRANCH  26  33
ENDBRANCH  24  25
ENDBRANCH   6  24
TORSDOF 6
ENDMDL
MODEL 6
REMARK VINA RESULT:     -10.8      1.718      7.176
REMARK  Name = 4470378
REMARK  6 active torsions:
REMARK  status: ('A' for Active; 'I' for Inactive)
REMARK    1  A    between atoms: C_5  and  O_10
REMARK    2  A    between atoms: C_6  and  O_24
REMARK    3  A    between atoms: O_10  and  C_11
REMARK    4  A    between atoms: C_12  and  C_19
REMARK    5  A    between atoms: O_24  and  C_25
REMARK    6  A    between atoms: C_26  and  C_33
REMARK                            x       y       z     vdW  Elec       q    Type
REMARK                         _______ _______ _______ _____ _____    ______ ____
ROOT
ATOM      1  F   UNL     1      37.680 -20.753 -17.786  0.00  0.00    -0.221 F 
ATOM      2  F   UNL     1      33.629 -22.705 -19.327  0.00  0.00    -0.199 F 
ATOM      3  N   UNL     1      35.384 -23.052 -16.171  0.00  0.00    -0.331 NA
ATOM      4  C   UNL     1      35.660 -21.703 -18.604  0.00  0.00    +0.031 C 
ATOM      5  C   UNL     1      36.434 -22.236 -16.419  0.00  0.00    +0.298 C 
ATOM      6  C   UNL     1      34.488 -23.172 -17.166  0.00  0.00    +0.312 C 
ATOM      7  C   UNL     1      36.616 -21.545 -17.606  0.00  0.00    +0.270 C 
ATOM      8  C   UNL     1      34.566 -22.535 -18.386  0.00  0.00    +0.201 C 
ATOM      9  C   UNL     1      35.807 -20.985 -19.902  0.00  0.00    +0.032 C 
ENDROOT
BRANCH   5  10
ATOM     10  O   UNL     1      37.362 -22.099 -15.421  0.00  0.00    -0.428 OA
BRANCH  10  11
ATOM     11  C   UNL     1      37.541 -23.169 -14.569  0.00  0.00    +0.148 C 
ATOM     12  C   UNL     1      37.116 -24.238 -12.463  0.00  0.00    +0.032 C 
ATOM     13  C   UNL     1      36.933 -23.155 -13.324  0.00  0.00    +0.040 C 
ATOM     14  C   UNL     1      38.326 -24.236 -14.976  0.00  0.00    +0.038 C 
ATOM     15  C   UNL     1      37.903 -25.319 -12.859  0.00  0.00    +0.003 C 
ATOM     16  C   UNL     1      38.509 -25.318 -14.115  0.00  0.00    +0.003 C 
BRANCH  12  19
ATOM     17  N   UNL     1      36.969 -23.466 -10.171  0.00  0.00    -0.387 N 
ATOM     18  N   UNL     1      35.417 -25.014 -10.921  0.00  0.00    -0.345 N 
ATOM     19  C   UNL     1      36.488 -24.239 -11.161  0.00  0.00    +0.096 C 
ATOM     20  H   UNL     1      36.537 -23.473  -9.287  0.00  0.00    +0.157 HD
ATOM     21  H   UNL     1      37.754 -22.894 -10.332  0.00  0.00    +0.157 HD
ATOM     22  H   UNL     1      34.996 -25.010 -10.031  0.00  0.00    +0.144 HD
ATOM     23  H   UNL     1      35.054 -25.587 -11.635  0.00  0.00    +0.144 HD
ENDBRANCH  12  19
ENDBRANCH  10  11
ENDBRANCH   5  10
BRANCH   6  24
ATOM     24  O   UNL     1      33.409 -24.006 -16.924  0.00  0.00    -0.426 OA
BRANCH  24  25
ATOM     25  C   UNL     1      32.479 -23.592 -16.022  0.00  0.00    +0.148 C 
ATOM     26  C   UNL     1      30.208 -22.952 -15.502  0.00  0.00    +0.034 C 
ATOM     27  C   UNL     1      31.161 -23.378 -16.427  0.00  0.00    +0.040 C 
ATOM     28  C   UNL     1      32.843 -23.379 -14.692  0.00  0.00    +0.038 C 
ATOM     29  C   UNL     1      30.572 -22.739 -14.173  0.00  0.00    +0.003 C 
ATOM     30  C   UNL     1      31.890 -22.953 -13.768  0.00  0.00    +0.003 C 
BRANCH  26  33
ATOM     31  N   UNL     1      28.361 -23.222 -17.140  0.00  0.00    -0.343 N 
ATOM     32  N   UNL     1      28.010 -22.044 -15.152  0.00  0.00    -0.285 NA
ATOM     33  C   UNL     1      28.834 -22.730 -15.925  0.00  0.00    +0.117 C 
ATOM     34  H   UNL     1      27.428 -23.059 -17.407  0.00  0.00    +0.144 HD
ATOM     35  H   UNL     1      28.960 -23.732 -17.732  0.00  0.00    +0.144 HD
ATOM     36  H   UNL     1      27.080 -21.893 -15.437  0.00  0.00    +0.188 HD
ENDBRANCH  26  33
ENDBRANCH  24  25
ENDBRANCH   6  24
TORSDOF 6
ENDMDL
MODEL 7
REMARK VINA RESULT:     -10.8      0.362      7.837
REMARK  Name = 4470378
REMARK  6 active torsions:
REMARK  status: ('A' for Active; 'I' for Inactive)
REMARK    1  A    between atoms: C_5  and  O_10
REMARK    2  A    between atoms: C_6  and  O_24
REMARK    3  A    between atoms: O_10  and  C_11
REMARK    4  A    between atoms: C_12  and  C_19
REMARK    5  A    between atoms: O_24  and  C_25
REMARK    6  A    between atoms: C_26  and  C_33
REMARK                            x       y       z     vdW  Elec       q    Type
REMARK                         _______ _______ _______ _____ _____    ______ ____
ROOT
ATOM      1  F   UNL     1      37.669 -21.318 -16.456  0.00  0.00    -0.221 F 
ATOM      2  F   UNL     1      34.021 -22.721 -19.161  0.00  0.00    -0.199 F 
ATOM      3  N   UNL     1      34.665 -23.174 -15.619  0.00  0.00    -0.331 NA
ATOM      4  C   UNL     1      35.868 -21.997 -17.852  0.00  0.00    +0.031 C 
ATOM      5  C   UNL     1      35.854 -22.534 -15.535  0.00  0.00    +0.298 C 
ATOM      6  C   UNL     1      34.104 -23.206 -16.841  0.00  0.00    +0.312 C 
ATOM      7  C   UNL     1      36.491 -21.935 -16.609  0.00  0.00    +0.270 C 
ATOM      8  C   UNL     1      34.644 -22.647 -17.979  0.00  0.00    +0.201 C 
ATOM      9  C   UNL     1      36.510 -21.371 -19.043  0.00  0.00    +0.032 C 
ENDROOT
BRANCH   5  10
ATOM     10  O   UNL     1      36.447 -22.488 -14.301  0.00  0.00    -0.428 OA
BRANCH  10  11
ATOM     11  C   UNL     1      36.961 -23.666 -13.799  0.00  0.00    +0.148 C 
ATOM     12  C   UNL     1      38.675 -25.346 -13.795  0.00  0.00    +0.032 C 
ATOM     13  C   UNL     1      38.156 -24.153 -14.302  0.00  0.00    +0.040 C 
ATOM     14  C   UNL     1      36.270 -24.337 -12.803  0.00  0.00    +0.038 C 
ATOM     15  C   UNL     1      37.991 -26.033 -12.792  0.00  0.00    +0.003 C 
ATOM     16  C   UNL     1      36.788 -25.529 -12.296  0.00  0.00    +0.003 C 
BRANCH  12  19
ATOM     17  N   UNL     1      40.326 -25.563 -15.554  0.00  0.00    -0.387 N 
ATOM     18  N   UNL     1      40.689 -26.668 -13.550  0.00  0.00    -0.345 N 
ATOM     19  C   UNL     1      39.921 -25.868 -14.309  0.00  0.00    +0.096 C 
ATOM     20  H   UNL     1      41.176 -25.923 -15.897  0.00  0.00    +0.157 HD
ATOM     21  H   UNL     1      39.773 -24.979 -16.122  0.00  0.00    +0.157 HD
ATOM     22  H   UNL     1      41.536 -27.021 -13.908  0.00  0.00    +0.144 HD
ATOM     23  H   UNL     1      40.404 -26.902 -12.637  0.00  0.00    +0.144 HD
ENDBRANCH  12  19
ENDBRANCH  10  11
ENDBRANCH   5  10
BRANCH   6  24
ATOM     24  O   UNL     1      32.887 -23.860 -16.940  0.00  0.00    -0.426 OA
BRANCH  24  25
ATOM     25  C   UNL     1      31.889 -23.470 -16.101  0.00  0.00    +0.148 C 
ATOM     26  C   UNL     1      29.552 -23.002 -15.704  0.00  0.00    +0.034 C 
ATOM     27  C   UNL     1      30.575 -23.404 -16.564  0.00  0.00    +0.040 C 
ATOM     28  C   UNL     1      32.181 -23.134 -14.779  0.00  0.00    +0.038 C 
ATOM     29  C   UNL     1      29.844 -22.666 -14.382  0.00  0.00    +0.003 C 
ATOM     30  C   UNL     1      31.158 -22.732 -13.920  0.00  0.00    +0.003 C 
BRANCH  26  33
ATOM     31  N   UNL     1      27.169 -22.368 -15.414  0.00  0.00    -0.343 N 
ATOM     32  N   UNL     1      27.878 -23.417 -17.378  0.00  0.00    -0.285 NA
ATOM     33  C   UNL     1      28.182 -22.933 -16.187  0.00  0.00    +0.117 C 
ATOM     34  H   UNL     1      26.249 -22.331 -15.760  0.00  0.00    +0.144 HD
ATOM     35  H   UNL     1      27.375 -22.005 -14.522  0.00  0.00    +0.144 HD
ATOM     36  H   UNL     1      26.951 -23.371 -17.706  0.00  0.00    +0.188 HD
ENDBRANCH  26  33
ENDBRANCH  24  25
ENDBRANCH   6  24
TORSDOF 6
ENDMDL
MODEL 8
REMARK VINA RESULT:     -10.6      2.648      6.683
REMARK  Name = 4470378
REMARK  6 active torsions:
REMARK  status: ('A' for Active; 'I' for Inactive)
REMARK    1  A    between atoms: C_5  and  O_10
REMARK    2  A    between atoms: C_6  and  O_24
REMARK    3  A    between atoms: O_10  and  C_11
REMARK    4  A    between atoms: C_12  and  C_19
REMARK    5  A    between atoms: O_24  and  C_25
REMARK    6  A    between atoms: C_26  and  C_33
REMARK                            x       y       z     vdW  Elec       q    Type
REMARK                         _______ _______ _______ _____ _____    ______ ____
ROOT
ATOM      1  F   UNL     1      31.373 -23.196 -12.208  0.00  0.00    -0.221 F 
ATOM      2  F   UNL     1      30.940 -22.596 -16.903  0.00  0.00    -0.199 F 
ATOM      3  N   UNL     1      33.479 -24.299 -14.949  0.00  0.00    -0.331 NA
ATOM      4  C   UNL     1      31.111 -22.868 -14.548  0.00  0.00    +0.031 C 
ATOM      5  C   UNL     1      32.979 -24.079 -13.712  0.00  0.00    +0.298 C 
ATOM      6  C   UNL     1      32.765 -23.786 -15.968  0.00  0.00    +0.312 C 
ATOM      7  C   UNL     1      31.811 -23.378 -13.460  0.00  0.00    +0.270 C 
ATOM      8  C   UNL     1      31.593 -23.073 -15.837  0.00  0.00    +0.201 C 
ATOM      9  C   UNL     1      29.849 -22.104 -14.335  0.00  0.00    +0.032 C 
ENDROOT
BRANCH   5  10
ATOM     10  O   UNL     1      33.688 -24.590 -12.657  0.00  0.00    -0.428 OA
BRANCH  10  11
ATOM     11  C   UNL     1      35.055 -24.401 -12.659  0.00  0.00    +0.148 C 
ATOM     12  C   UNL     1      37.236 -25.042 -13.426  0.00  0.00    +0.032 C 
ATOM     13  C   UNL     1      35.854 -25.234 -13.425  0.00  0.00    +0.040 C 
ATOM     14  C   UNL     1      35.599 -23.382 -11.895  0.00  0.00    +0.038 C 
ATOM     15  C   UNL     1      37.799 -24.020 -12.662  0.00  0.00    +0.003 C 
ATOM     16  C   UNL     1      36.980 -23.190 -11.895  0.00  0.00    +0.003 C 
BRANCH  12  19
ATOM     17  N   UNL     1      37.961 -27.239 -14.145  0.00  0.00    -0.387 N 
ATOM     18  N   UNL     1      39.009 -25.378 -15.041  0.00  0.00    -0.345 N 
ATOM     19  C   UNL     1      38.084 -25.902 -14.220  0.00  0.00    +0.096 C 
ATOM     20  H   UNL     1      38.542 -27.818 -14.688  0.00  0.00    +0.157 HD
ATOM     21  H   UNL     1      37.288 -27.638 -13.546  0.00  0.00    +0.157 HD
ATOM     22  H   UNL     1      39.584 -25.970 -15.578  0.00  0.00    +0.144 HD
ATOM     23  H   UNL     1      39.113 -24.401 -15.106  0.00  0.00    +0.144 HD
ENDBRANCH  12  19
ENDBRANCH  10  11
ENDBRANCH   5  10
BRANCH   6  24
ATOM     24  O   UNL     1      33.269 -24.004 -17.239  0.00  0.00    -0.426 OA
BRANCH  24  25
ATOM     25  C   UNL     1      34.191 -23.123 -17.713  0.00  0.00    +0.148 C 
ATOM     26  C   UNL     1      36.282 -21.941 -17.453  0.00  0.00    +0.034 C 
ATOM     27  C   UNL     1      35.337 -22.844 -16.968  0.00  0.00    +0.040 C 
ATOM     28  C   UNL     1      33.991 -22.497 -18.944  0.00  0.00    +0.038 C 
ATOM     29  C   UNL     1      36.082 -21.314 -18.683  0.00  0.00    +0.003 C 
ATOM     30  C   UNL     1      34.936 -21.593 -19.429  0.00  0.00    +0.003 C 
BRANCH  26  33
ATOM     31  N   UNL     1      37.957 -20.348 -16.545  0.00  0.00    -0.343 N 
ATOM     32  N   UNL     1      38.130 -22.632 -16.081  0.00  0.00    -0.285 NA
ATOM     33  C   UNL     1      37.477 -21.650 -16.675  0.00  0.00    +0.117 C 
ATOM     34  H   UNL     1      38.767 -20.174 -16.015  0.00  0.00    +0.144 HD
ATOM     35  H   UNL     1      37.486 -19.603 -16.983  0.00  0.00    +0.144 HD
ATOM     36  H   UNL     1      38.939 -22.437 -15.555  0.00  0.00    +0.188 HD
ENDBRANCH  26  33
ENDBRANCH  24  25
ENDBRANCH   6  24
TORSDOF 6
ENDMDL
MODEL 9
REMARK VINA RESULT:     -10.5      2.684      6.988
REMARK  Name = 4470378
REMARK  6 active torsions:
REMARK  status: ('A' for Active; 'I' for Inactive)
REMARK    1  A    between atoms: C_5  and  O_10
REMARK    2  A    between atoms: C_6  and  O_24
REMARK    3  A    between atoms: O_10  and  C_11
REMARK    4  A    between atoms: C_12  and  C_19
REMARK    5  A    between atoms: O_24  and  C_25
REMARK    6  A    between atoms: C_26  and  C_33
REMARK                            x       y       z     vdW  Elec       q    Type
REMARK                         _______ _______ _______ _____ _____    ______ ____
ROOT
ATOM      1  F   UNL     1      38.081 -24.727 -14.927  0.00  0.00    -0.221 F 
ATOM      2  F   UNL     1      34.794 -25.147 -11.520  0.00  0.00    -0.199 F 
ATOM      3  N   UNL     1      34.849 -23.125 -14.531  0.00  0.00    -0.331 NA
ATOM      4  C   UNL     1      36.469 -24.972 -13.197  0.00  0.00    +0.031 C 
ATOM      5  C   UNL     1      36.057 -23.495 -15.015  0.00  0.00    +0.298 C 
ATOM      6  C   UNL     1      34.482 -23.701 -13.373  0.00  0.00    +0.312 C 
ATOM      7  C   UNL     1      36.896 -24.405 -14.393  0.00  0.00    +0.270 C 
ATOM      8  C   UNL     1      35.233 -24.617 -12.668  0.00  0.00    +0.201 C 
ATOM      9  C   UNL     1      37.333 -25.957 -12.485  0.00  0.00    +0.032 C 
ENDROOT
BRANCH   5  10
ATOM     10  O   UNL     1      36.455 -22.921 -16.193  0.00  0.00    -0.428 OA
BRANCH  10  11
ATOM     11  C   UNL     1      35.471 -22.586 -17.101  0.00  0.00    +0.148 C 
ATOM     12  C   UNL     1      34.787 -21.411 -19.078  0.00  0.00    +0.032 C 
ATOM     13  C   UNL     1      35.783 -21.751 -18.161  0.00  0.00    +0.040 C 
ATOM     14  C   UNL     1      34.192 -23.090 -16.931  0.00  0.00    +0.038 C 
ATOM     15  C   UNL     1      33.495 -21.911 -18.921  0.00  0.00    +0.003 C 
ATOM     16  C   UNL     1      33.197 -22.750 -17.847  0.00  0.00    +0.003 C 
BRANCH  12  19
ATOM     17  N   UNL     1      36.352 -20.110 -20.390  0.00  0.00    -0.387 N 
ATOM     18  N   UNL     1      34.129 -20.151 -21.039  0.00  0.00    -0.345 N 
ATOM     19  C   UNL     1      35.095 -20.542 -20.191  0.00  0.00    +0.096 C 
ATOM     20  H   UNL     1      36.554 -19.517 -21.150  0.00  0.00    +0.157 HD
ATOM     21  H   UNL     1      37.072 -20.386 -19.777  0.00  0.00    +0.157 HD
ATOM     22  H   UNL     1      34.346 -19.558 -21.794  0.00  0.00    +0.144 HD
ATOM     23  H   UNL     1      33.203 -20.458 -20.905  0.00  0.00    +0.144 HD
ENDBRANCH  12  19
ENDBRANCH  10  11
ENDBRANCH   5  10
BRANCH   6  24
ATOM     24  O   UNL     1      33.247 -23.328 -12.867  0.00  0.00    -0.426 OA
BRANCH  24  25
ATOM     25  C   UNL     1      32.138 -23.841 -13.465  0.00  0.00    +0.148 C 
ATOM     26  C   UNL     1      30.144 -23.530 -14.793  0.00  0.00    +0.034 C 
ATOM     27  C   UNL     1      31.281 -23.005 -14.181  0.00  0.00    +0.040 C 
ATOM     28  C   UNL     1      31.856 -25.203 -13.361  0.00  0.00    +0.038 C 
ATOM     29  C   UNL     1      29.861 -24.892 -14.689  0.00  0.00    +0.003 C 
ATOM     30  C   UNL     1      30.718 -25.729 -13.973  0.00  0.00    +0.003 C 
BRANCH  26  33
ATOM     31  N   UNL     1      27.990 -22.322 -15.050  0.00  0.00    -0.343 N 
ATOM     32  N   UNL     1      29.629 -22.172 -16.709  0.00  0.00    -0.285 NA
ATOM     33  C   UNL     1      29.251 -22.657 -15.540  0.00  0.00    +0.117 C 
ATOM     34  H   UNL     1      27.401 -21.729 -15.571  0.00  0.00    +0.144 HD
ATOM     35  H   UNL     1      27.688 -22.675 -14.182  0.00  0.00    +0.144 HD
ATOM     36  H   UNL     1      29.026 -21.582 -17.214  0.00  0.00    +0.188 HD
ENDBRANCH  26  33
ENDBRANCH  24  25
ENDBRANCH   6  24
TORSDOF 6
ENDMDL
