MODEL 1
REMARK VINA RESULT:     -11.6      0.000      0.000
REMARK  Name = 70798655
REMARK  2 active torsions:
REMARK  status: ('A' for Active; 'I' for Inactive)
REMARK    1  A    between atoms: C_3  and  C_29
REMARK    2  A    between atoms: C_5  and  C_13
REMARK                            x       y       z     vdW  Elec       q    Type
REMARK                         _______ _______ _______ _____ _____    ______ ____
ROOT
ATOM      1  N   UNL     1      33.957 -23.761 -14.656  0.00  0.00    -0.245 N 
ATOM      2  N   UNL     1      32.363 -24.732 -13.425  0.00  0.00    -0.227 NA
ATOM      3  C   UNL     1      34.560 -24.178 -13.497  0.00  0.00    +0.130 C 
ATOM      4  C   UNL     1      32.618 -24.123 -14.565  0.00  0.00    +0.139 C 
ATOM      5  C   UNL     1      33.725 -22.781 -16.803  0.00  0.00    +0.012 C 
ATOM      6  C   UNL     1      34.510 -23.103 -15.752  0.00  0.00    +0.071 C 
ATOM      7  C   UNL     1      33.562 -24.769 -12.759  0.00  0.00    +0.120 C 
ATOM      8  C   UNL     1      31.784 -23.790 -15.668  0.00  0.00    +0.035 C 
ATOM      9  C   UNL     1      32.308 -23.153 -16.733  0.00  0.00    +0.004 C 
ENDROOT
BRANCH   5  13
ATOM     10  O   UNL     1      35.783 -20.131 -21.232  0.00  0.00    -0.414 OA
ATOM     11  N   UNL     1      33.524 -20.131 -21.045  0.00  0.00    -0.356 NA
ATOM     12  N   UNL     1      34.622 -19.040 -22.888  0.00  0.00    -0.302 N 
ATOM     13  C   UNL     1      34.320 -22.090 -17.964  0.00  0.00    -0.014 C 
ATOM     14  C   UNL     1      33.478 -21.465 -18.896  0.00  0.00    +0.089 C 
ATOM     15  C   UNL     1      35.713 -22.068 -18.114  0.00  0.00    -0.001 C 
ATOM     16  C   UNL     1      34.072 -20.816 -19.988  0.00  0.00    +0.152 C 
ATOM     17  C   UNL     1      35.455 -20.819 -20.100  0.00  0.00    +0.175 C 
ATOM     18  C   UNL     1      36.320 -21.425 -19.198  0.00  0.00    +0.040 C 
ATOM     19  C   UNL     1      34.576 -19.753 -21.739  0.00  0.00    +0.341 C 
ATOM     20  H   UNL     1      35.490 -18.828 -23.301  0.00  0.00    +0.148 HD
ATOM     21  H   UNL     1      33.787 -18.734 -23.310  0.00  0.00    +0.148 HD
ENDBRANCH   5  13
BRANCH   3  29
ATOM     22  O   UNL     1      38.707 -26.978 -14.214  0.00  0.00    -0.350 OA
ATOM     23  O   UNL     1      36.239 -23.116 -12.345  0.00  0.00    -0.268 OA
ATOM     24  N   UNL     1      36.909 -24.860 -13.747  0.00  0.00    -0.270 N 
ATOM     25  C   UNL     1      38.329 -24.719 -13.432  0.00  0.00    +0.126 C 
ATOM     26  C   UNL     1      36.611 -25.880 -14.760  0.00  0.00    +0.126 C 
ATOM     27  C   UNL     1      37.306 -27.190 -14.409  0.00  0.00    +0.164 C 
ATOM     28  C   UNL     1      38.943 -26.078 -13.128  0.00  0.00    +0.164 C 
ATOM     29  C   UNL     1      35.977 -24.011 -13.147  0.00  0.00    +0.265 C 
ENDBRANCH   3  29
TORSDOF 2
ENDMDL
MODEL 2
REMARK VINA RESULT:     -10.7      1.201      1.870
REMARK  Name = 70798655
REMARK  2 active torsions:
REMARK  status: ('A' for Active; 'I' for Inactive)
REMARK    1  A    between atoms: C_3  and  C_29
REMARK    2  A    between atoms: C_5  and  C_13
REMARK                            x       y       z     vdW  Elec       q    Type
REMARK                         _______ _______ _______ _____ _____    ______ ____
ROOT
ATOM      1  N   UNL     1      33.652 -24.012 -15.227  0.00  0.00    -0.245 N 
ATOM      2  N   UNL     1      31.933 -24.662 -13.953  0.00  0.00    -0.227 NA
ATOM      3  C   UNL     1      34.179 -24.796 -14.233  0.00  0.00    +0.130 C 
ATOM      4  C   UNL     1      32.280 -23.961 -15.013  0.00  0.00    +0.139 C 
ATOM      5  C   UNL     1      33.578 -22.632 -17.154  0.00  0.00    +0.012 C 
ATOM      6  C   UNL     1      34.298 -23.363 -16.276  0.00  0.00    +0.071 C 
ATOM      7  C   UNL     1      33.106 -25.181 -13.465  0.00  0.00    +0.120 C 
ATOM      8  C   UNL     1      31.512 -23.196 -15.934  0.00  0.00    +0.035 C 
ATOM      9  C   UNL     1      32.127 -22.564 -16.953  0.00  0.00    +0.004 C 
ENDROOT
BRANCH   5  13
ATOM     10  O   UNL     1      36.005 -20.016 -21.413  0.00  0.00    -0.414 OA
ATOM     11  N   UNL     1      33.745 -19.870 -21.325  0.00  0.00    -0.356 NA
ATOM     12  N   UNL     1      34.995 -18.809 -23.087  0.00  0.00    -0.302 N 
ATOM     13  C   UNL     1      34.269 -21.954 -18.268  0.00  0.00    -0.014 C 
ATOM     14  C   UNL     1      33.514 -21.251 -19.218  0.00  0.00    +0.089 C 
ATOM     15  C   UNL     1      35.666 -22.022 -18.356  0.00  0.00    -0.001 C 
ATOM     16  C   UNL     1      34.198 -20.616 -20.265  0.00  0.00    +0.152 C 
ATOM     17  C   UNL     1      35.581 -20.709 -20.316  0.00  0.00    +0.175 C 
ATOM     18  C   UNL     1      36.363 -21.393 -19.394  0.00  0.00    +0.040 C 
ATOM     19  C   UNL     1      34.850 -19.546 -21.961  0.00  0.00    +0.341 C 
ATOM     20  H   UNL     1      35.893 -18.645 -23.455  0.00  0.00    +0.148 HD
ATOM     21  H   UNL     1      34.202 -18.438 -23.537  0.00  0.00    +0.148 HD
ENDBRANCH   5  13
BRANCH   3  29
ATOM     22  O   UNL     1      37.511 -24.085 -10.498  0.00  0.00    -0.350 OA
ATOM     23  O   UNL     1      36.205 -25.491 -15.061  0.00  0.00    -0.268 OA
ATOM     24  N   UNL     1      36.142 -25.032 -12.772  0.00  0.00    -0.270 N 
ATOM     25  C   UNL     1      37.548 -25.367 -12.550  0.00  0.00    +0.126 C 
ATOM     26  C   UNL     1      35.405 -24.677 -11.552  0.00  0.00    +0.126 C 
ATOM     27  C   UNL     1      36.178 -23.634 -10.754  0.00  0.00    +0.164 C 
ATOM     28  C   UNL     1      38.226 -24.288 -11.720  0.00  0.00    +0.164 C 
ATOM     29  C   UNL     1      35.598 -25.133 -14.053  0.00  0.00    +0.265 C 
ENDBRANCH   3  29
TORSDOF 2
ENDMDL
MODEL 3
REMARK VINA RESULT:     -10.6      5.204     11.248
REMARK  Name = 70798655
REMARK  2 active torsions:
REMARK  status: ('A' for Active; 'I' for Inactive)
REMARK    1  A    between atoms: C_3  and  C_29
REMARK    2  A    between atoms: C_5  and  C_13
REMARK                            x       y       z     vdW  Elec       q    Type
REMARK                         _______ _______ _______ _____ _____    ______ ____
ROOT
ATOM      1  N   UNL     1      34.291 -15.718 -22.427  0.00  0.00    -0.245 N 
ATOM      2  N   UNL     1      34.343 -14.570 -24.345  0.00  0.00    -0.227 NA
ATOM      3  C   UNL     1      33.849 -14.453 -22.135  0.00  0.00    +0.130 C 
ATOM      4  C   UNL     1      34.579 -15.739 -23.786  0.00  0.00    +0.139 C 
ATOM      5  C   UNL     1      34.904 -17.983 -22.084  0.00  0.00    +0.012 C 
ATOM      6  C   UNL     1      34.447 -16.815 -21.583  0.00  0.00    +0.071 C 
ATOM      7  C   UNL     1      33.891 -13.769 -23.327  0.00  0.00    +0.120 C 
ATOM      8  C   UNL     1      35.059 -16.966 -24.324  0.00  0.00    +0.035 C 
ATOM      9  C   UNL     1      35.213 -18.034 -23.517  0.00  0.00    +0.004 C 
ENDROOT
BRANCH   5  13
ATOM     10  O   UNL     1      35.295 -22.378 -18.708  0.00  0.00    -0.414 OA
ATOM     11  N   UNL     1      33.198 -21.825 -19.367  0.00  0.00    -0.356 NA
ATOM     12  N   UNL     1      33.593 -23.696 -17.906  0.00  0.00    -0.302 N 
ATOM     13  C   UNL     1      35.059 -19.144 -21.186  0.00  0.00    -0.014 C 
ATOM     14  C   UNL     1      33.921 -19.854 -20.779  0.00  0.00    +0.089 C 
ATOM     15  C   UNL     1      36.340 -19.516 -20.757  0.00  0.00    -0.001 C 
ATOM     16  C   UNL     1      34.100 -20.953 -19.926  0.00  0.00    +0.152 C 
ATOM     17  C   UNL     1      35.385 -21.287 -19.524  0.00  0.00    +0.175 C 
ATOM     18  C   UNL     1      36.535 -20.609 -19.906  0.00  0.00    +0.040 C 
ATOM     19  C   UNL     1      33.959 -22.638 -18.665  0.00  0.00    +0.341 C 
ATOM     20  H   UNL     1      34.277 -24.220 -17.430  0.00  0.00    +0.148 HD
ATOM     21  H   UNL     1      32.643 -23.941 -17.829  0.00  0.00    +0.148 HD
ENDBRANCH   5  13
BRANCH   3  29
ATOM     22  O   UNL     1      31.314 -10.378 -20.547  0.00  0.00    -0.350 OA
ATOM     23  O   UNL     1      33.934 -14.518 -19.841  0.00  0.00    -0.268 OA
ATOM     24  N   UNL     1      32.494 -12.927 -20.764  0.00  0.00    -0.270 N 
ATOM     25  C   UNL     1      32.043 -12.418 -19.470  0.00  0.00    +0.126 C 
ATOM     26  C   UNL     1      31.831 -12.312 -21.921  0.00  0.00    +0.126 C 
ATOM     27  C   UNL     1      31.863 -10.794 -21.800  0.00  0.00    +0.164 C 
ATOM     28  C   UNL     1      32.078 -10.897 -19.456  0.00  0.00    +0.164 C 
ATOM     29  C   UNL     1      33.428 -13.963 -20.815  0.00  0.00    +0.265 C 
ENDBRANCH   3  29
TORSDOF 2
ENDMDL
MODEL 4
REMARK VINA RESULT:     -10.1      3.027      5.324
REMARK  Name = 70798655
REMARK  2 active torsions:
REMARK  status: ('A' for Active; 'I' for Inactive)
REMARK    1  A    between atoms: C_3  and  C_29
REMARK    2  A    between atoms: C_5  and  C_13
REMARK                            x       y       z     vdW  Elec       q    Type
REMARK                         _______ _______ _______ _____ _____    ______ ____
ROOT
ATOM      1  N   UNL     1      35.824 -22.757 -16.070  0.00  0.00    -0.245 N 
ATOM      2  N   UNL     1      37.460 -22.194 -17.486  0.00  0.00    -0.227 NA
ATOM      3  C   UNL     1      36.998 -22.851 -15.366  0.00  0.00    +0.130 C 
ATOM      4  C   UNL     1      36.159 -22.353 -17.357  0.00  0.00    +0.139 C 
ATOM      5  C   UNL     1      33.497 -22.847 -16.517  0.00  0.00    +0.012 C 
ATOM      6  C   UNL     1      34.520 -23.002 -15.649  0.00  0.00    +0.071 C 
ATOM      7  C   UNL     1      37.985 -22.502 -16.256  0.00  0.00    +0.120 C 
ATOM      8  C   UNL     1      35.089 -22.186 -18.279  0.00  0.00    +0.035 C 
ATOM      9  C   UNL     1      33.823 -22.419 -17.882  0.00  0.00    +0.004 C 
ENDROOT
BRANCH   5  13
ATOM     10  O   UNL     1      28.236 -23.665 -14.927  0.00  0.00    -0.414 OA
ATOM     11  N   UNL     1      28.549 -22.089 -16.525  0.00  0.00    -0.356 NA
ATOM     12  N   UNL     1      26.350 -22.601 -15.694  0.00  0.00    -0.302 N 
ATOM     13  C   UNL     1      32.117 -23.101 -16.061  0.00  0.00    -0.014 C 
ATOM     14  C   UNL     1      31.062 -22.368 -16.626  0.00  0.00    +0.089 C 
ATOM     15  C   UNL     1      31.883 -24.067 -15.074  0.00  0.00    -0.001 C 
ATOM     16  C   UNL     1      29.761 -22.631 -16.173  0.00  0.00    +0.152 C 
ATOM     17  C   UNL     1      29.574 -23.596 -15.194  0.00  0.00    +0.175 C 
ATOM     18  C   UNL     1      30.591 -24.341 -14.612  0.00  0.00    +0.040 C 
ATOM     19  C   UNL     1      27.695 -22.735 -15.762  0.00  0.00    +0.341 C 
ATOM     20  H   UNL     1      25.831 -23.157 -15.068  0.00  0.00    +0.148 HD
ATOM     21  H   UNL     1      25.891 -21.948 -16.269  0.00  0.00    +0.148 HD
ENDBRANCH   5  13
BRANCH   3  29
ATOM     22  O   UNL     1      37.465 -27.290 -12.995  0.00  0.00    -0.350 OA
ATOM     23  O   UNL     1      36.903 -22.374 -13.121  0.00  0.00    -0.268 OA
ATOM     24  N   UNL     1      37.522 -24.557 -13.676  0.00  0.00    -0.270 N 
ATOM     25  C   UNL     1      37.679 -24.986 -12.287  0.00  0.00    +0.126 C 
ATOM     26  C   UNL     1      37.873 -25.580 -14.669  0.00  0.00    +0.126 C 
ATOM     27  C   UNL     1      37.178 -26.895 -14.339  0.00  0.00    +0.164 C 
ATOM     28  C   UNL     1      36.983 -26.320 -12.062  0.00  0.00    +0.164 C 
ATOM     29  C   UNL     1      37.136 -23.246 -13.958  0.00  0.00    +0.265 C 
ENDBRANCH   3  29
TORSDOF 2
ENDMDL
MODEL 5
REMARK VINA RESULT:      -9.6      3.000      5.301
REMARK  Name = 70798655
REMARK  2 active torsions:
REMARK  status: ('A' for Active; 'I' for Inactive)
REMARK    1  A    between atoms: C_3  and  C_29
REMARK    2  A    between atoms: C_5  and  C_13
REMARK                            x       y       z     vdW  Elec       q    Type
REMARK                         _______ _______ _______ _____ _____    ______ ____
ROOT
ATOM      1  N   UNL     1      32.426 -23.671 -14.576  0.00  0.00    -0.245 N 
ATOM      2  N   UNL     1      32.545 -25.102 -12.862  0.00  0.00    -0.227 NA
ATOM      3  C   UNL     1      31.218 -23.604 -13.929  0.00  0.00    +0.130 C 
ATOM      4  C   UNL     1      33.200 -24.597 -13.887  0.00  0.00    +0.139 C 
ATOM      5  C   UNL     1      34.107 -23.199 -16.181  0.00  0.00    +0.012 C 
ATOM      6  C   UNL     1      32.863 -22.979 -15.703  0.00  0.00    +0.071 C 
ATOM      7  C   UNL     1      31.317 -24.491 -12.883  0.00  0.00    +0.120 C 
ATOM      8  C   UNL     1      34.513 -24.834 -14.382  0.00  0.00    +0.035 C 
ATOM      9  C   UNL     1      34.946 -24.171 -15.472  0.00  0.00    +0.004 C 
ENDROOT
BRANCH   5  13
ATOM     10  O   UNL     1      35.648 -20.379 -20.714  0.00  0.00    -0.414 OA
ATOM     11  N   UNL     1      33.415 -20.646 -20.431  0.00  0.00    -0.356 NA
ATOM     12  N   UNL     1      34.297 -19.455 -22.326  0.00  0.00    -0.302 N 
ATOM     13  C   UNL     1      34.565 -22.457 -17.371  0.00  0.00    -0.014 C 
ATOM     14  C   UNL     1      33.618 -21.949 -18.272  0.00  0.00    +0.089 C 
ATOM     15  C   UNL     1      35.939 -22.271 -17.580  0.00  0.00    -0.001 C 
ATOM     16  C   UNL     1      34.084 -21.248 -19.393  0.00  0.00    +0.152 C 
ATOM     17  C   UNL     1      35.451 -21.087 -19.563  0.00  0.00    +0.175 C 
ATOM     18  C   UNL     1      36.419 -21.574 -18.694  0.00  0.00    +0.040 C 
ATOM     19  C   UNL     1      34.384 -20.154 -21.171  0.00  0.00    +0.341 C 
ATOM     20  H   UNL     1      35.116 -19.146 -22.778  0.00  0.00    +0.148 HD
ATOM     21  H   UNL     1      33.416 -19.256 -22.715  0.00  0.00    +0.148 HD
ENDBRANCH   5  13
BRANCH   3  29
ATOM     22  O   UNL     1      27.447 -24.054 -17.264  0.00  0.00    -0.350 OA
ATOM     23  O   UNL     1      30.104 -21.597 -13.887  0.00  0.00    -0.268 OA
ATOM     24  N   UNL     1      29.065 -23.316 -15.079  0.00  0.00    -0.270 N 
ATOM     25  C   UNL     1      27.910 -22.506 -15.463  0.00  0.00    +0.126 C 
ATOM     26  C   UNL     1      28.994 -24.717 -15.514  0.00  0.00    +0.126 C 
ATOM     27  C   UNL     1      28.642 -24.791 -16.995  0.00  0.00    +0.164 C 
ATOM     28  C   UNL     1      27.617 -22.670 -16.947  0.00  0.00    +0.164 C 
ATOM     29  C   UNL     1      30.079 -22.755 -14.301  0.00  0.00    +0.265 C 
ENDBRANCH   3  29
TORSDOF 2
ENDMDL
MODEL 6
REMARK VINA RESULT:      -9.4      2.936      4.857
REMARK  Name = 70798655
REMARK  2 active torsions:
REMARK  status: ('A' for Active; 'I' for Inactive)
REMARK    1  A    between atoms: C_3  and  C_29
REMARK    2  A    between atoms: C_5  and  C_13
REMARK                            x       y       z     vdW  Elec       q    Type
REMARK                         _______ _______ _______ _____ _____    ______ ____
ROOT
ATOM      1  N   UNL     1      34.783 -22.784 -16.605  0.00  0.00    -0.245 N 
ATOM      2  N   UNL     1      35.510 -23.916 -14.818  0.00  0.00    -0.227 NA
ATOM      3  C   UNL     1      33.672 -23.324 -16.008  0.00  0.00    +0.130 C 
ATOM      4  C   UNL     1      35.878 -23.173 -15.842  0.00  0.00    +0.139 C 
ATOM      5  C   UNL     1      36.085 -21.563 -18.166  0.00  0.00    +0.012 C 
ATOM      6  C   UNL     1      34.875 -21.993 -17.747  0.00  0.00    +0.071 C 
ATOM      7  C   UNL     1      34.144 -24.014 -14.917  0.00  0.00    +0.120 C 
ATOM      8  C   UNL     1      37.156 -22.723 -16.273  0.00  0.00    +0.035 C 
ATOM      9  C   UNL     1      37.258 -21.957 -17.377  0.00  0.00    +0.004 C 
ENDROOT
BRANCH   5  13
ATOM     10  O   UNL     1      36.241 -18.440 -22.759  0.00  0.00    -0.414 OA
ATOM     11  N   UNL     1      34.326 -19.607 -22.424  0.00  0.00    -0.356 NA
ATOM     12  N   UNL     1      34.603 -18.192 -24.351  0.00  0.00    -0.302 N 
ATOM     13  C   UNL     1      36.175 -20.719 -19.373  0.00  0.00    -0.014 C 
ATOM     14  C   UNL     1      35.087 -20.668 -20.257  0.00  0.00    +0.089 C 
ATOM     15  C   UNL     1      37.342 -19.983 -19.614  0.00  0.00    -0.001 C 
ATOM     16  C   UNL     1      35.201 -19.857 -21.396  0.00  0.00    +0.152 C 
ATOM     17  C   UNL     1      36.375 -19.145 -21.597  0.00  0.00    +0.175 C 
ATOM     18  C   UNL     1      37.471 -19.169 -20.745  0.00  0.00    +0.040 C 
ATOM     19  C   UNL     1      34.991 -18.770 -23.191  0.00  0.00    +0.341 C 
ATOM     20  H   UNL     1      35.211 -17.578 -24.823  0.00  0.00    +0.148 HD
ATOM     21  H   UNL     1      33.712 -18.384 -24.722  0.00  0.00    +0.148 HD
ENDBRANCH   5  13
BRANCH   3  29
ATOM     22  O   UNL     1      29.218 -24.987 -14.293  0.00  0.00    -0.350 OA
ATOM     23  O   UNL     1      32.128 -22.734 -17.603  0.00  0.00    -0.268 OA
ATOM     24  N   UNL     1      31.260 -23.544 -15.591  0.00  0.00    -0.270 N 
ATOM     25  C   UNL     1      29.865 -23.406 -16.007  0.00  0.00    +0.126 C 
ATOM     26  C   UNL     1      31.437 -24.006 -14.209  0.00  0.00    +0.126 C 
ATOM     27  C   UNL     1      30.583 -25.242 -13.953  0.00  0.00    +0.164 C 
ATOM     28  C   UNL     1      29.087 -24.672 -15.682  0.00  0.00    +0.164 C 
ATOM     29  C   UNL     1      32.284 -23.179 -16.467  0.00  0.00    +0.265 C 
ENDBRANCH   3  29
TORSDOF 2
ENDMDL
MODEL 7
REMARK VINA RESULT:      -9.2      9.830     15.577
REMARK  Name = 70798655
REMARK  2 active torsions:
REMARK  status: ('A' for Active; 'I' for Inactive)
REMARK    1  A    between atoms: C_3  and  C_29
REMARK    2  A    between atoms: C_5  and  C_13
REMARK                            x       y       z     vdW  Elec       q    Type
REMARK                         _______ _______ _______ _____ _____    ______ ____
ROOT
ATOM      1  N   UNL     1      32.708  -9.934 -22.015  0.00  0.00    -0.245 N 
ATOM      2  N   UNL     1      31.422  -8.671 -20.692  0.00  0.00    -0.227 NA
ATOM      3  C   UNL     1      33.024  -8.629 -22.297  0.00  0.00    +0.130 C 
ATOM      4  C   UNL     1      31.728  -9.907 -21.030  0.00  0.00    +0.139 C 
ATOM      5  C   UNL     1      32.765 -12.302 -22.137  0.00  0.00    +0.012 C 
ATOM      6  C   UNL     1      33.224 -11.105 -22.564  0.00  0.00    +0.071 C 
ATOM      7  C   UNL     1      32.222  -7.875 -21.473  0.00  0.00    +0.120 C 
ATOM      8  C   UNL     1      31.239 -11.162 -20.572  0.00  0.00    +0.035 C 
ATOM      9  C   UNL     1      31.731 -12.302 -21.096  0.00  0.00    +0.004 C 
ENDROOT
BRANCH   5  13
ATOM     10  O   UNL     1      34.914 -17.016 -24.143  0.00  0.00    -0.414 OA
ATOM     11  N   UNL     1      35.083 -16.732 -21.901  0.00  0.00    -0.356 NA
ATOM     12  N   UNL     1      35.947 -18.704 -22.975  0.00  0.00    -0.302 N 
ATOM     13  C   UNL     1      33.321 -13.539 -22.717  0.00  0.00    -0.014 C 
ATOM     14  C   UNL     1      33.926 -14.482 -21.873  0.00  0.00    +0.089 C 
ATOM     15  C   UNL     1      33.236 -13.751 -24.100  0.00  0.00    -0.001 C 
ATOM     16  C   UNL     1      34.445 -15.649 -22.454  0.00  0.00    +0.152 C 
ATOM     17  C   UNL     1      34.341 -15.818 -23.827  0.00  0.00    +0.175 C 
ATOM     18  C   UNL     1      33.749 -14.909 -24.694  0.00  0.00    +0.040 C 
ATOM     19  C   UNL     1      35.331 -17.500 -22.940  0.00  0.00    +0.341 C 
ATOM     20  H   UNL     1      36.067 -19.170 -23.834  0.00  0.00    +0.148 HD
ATOM     21  H   UNL     1      36.275 -19.113 -22.143  0.00  0.00    +0.148 HD
ENDBRANCH   5  13
BRANCH   3  29
ATOM     22  O   UNL     1      33.450  -4.499 -25.179  0.00  0.00    -0.350 OA
ATOM     23  O   UNL     1      34.831  -9.004 -23.663  0.00  0.00    -0.268 OA
ATOM     24  N   UNL     1      33.963  -6.836 -23.691  0.00  0.00    -0.270 N 
ATOM     25  C   UNL     1      34.937  -6.337 -24.660  0.00  0.00    +0.126 C 
ATOM     26  C   UNL     1      33.038  -5.815 -23.181  0.00  0.00    +0.126 C 
ATOM     27  C   UNL     1      32.426  -5.034 -24.336  0.00  0.00    +0.164 C 
ATOM     28  C   UNL     1      34.238  -5.544 -25.755  0.00  0.00    +0.164 C 
ATOM     29  C   UNL     1      34.014  -8.169 -23.279  0.00  0.00    +0.265 C 
ENDBRANCH   3  29
TORSDOF 2
ENDMDL
MODEL 8
REMARK VINA RESULT:      -9.0      3.451      7.683
REMARK  Name = 70798655
REMARK  2 active torsions:
REMARK  status: ('A' for Active; 'I' for Inactive)
REMARK    1  A    between atoms: C_3  and  C_29
REMARK    2  A    between atoms: C_5  and  C_13
REMARK                            x       y       z     vdW  Elec       q    Type
REMARK                         _______ _______ _______ _____ _____    ______ ____
ROOT
ATOM      1  N   UNL     1      34.817 -22.312 -17.460  0.00  0.00    -0.245 N 
ATOM      2  N   UNL     1      37.025 -22.449 -17.134  0.00  0.00    -0.227 NA
ATOM      3  C   UNL     1      35.408 -21.728 -18.551  0.00  0.00    +0.130 C 
ATOM      4  C   UNL     1      35.844 -22.736 -16.626  0.00  0.00    +0.139 C 
ATOM      5  C   UNL     1      33.096 -23.093 -16.027  0.00  0.00    +0.012 C 
ATOM      6  C   UNL     1      33.465 -22.483 -17.175  0.00  0.00    +0.071 C 
ATOM      7  C   UNL     1      36.761 -21.824 -18.327  0.00  0.00    +0.120 C 
ATOM      8  C   UNL     1      35.466 -23.381 -15.415  0.00  0.00    +0.035 C 
ATOM      9  C   UNL     1      34.161 -23.552 -15.129  0.00  0.00    +0.004 C 
ENDROOT
BRANCH   5  13
ATOM     10  O   UNL     1      27.655 -23.634 -15.038  0.00  0.00    -0.414 OA
ATOM     11  N   UNL     1      28.248 -21.896 -16.368  0.00  0.00    -0.356 NA
ATOM     12  N   UNL     1      25.943 -22.312 -15.814  0.00  0.00    -0.302 N 
ATOM     13  C   UNL     1      31.661 -23.278 -15.735  0.00  0.00    -0.014 C 
ATOM     14  C   UNL     1      30.728 -22.386 -16.283  0.00  0.00    +0.089 C 
ATOM     15  C   UNL     1      31.256 -24.341 -14.917  0.00  0.00    -0.001 C 
ATOM     16  C   UNL     1      29.372 -22.587 -15.989  0.00  0.00    +0.152 C 
ATOM     17  C   UNL     1      29.014 -23.651 -15.174  0.00  0.00    +0.175 C 
ATOM     18  C   UNL     1      29.907 -24.555 -14.614  0.00  0.00    +0.040 C 
ATOM     19  C   UNL     1      27.273 -22.557 -15.781  0.00  0.00    +0.341 C 
ATOM     20  H   UNL     1      25.323 -22.897 -15.321  0.00  0.00    +0.148 HD
ATOM     21  H   UNL     1      25.596 -21.550 -16.331  0.00  0.00    +0.148 HD
ENDBRANCH   5  13
BRANCH   3  29
ATOM     22  O   UNL     1      36.629 -18.182 -21.941  0.00  0.00    -0.350 OA
ATOM     23  O   UNL     1      33.509 -21.367 -19.791  0.00  0.00    -0.268 OA
ATOM     24  N   UNL     1      35.459 -20.364 -20.596  0.00  0.00    -0.270 N 
ATOM     25  C   UNL     1      34.805 -19.762 -21.757  0.00  0.00    +0.126 C 
ATOM     26  C   UNL     1      36.909 -20.141 -20.534  0.00  0.00    +0.126 C 
ATOM     27  C   UNL     1      37.224 -18.664 -20.733  0.00  0.00    +0.164 C 
ATOM     28  C   UNL     1      35.205 -18.300 -21.892  0.00  0.00    +0.164 C 
ATOM     29  C   UNL     1      34.713 -21.133 -19.700  0.00  0.00    +0.265 C 
ENDBRANCH   3  29
TORSDOF 2
ENDMDL
MODEL 9
REMARK VINA RESULT:      -9.0      8.110     13.068
REMARK  Name = 70798655
REMARK  2 active torsions:
REMARK  status: ('A' for Active; 'I' for Inactive)
REMARK    1  A    between atoms: C_3  and  C_29
REMARK    2  A    between atoms: C_5  and  C_13
REMARK                            x       y       z     vdW  Elec       q    Type
REMARK                         _______ _______ _______ _____ _____    ______ ____
ROOT
ATOM      1  N   UNL     1      34.087 -14.300 -24.609  0.00  0.00    -0.245 N 
ATOM      2  N   UNL     1      33.857 -15.736 -26.308  0.00  0.00    -0.227 NA
ATOM      3  C   UNL     1      34.276 -15.555 -24.087  0.00  0.00    +0.130 C 
ATOM      4  C   UNL     1      33.835 -14.464 -25.966  0.00  0.00    +0.139 C 
ATOM      5  C   UNL     1      33.906 -11.937 -24.683  0.00  0.00    +0.012 C 
ATOM      6  C   UNL     1      34.125 -13.064 -23.970  0.00  0.00    +0.071 C 
ATOM      7  C   UNL     1      34.130 -16.416 -25.148  0.00  0.00    +0.120 C 
ATOM      8  C   UNL     1      33.606 -13.283 -26.725  0.00  0.00    +0.035 C 
ATOM      9  C   UNL     1      33.640 -12.081 -26.118  0.00  0.00    +0.004 C 
ENDROOT
BRANCH   5  13
ATOM     10  O   UNL     1      33.923  -7.057 -22.027  0.00  0.00    -0.414 OA
ATOM     11  N   UNL     1      32.152  -8.406 -21.598  0.00  0.00    -0.356 NA
ATOM     12  N   UNL     1      32.356  -6.249 -20.552  0.00  0.00    -0.302 N 
ATOM     13  C   UNL     1      33.955 -10.629 -24.001  0.00  0.00    -0.014 C 
ATOM     14  C   UNL     1      32.921 -10.273 -23.124  0.00  0.00    +0.089 C 
ATOM     15  C   UNL     1      35.034  -9.767 -24.240  0.00  0.00    -0.001 C 
ATOM     16  C   UNL     1      32.995  -9.024 -22.490  0.00  0.00    +0.152 C 
ATOM     17  C   UNL     1      34.080  -8.200 -22.755  0.00  0.00    +0.175 C 
ATOM     18  C   UNL     1      35.123  -8.518 -23.616  0.00  0.00    +0.040 C 
ATOM     19  C   UNL     1      32.750  -7.258 -21.363  0.00  0.00    +0.341 C 
ATOM     20  H   UNL     1      32.909  -5.437 -20.473  0.00  0.00    +0.148 HD
ATOM     21  H   UNL     1      31.518  -6.326 -20.042  0.00  0.00    +0.148 HD
ENDBRANCH   5  13
BRANCH   3  29
ATOM     22  O   UNL     1      35.338 -19.832 -21.613  0.00  0.00    -0.350 OA
ATOM     23  O   UNL     1      34.336 -14.991 -21.861  0.00  0.00    -0.268 OA
ATOM     24  N   UNL     1      35.095 -17.136 -22.392  0.00  0.00    -0.270 N 
ATOM     25  C   UNL     1      35.410 -17.490 -21.009  0.00  0.00    +0.126 C 
ATOM     26  C   UNL     1      35.446 -18.168 -23.376  0.00  0.00    +0.126 C 
ATOM     27  C   UNL     1      34.901 -19.521 -22.938  0.00  0.00    +0.164 C 
ATOM     28  C   UNL     1      34.855 -18.867 -20.674  0.00  0.00    +0.164 C 
ATOM     29  C   UNL     1      34.571 -15.875 -22.684  0.00  0.00    +0.265 C 
ENDBRANCH   3  29
TORSDOF 2
ENDMDL
