MODEL 1
REMARK VINA RESULT:     -12.2      0.000      0.000
REMARK  Name = 46911863
REMARK  3 active torsions:
REMARK  status: ('A' for Active; 'I' for Inactive)
REMARK    1  A    between atoms: C_5  and  C_18
REMARK    2  A    between atoms: C_7  and  C_12
REMARK    3  A    between atoms: C_18  and  C_20
REMARK                            x       y       z     vdW  Elec       q    Type
REMARK                         _______ _______ _______ _____ _____    ______ ____
ROOT
ATOM      1  N   UNL     1      33.061 -23.223 -15.953  0.00  0.00    -0.190 N 
ATOM      2  N   UNL     1      34.115 -23.718 -15.258  0.00  0.00    -0.162 NA
ATOM      3  N   UNL     1      31.843 -22.428 -17.592  0.00  0.00    -0.126 NA
ATOM      4  N   UNL     1      31.057 -22.483 -16.460  0.00  0.00    -0.127 NA
ATOM      5  C   UNL     1      33.036 -22.876 -17.271  0.00  0.00    +0.228 A 
ATOM      6  C   UNL     1      31.795 -22.961 -15.480  0.00  0.00    +0.187 A 
ATOM      7  C   UNL     1      33.855 -23.955 -14.003  0.00  0.00    +0.104 C 
ATOM      8  C   UNL     1      31.538 -23.242 -14.125  0.00  0.00    +0.042 C 
ATOM      9  C   UNL     1      32.519 -23.735 -13.358  0.00  0.00    +0.024 C 
ENDROOT
BRANCH   7  12
ATOM     10  N   UNL     1      36.801 -25.382 -12.432  0.00  0.00    -0.208 N 
ATOM     11  N   UNL     1      36.122 -25.145 -11.296  0.00  0.00    -0.176 NA
ATOM     12  C   UNL     1      34.932 -24.496 -13.133  0.00  0.00    +0.056 C 
ATOM     13  C   UNL     1      36.132 -25.011 -13.561  0.00  0.00    +0.087 C 
ATOM     14  C   UNL     1      34.981 -24.604 -11.731  0.00  0.00    +0.121 C 
ATOM     15  C   UNL     1      38.114 -25.977 -12.371  0.00  0.00    +0.140 C 
ENDBRANCH   7  12
BRANCH   5  18
ATOM     16  F   UNL     1      34.171 -24.194 -18.894  0.00  0.00    -0.191 F 
ATOM     17  F   UNL     1      35.388 -23.193 -17.431  0.00  0.00    -0.191 F 
ATOM     18  C   UNL     1      34.249 -23.005 -18.193  0.00  0.00    +0.335 C 
BRANCH  18  20
ATOM     19  N   UNL     1      34.718 -18.559 -21.661  0.00  0.00    -0.244 NA
ATOM     20  C   UNL     1      34.383 -21.834 -19.105  0.00  0.00    +0.045 C 
ATOM     21  C   UNL     1      35.643 -21.341 -19.430  0.00  0.00    +0.003 C 
ATOM     22  C   UNL     1      35.774 -20.237 -20.292  0.00  0.00    +0.018 C 
ATOM     23  C   UNL     1      33.251 -21.229 -19.636  0.00  0.00    +0.003 C 
ATOM     24  C   UNL     1      34.629 -19.618 -20.834  0.00  0.00    +0.081 C 
ATOM     25  C   UNL     1      33.382 -20.132 -20.491  0.00  0.00    +0.019 C 
ATOM     26  C   UNL     1      37.030 -19.720 -20.636  0.00  0.00    +0.003 C 
ATOM     27  C   UNL     1      37.125 -18.630 -21.488  0.00  0.00    +0.021 C 
ATOM     28  C   UNL     1      35.949 -18.091 -21.970  0.00  0.00    +0.099 C 
ENDBRANCH  18  20
ENDBRANCH   5  18
TORSDOF 3
ENDMDL
MODEL 2
REMARK VINA RESULT:     -12.2      2.272      3.264
REMARK  Name = 46911863
REMARK  3 active torsions:
REMARK  status: ('A' for Active; 'I' for Inactive)
REMARK    1  A    between atoms: C_5  and  C_18
REMARK    2  A    between atoms: C_7  and  C_12
REMARK    3  A    between atoms: C_18  and  C_20
REMARK                            x       y       z     vdW  Elec       q    Type
REMARK                         _______ _______ _______ _____ _____    ______ ____
ROOT
ATOM      1  N   UNL     1      34.447 -21.982 -18.291  0.00  0.00    -0.190 N 
ATOM      2  N   UNL     1      35.522 -22.360 -17.555  0.00  0.00    -0.162 NA
ATOM      3  N   UNL     1      33.224 -21.082 -19.871  0.00  0.00    -0.126 NA
ATOM      4  N   UNL     1      32.380 -21.702 -18.974  0.00  0.00    -0.127 NA
ATOM      5  C   UNL     1      34.456 -21.260 -19.448  0.00  0.00    +0.228 A 
ATOM      6  C   UNL     1      33.122 -22.240 -18.029  0.00  0.00    +0.187 A 
ATOM      7  C   UNL     1      35.218 -23.040 -16.486  0.00  0.00    +0.104 C 
ATOM      8  C   UNL     1      32.823 -22.991 -16.875  0.00  0.00    +0.042 C 
ATOM      9  C   UNL     1      33.821 -23.409 -16.087  0.00  0.00    +0.024 C 
ENDROOT
BRANCH   7  12
ATOM     10  N   UNL     1      37.480 -24.659 -14.153  0.00  0.00    -0.208 N 
ATOM     11  N   UNL     1      38.305 -23.652 -14.491  0.00  0.00    -0.176 NA
ATOM     12  C   UNL     1      36.310 -23.507 -15.593  0.00  0.00    +0.056 C 
ATOM     13  C   UNL     1      36.272 -24.617 -14.785  0.00  0.00    +0.087 C 
ATOM     14  C   UNL     1      37.584 -22.952 -15.371  0.00  0.00    +0.121 C 
ATOM     15  C   UNL     1      37.914 -25.651 -13.199  0.00  0.00    +0.140 C 
ENDBRANCH   7  12
BRANCH   5  18
ATOM     16  F   UNL     1      36.449 -21.828 -20.614  0.00  0.00    -0.191 F 
ATOM     17  F   UNL     1      36.597 -20.271 -19.139  0.00  0.00    -0.191 F 
ATOM     18  C   UNL     1      35.738 -20.755 -20.109  0.00  0.00    +0.335 C 
BRANCH  18  20
ATOM     19  N   UNL     1      34.682 -16.907 -24.120  0.00  0.00    -0.244 NA
ATOM     20  C   UNL     1      35.460 -19.734 -21.158  0.00  0.00    +0.045 C 
ATOM     21  C   UNL     1      35.316 -18.394 -20.810  0.00  0.00    +0.003 C 
ATOM     22  C   UNL     1      35.054 -17.428 -21.797  0.00  0.00    +0.018 C 
ATOM     23  C   UNL     1      35.341 -20.114 -22.489  0.00  0.00    +0.003 C 
ATOM     24  C   UNL     1      34.933 -17.806 -23.150  0.00  0.00    +0.081 C 
ATOM     25  C   UNL     1      35.080 -19.153 -23.469  0.00  0.00    +0.019 C 
ATOM     26  C   UNL     1      34.906 -16.072 -21.474  0.00  0.00    +0.003 C 
ATOM     27  C   UNL     1      34.647 -15.143 -22.472  0.00  0.00    +0.021 C 
ATOM     28  C   UNL     1      34.546 -15.608 -23.767  0.00  0.00    +0.099 C 
ENDBRANCH  18  20
ENDBRANCH   5  18
TORSDOF 3
ENDMDL
MODEL 3
REMARK VINA RESULT:     -11.9      6.503     10.550
REMARK  Name = 46911863
REMARK  3 active torsions:
REMARK  status: ('A' for Active; 'I' for Inactive)
REMARK    1  A    between atoms: C_5  and  C_18
REMARK    2  A    between atoms: C_7  and  C_12
REMARK    3  A    between atoms: C_18  and  C_20
REMARK                            x       y       z     vdW  Elec       q    Type
REMARK                         _______ _______ _______ _____ _____    ______ ____
ROOT
ATOM      1  N   UNL     1      34.034 -15.515 -22.760  0.00  0.00    -0.190 N 
ATOM      2  N   UNL     1      34.489 -16.420 -21.859  0.00  0.00    -0.162 NA
ATOM      3  N   UNL     1      33.076 -13.742 -23.621  0.00  0.00    -0.126 NA
ATOM      4  N   UNL     1      33.574 -14.507 -24.656  0.00  0.00    -0.127 NA
ATOM      5  C   UNL     1      33.361 -14.359 -22.496  0.00  0.00    +0.228 A 
ATOM      6  C   UNL     1      34.148 -15.569 -24.131  0.00  0.00    +0.187 A 
ATOM      7  C   UNL     1      35.094 -17.442 -22.396  0.00  0.00    +0.104 C 
ATOM      8  C   UNL     1      34.820 -16.677 -24.682  0.00  0.00    +0.042 C 
ATOM      9  C   UNL     1      35.306 -17.622 -23.869  0.00  0.00    +0.024 C 
ENDROOT
BRANCH   7  12
ATOM     10  N   UNL     1      35.816 -20.289 -20.261  0.00  0.00    -0.208 N 
ATOM     11  N   UNL     1      37.050 -19.755 -20.225  0.00  0.00    -0.176 NA
ATOM     12  C   UNL     1      35.634 -18.507 -21.511  0.00  0.00    +0.056 C 
ATOM     13  C   UNL     1      34.931 -19.579 -21.017  0.00  0.00    +0.087 C 
ATOM     14  C   UNL     1      36.931 -18.666 -20.990  0.00  0.00    +0.121 C 
ATOM     15  C   UNL     1      35.541 -21.506 -19.537  0.00  0.00    +0.140 C 
ENDBRANCH   7  12
BRANCH   5  18
ATOM     16  F   UNL     1      34.085 -14.137 -20.242  0.00  0.00    -0.191 F 
ATOM     17  F   UNL     1      32.042 -14.730 -20.552  0.00  0.00    -0.191 F 
ATOM     18  C   UNL     1      33.013 -13.899 -21.081  0.00  0.00    +0.335 C 
BRANCH  18  20
ATOM     19  N   UNL     1      31.400  -8.478 -20.919  0.00  0.00    -0.244 NA
ATOM     20  C   UNL     1      32.593 -12.469 -21.047  0.00  0.00    +0.045 C 
ATOM     21  C   UNL     1      32.923 -11.618 -22.097  0.00  0.00    +0.003 C 
ATOM     22  C   UNL     1      32.528 -10.269 -22.070  0.00  0.00    +0.018 C 
ATOM     23  C   UNL     1      31.870 -11.979 -19.967  0.00  0.00    +0.003 C 
ATOM     24  C   UNL     1      31.793  -9.765 -20.977  0.00  0.00    +0.081 C 
ATOM     25  C   UNL     1      31.478 -10.638 -19.940  0.00  0.00    +0.019 C 
ATOM     26  C   UNL     1      32.846  -9.390 -23.114  0.00  0.00    +0.003 C 
ATOM     27  C   UNL     1      32.441  -8.064 -23.057  0.00  0.00    +0.021 C 
ATOM     28  C   UNL     1      31.727  -7.662 -21.947  0.00  0.00    +0.099 C 
ENDBRANCH  18  20
ENDBRANCH   5  18
TORSDOF 3
ENDMDL
MODEL 4
REMARK VINA RESULT:     -11.6      3.126      4.652
REMARK  Name = 46911863
REMARK  3 active torsions:
REMARK  status: ('A' for Active; 'I' for Inactive)
REMARK    1  A    between atoms: C_5  and  C_18
REMARK    2  A    between atoms: C_7  and  C_12
REMARK    3  A    between atoms: C_18  and  C_20
REMARK                            x       y       z     vdW  Elec       q    Type
REMARK                         _______ _______ _______ _____ _____    ______ ____
ROOT
ATOM      1  N   UNL     1      34.606 -21.043 -19.375  0.00  0.00    -0.190 N 
ATOM      2  N   UNL     1      35.694 -21.309 -18.611  0.00  0.00    -0.162 NA
ATOM      3  N   UNL     1      33.319 -20.194 -20.933  0.00  0.00    -0.126 NA
ATOM      4  N   UNL     1      32.556 -21.049 -20.163  0.00  0.00    -0.127 NA
ATOM      5  C   UNL     1      34.540 -20.204 -20.448  0.00  0.00    +0.228 A 
ATOM      6  C   UNL     1      33.336 -21.554 -19.230  0.00  0.00    +0.187 A 
ATOM      7  C   UNL     1      35.465 -22.148 -17.640  0.00  0.00    +0.104 C 
ATOM      8  C   UNL     1      33.122 -22.470 -18.183  0.00  0.00    +0.042 C 
ATOM      9  C   UNL     1      34.139 -22.796 -17.376  0.00  0.00    +0.024 C 
ENDROOT
BRANCH   7  12
ATOM     10  N   UNL     1      37.752 -23.435 -15.131  0.00  0.00    -0.208 N 
ATOM     11  N   UNL     1      38.635 -22.624 -15.740  0.00  0.00    -0.176 NA
ATOM     12  C   UNL     1      36.579 -22.517 -16.728  0.00  0.00    +0.056 C 
ATOM     13  C   UNL     1      36.506 -23.407 -15.684  0.00  0.00    +0.087 C 
ATOM     14  C   UNL     1      37.912 -22.066 -16.715  0.00  0.00    +0.121 C 
ATOM     15  C   UNL     1      38.170 -24.229 -14.000  0.00  0.00    +0.140 C 
ENDBRANCH   7  12
BRANCH   5  18
ATOM     16  F   UNL     1      36.466 -20.199 -21.845  0.00  0.00    -0.191 F 
ATOM     17  F   UNL     1      36.646 -19.224 -19.937  0.00  0.00    -0.191 F 
ATOM     18  C   UNL     1      35.742 -19.414 -20.966  0.00  0.00    +0.335 C 
BRANCH  18  20
ATOM     19  N   UNL     1      34.189 -14.494 -23.289  0.00  0.00    -0.244 NA
ATOM     20  C   UNL     1      35.334 -18.122 -21.587  0.00  0.00    +0.045 C 
ATOM     21  C   UNL     1      35.211 -18.019 -22.970  0.00  0.00    +0.003 C 
ATOM     22  C   UNL     1      34.825 -16.802 -23.560  0.00  0.00    +0.018 C 
ATOM     23  C   UNL     1      35.074 -17.015 -20.790  0.00  0.00    +0.003 C 
ATOM     24  C   UNL     1      34.559 -15.674 -22.757  0.00  0.00    +0.081 C 
ATOM     25  C   UNL     1      34.691 -15.806 -21.377  0.00  0.00    +0.019 C 
ATOM     26  C   UNL     1      34.694 -16.670 -24.949  0.00  0.00    +0.003 C 
ATOM     27  C   UNL     1      34.311 -15.456 -25.500  0.00  0.00    +0.021 C 
ATOM     28  C   UNL     1      34.072 -14.408 -24.634  0.00  0.00    +0.099 C 
ENDBRANCH  18  20
ENDBRANCH   5  18
TORSDOF 3
ENDMDL
MODEL 5
REMARK VINA RESULT:     -11.6      8.373     13.862
REMARK  Name = 46911863
REMARK  3 active torsions:
REMARK  status: ('A' for Active; 'I' for Inactive)
REMARK    1  A    between atoms: C_5  and  C_18
REMARK    2  A    between atoms: C_7  and  C_12
REMARK    3  A    between atoms: C_18  and  C_20
REMARK                            x       y       z     vdW  Elec       q    Type
REMARK                         _______ _______ _______ _____ _____    ______ ____
ROOT
ATOM      1  N   UNL     1      32.680 -11.395 -22.307  0.00  0.00    -0.190 N 
ATOM      2  N   UNL     1      33.126 -10.303 -22.975  0.00  0.00    -0.162 NA
ATOM      3  N   UNL     1      32.316 -13.482 -21.746  0.00  0.00    -0.126 NA
ATOM      4  N   UNL     1      31.669 -12.673 -20.835  0.00  0.00    -0.127 NA
ATOM      5  C   UNL     1      32.915 -12.702 -22.618  0.00  0.00    +0.228 A 
ATOM      6  C   UNL     1      31.893 -11.422 -21.178  0.00  0.00    +0.187 A 
ATOM      7  C   UNL     1      32.739  -9.172 -22.456  0.00  0.00    +0.104 C 
ATOM      8  C   UNL     1      31.503 -10.185 -20.630  0.00  0.00    +0.042 C 
ATOM      9  C   UNL     1      31.898  -9.050 -21.222  0.00  0.00    +0.024 C 
ENDROOT
BRANCH   7  12
ATOM     10  N   UNL     1      33.133  -5.947 -24.077  0.00  0.00    -0.208 N 
ATOM     11  N   UNL     1      34.445  -6.226 -23.972  0.00  0.00    -0.176 NA
ATOM     12  C   UNL     1      33.160  -7.901 -23.102  0.00  0.00    +0.056 C 
ATOM     13  C   UNL     1      32.321  -6.918 -23.571  0.00  0.00    +0.087 C 
ATOM     14  C   UNL     1      34.454  -7.421 -23.376  0.00  0.00    +0.121 C 
ATOM     15  C   UNL     1      32.711  -4.707 -24.683  0.00  0.00    +0.140 C 
ENDBRANCH   7  12
BRANCH   5  18
ATOM     16  F   UNL     1      34.851 -12.301 -23.940  0.00  0.00    -0.191 F 
ATOM     17  F   UNL     1      33.063 -12.880 -24.985  0.00  0.00    -0.191 F 
ATOM     18  C   UNL     1      33.757 -13.137 -23.817  0.00  0.00    +0.335 C 
BRANCH  18  20
ATOM     19  N   UNL     1      35.297 -18.572 -23.494  0.00  0.00    -0.244 NA
ATOM     20  C   UNL     1      34.164 -14.568 -23.721  0.00  0.00    +0.045 C 
ATOM     21  C   UNL     1      34.478 -15.125 -22.485  0.00  0.00    +0.003 C 
ATOM     22  C   UNL     1      34.862 -16.475 -22.391  0.00  0.00    +0.018 C 
ATOM     23  C   UNL     1      34.232 -15.353 -24.865  0.00  0.00    +0.003 C 
ATOM     24  C   UNL     1      34.933 -17.277 -23.548  0.00  0.00    +0.081 C 
ATOM     25  C   UNL     1      34.614 -16.693 -24.771  0.00  0.00    +0.019 C 
ATOM     26  C   UNL     1      35.183 -17.061 -21.160  0.00  0.00    +0.003 C 
ATOM     27  C   UNL     1      35.558 -18.396 -21.100  0.00  0.00    +0.021 C 
ATOM     28  C   UNL     1      35.599 -19.101 -22.285  0.00  0.00    +0.099 C 
ENDBRANCH  18  20
ENDBRANCH   5  18
TORSDOF 3
ENDMDL
MODEL 6
REMARK VINA RESULT:     -11.5      8.399     14.013
REMARK  Name = 46911863
REMARK  3 active torsions:
REMARK  status: ('A' for Active; 'I' for Inactive)
REMARK    1  A    between atoms: C_5  and  C_18
REMARK    2  A    between atoms: C_7  and  C_12
REMARK    3  A    between atoms: C_18  and  C_20
REMARK                            x       y       z     vdW  Elec       q    Type
REMARK                         _______ _______ _______ _____ _____    ______ ____
ROOT
ATOM      1  N   UNL     1      32.563 -10.887 -22.047  0.00  0.00    -0.190 N 
ATOM      2  N   UNL     1      33.250 -10.010 -22.820  0.00  0.00    -0.162 NA
ATOM      3  N   UNL     1      31.807 -12.763 -21.203  0.00  0.00    -0.126 NA
ATOM      4  N   UNL     1      31.205 -11.716 -20.534  0.00  0.00    -0.127 NA
ATOM      5  C   UNL     1      32.615 -12.248 -22.102  0.00  0.00    +0.228 A 
ATOM      6  C   UNL     1      31.664 -10.594 -21.046  0.00  0.00    +0.187 A 
ATOM      7  C   UNL     1      32.998  -8.760 -22.553  0.00  0.00    +0.104 C 
ATOM      8  C   UNL     1      31.423  -9.235 -20.768  0.00  0.00    +0.042 C 
ATOM      9  C   UNL     1      32.058  -8.296 -21.481  0.00  0.00    +0.024 C 
ENDROOT
BRANCH   7  12
ATOM     10  N   UNL     1      34.083  -5.980 -24.621  0.00  0.00    -0.208 N 
ATOM     11  N   UNL     1      35.312  -6.410 -24.287  0.00  0.00    -0.176 NA
ATOM     12  C   UNL     1      33.686  -7.702 -23.338  0.00  0.00    +0.056 C 
ATOM     13  C   UNL     1      33.074  -6.720 -24.079  0.00  0.00    +0.087 C 
ATOM     14  C   UNL     1      35.063  -7.463 -23.504  0.00  0.00    +0.121 C 
ATOM     15  C   UNL     1      33.935  -4.830 -25.480  0.00  0.00    +0.140 C 
ENDBRANCH   7  12
BRANCH   5  18
ATOM     16  F   UNL     1      34.541 -12.199 -23.497  0.00  0.00    -0.191 F 
ATOM     17  F   UNL     1      32.809 -13.212 -24.268  0.00  0.00    -0.191 F 
ATOM     18  C   UNL     1      33.501 -13.011 -23.087  0.00  0.00    +0.335 C 
BRANCH  18  20
ATOM     19  N   UNL     1      35.378 -17.867 -20.871  0.00  0.00    -0.244 NA
ATOM     20  C   UNL     1      33.995 -14.295 -22.513  0.00  0.00    +0.045 C 
ATOM     21  C   UNL     1      34.278 -15.372 -23.347  0.00  0.00    +0.003 C 
ATOM     22  C   UNL     1      34.746 -16.584 -22.810  0.00  0.00    +0.018 C 
ATOM     23  C   UNL     1      34.177 -14.423 -21.142  0.00  0.00    +0.003 C 
ATOM     24  C   UNL     1      34.933 -16.720 -21.419  0.00  0.00    +0.081 C 
ATOM     25  C   UNL     1      34.641 -15.627 -20.608  0.00  0.00    +0.019 C 
ATOM     26  C   UNL     1      35.039 -17.684 -23.627  0.00  0.00    +0.003 C 
ATOM     27  C   UNL     1      35.499 -18.866 -23.065  0.00  0.00    +0.021 C 
ATOM     28  C   UNL     1      35.650 -18.906 -21.694  0.00  0.00    +0.099 C 
ENDBRANCH  18  20
ENDBRANCH   5  18
TORSDOF 3
ENDMDL
MODEL 7
REMARK VINA RESULT:     -11.3      2.028      4.569
REMARK  Name = 46911863
REMARK  3 active torsions:
REMARK  status: ('A' for Active; 'I' for Inactive)
REMARK    1  A    between atoms: C_5  and  C_18
REMARK    2  A    between atoms: C_7  and  C_12
REMARK    3  A    between atoms: C_18  and  C_20
REMARK                            x       y       z     vdW  Elec       q    Type
REMARK                         _______ _______ _______ _____ _____    ______ ____
ROOT
ATOM      1  N   UNL     1      33.574 -23.081 -16.170  0.00  0.00    -0.190 N 
ATOM      2  N   UNL     1      32.226 -23.144 -16.305  0.00  0.00    -0.162 NA
ATOM      3  N   UNL     1      35.701 -22.860 -16.650  0.00  0.00    -0.126 NA
ATOM      4  N   UNL     1      35.589 -23.121 -15.300  0.00  0.00    -0.127 NA
ATOM      5  C   UNL     1      34.488 -22.838 -17.154  0.00  0.00    +0.228 A 
ATOM      6  C   UNL     1      34.310 -23.253 -15.020  0.00  0.00    +0.187 A 
ATOM      7  C   UNL     1      31.597 -23.401 -15.193  0.00  0.00    +0.104 C 
ATOM      8  C   UNL     1      33.602 -23.513 -13.831  0.00  0.00    +0.042 C 
ATOM      9  C   UNL     1      32.266 -23.592 -13.865  0.00  0.00    +0.024 C 
ENDROOT
BRANCH   7  12
ATOM     10  N   UNL     1      27.992 -23.025 -15.418  0.00  0.00    -0.208 N 
ATOM     11  N   UNL     1      27.988 -24.316 -15.041  0.00  0.00    -0.176 NA
ATOM     12  C   UNL     1      30.114 -23.501 -15.211  0.00  0.00    +0.056 C 
ATOM     13  C   UNL     1      29.241 -22.490 -15.534  0.00  0.00    +0.087 C 
ATOM     14  C   UNL     1      29.287 -24.600 -14.915  0.00  0.00    +0.121 C 
ATOM     15  C   UNL     1      26.743 -22.344 -15.658  0.00  0.00    +0.140 C 
ENDBRANCH   7  12
BRANCH   5  18
ATOM     16  F   UNL     1      32.781 -22.180 -18.674  0.00  0.00    -0.191 F 
ATOM     17  F   UNL     1      34.063 -23.791 -19.292  0.00  0.00    -0.191 F 
ATOM     18  C   UNL     1      34.100 -22.588 -18.611  0.00  0.00    +0.335 C 
BRANCH  18  20
ATOM     19  N   UNL     1      37.591 -18.886 -21.087  0.00  0.00    -0.244 NA
ATOM     20  C   UNL     1      35.012 -21.609 -19.269  0.00  0.00    +0.045 C 
ATOM     21  C   UNL     1      34.532 -20.767 -20.268  0.00  0.00    +0.003 C 
ATOM     22  C   UNL     1      35.388 -19.843 -20.891  0.00  0.00    +0.018 C 
ATOM     23  C   UNL     1      36.346 -21.532 -18.890  0.00  0.00    +0.003 C 
ATOM     24  C   UNL     1      36.743 -19.759 -20.510  0.00  0.00    +0.081 C 
ATOM     25  C   UNL     1      37.196 -20.614 -19.510  0.00  0.00    +0.019 C 
ATOM     26  C   UNL     1      34.931 -18.983 -21.898  0.00  0.00    +0.003 C 
ATOM     27  C   UNL     1      35.801 -18.081 -22.493  0.00  0.00    +0.021 C 
ATOM     28  C   UNL     1      37.110 -18.072 -22.055  0.00  0.00    +0.099 C 
ENDBRANCH  18  20
ENDBRANCH   5  18
TORSDOF 3
ENDMDL
MODEL 8
REMARK VINA RESULT:     -11.2     10.935     15.034
REMARK  Name = 46911863
REMARK  3 active torsions:
REMARK  status: ('A' for Active; 'I' for Inactive)
REMARK    1  A    between atoms: C_5  and  C_18
REMARK    2  A    between atoms: C_7  and  C_12
REMARK    3  A    between atoms: C_18  and  C_20
REMARK                            x       y       z     vdW  Elec       q    Type
REMARK                         _______ _______ _______ _____ _____    ______ ____
ROOT
ATOM      1  N   UNL     1      32.318 -10.703 -21.458  0.00  0.00    -0.190 N 
ATOM      2  N   UNL     1      32.789 -11.544 -22.411  0.00  0.00    -0.162 NA
ATOM      3  N   UNL     1      31.737  -8.867 -20.411  0.00  0.00    -0.126 NA
ATOM      4  N   UNL     1      31.471  -9.938 -19.582  0.00  0.00    -0.127 NA
ATOM      5  C   UNL     1      32.241  -9.343 -21.527  0.00  0.00    +0.228 A 
ATOM      6  C   UNL     1      31.823 -11.036 -20.218  0.00  0.00    +0.187 A 
ATOM      7  C   UNL     1      32.752 -12.801 -22.070  0.00  0.00    +0.104 C 
ATOM      8  C   UNL     1      31.779 -12.403 -19.882  0.00  0.00    +0.042 C 
ATOM      9  C   UNL     1      32.222 -13.309 -20.762  0.00  0.00    +0.024 C 
ENDROOT
BRANCH   7  12
ATOM     10  N   UNL     1      34.198 -15.591 -23.889  0.00  0.00    -0.208 N 
ATOM     11  N   UNL     1      33.686 -14.960 -24.960  0.00  0.00    -0.176 NA
ATOM     12  C   UNL     1      33.246 -13.824 -23.029  0.00  0.00    +0.056 C 
ATOM     13  C   UNL     1      33.963 -14.951 -22.708  0.00  0.00    +0.087 C 
ATOM     14  C   UNL     1      33.106 -13.881 -24.428  0.00  0.00    +0.121 C 
ATOM     15  C   UNL     1      34.918 -16.830 -24.063  0.00  0.00    +0.140 C 
ENDBRANCH   7  12
BRANCH   5  18
ATOM     16  F   UNL     1      32.377  -9.239 -23.900  0.00  0.00    -0.191 F 
ATOM     17  F   UNL     1      34.074  -8.514 -22.796  0.00  0.00    -0.191 F 
ATOM     18  C   UNL     1      32.693  -8.542 -22.748  0.00  0.00    +0.335 C 
BRANCH  18  20
ATOM     19  N   UNL     1      30.469  -3.338 -22.757  0.00  0.00    -0.244 NA
ATOM     20  C   UNL     1      32.113  -7.168 -22.759  0.00  0.00    +0.045 C 
ATOM     21  C   UNL     1      32.535  -6.238 -23.704  0.00  0.00    +0.003 C 
ATOM     22  C   UNL     1      31.990  -4.942 -23.717  0.00  0.00    +0.018 C 
ATOM     23  C   UNL     1      31.149  -6.810 -21.825  0.00  0.00    +0.003 C 
ATOM     24  C   UNL     1      31.011  -4.571 -22.773  0.00  0.00    +0.081 C 
ATOM     25  C   UNL     1      30.609  -5.522 -21.839  0.00  0.00    +0.019 C 
ATOM     26  C   UNL     1      32.396  -3.986 -24.658  0.00  0.00    +0.003 C 
ATOM     27  C   UNL     1      31.839  -2.715 -24.645  0.00  0.00    +0.021 C 
ATOM     28  C   UNL     1      30.887  -2.444 -23.682  0.00  0.00    +0.099 C 
ENDBRANCH  18  20
ENDBRANCH   5  18
TORSDOF 3
ENDMDL
MODEL 9
REMARK VINA RESULT:     -10.9      5.676      9.612
REMARK  Name = 46911863
REMARK  3 active torsions:
REMARK  status: ('A' for Active; 'I' for Inactive)
REMARK    1  A    between atoms: C_5  and  C_18
REMARK    2  A    between atoms: C_7  and  C_12
REMARK    3  A    between atoms: C_18  and  C_20
REMARK                            x       y       z     vdW  Elec       q    Type
REMARK                         _______ _______ _______ _____ _____    ______ ____
ROOT
ATOM      1  N   UNL     1      34.574 -17.079 -22.958  0.00  0.00    -0.190 N 
ATOM      2  N   UNL     1      34.599 -17.823 -21.824  0.00  0.00    -0.162 NA
ATOM      3  N   UNL     1      34.361 -15.375 -24.319  0.00  0.00    -0.126 NA
ATOM      4  N   UNL     1      34.691 -16.486 -25.068  0.00  0.00    -0.127 NA
ATOM      5  C   UNL     1      34.296 -15.748 -23.061  0.00  0.00    +0.228 A 
ATOM      6  C   UNL     1      34.818 -17.504 -24.243  0.00  0.00    +0.187 A 
ATOM      7  C   UNL     1      34.888 -19.078 -22.023  0.00  0.00    +0.104 C 
ATOM      8  C   UNL     1      35.144 -18.862 -24.427  0.00  0.00    +0.042 C 
ATOM      9  C   UNL     1      35.194 -19.675 -23.364  0.00  0.00    +0.024 C 
ENDROOT
BRANCH   7  12
ATOM     10  N   UNL     1      34.377 -21.358 -19.244  0.00  0.00    -0.208 N 
ATOM     11  N   UNL     1      35.715 -21.277 -19.131  0.00  0.00    -0.176 NA
ATOM     12  C   UNL     1      34.942 -19.999 -20.858  0.00  0.00    +0.056 C 
ATOM     13  C   UNL     1      33.865 -20.610 -20.263  0.00  0.00    +0.087 C 
ATOM     14  C   UNL     1      36.053 -20.445 -20.119  0.00  0.00    +0.121 C 
ATOM     15  C   UNL     1      33.629 -22.185 -18.328  0.00  0.00    +0.140 C 
ENDBRANCH   7  12
BRANCH   5  18
ATOM     16  F   UNL     1      34.994 -14.933 -20.938  0.00  0.00    -0.191 F 
ATOM     17  F   UNL     1      32.913 -15.429 -21.153  0.00  0.00    -0.191 F 
ATOM     18  C   UNL     1      33.963 -14.868 -21.856  0.00  0.00    +0.335 C 
BRANCH  18  20
ATOM     19  N   UNL     1      32.876  -9.536 -23.408  0.00  0.00    -0.244 NA
ATOM     20  C   UNL     1      33.669 -13.462 -22.257  0.00  0.00    +0.045 C 
ATOM     21  C   UNL     1      32.740 -12.711 -21.545  0.00  0.00    +0.003 C 
ATOM     22  C   UNL     1      32.461 -11.385 -21.920  0.00  0.00    +0.018 C 
ATOM     23  C   UNL     1      34.322 -12.895 -23.345  0.00  0.00    +0.003 C 
ATOM     24  C   UNL     1      33.120 -10.803 -23.022  0.00  0.00    +0.081 C 
ATOM     25  C   UNL     1      34.044 -11.578 -23.717  0.00  0.00    +0.019 C 
ATOM     26  C   UNL     1      31.530 -10.605 -21.220  0.00  0.00    +0.003 C 
ATOM     27  C   UNL     1      31.277  -9.299 -21.615  0.00  0.00    +0.021 C 
ATOM     28  C   UNL     1      31.971  -8.816 -22.706  0.00  0.00    +0.099 C 
ENDBRANCH  18  20
ENDBRANCH   5  18
TORSDOF 3
ENDMDL
