MODEL 1
REMARK VINA RESULT:     -12.4      0.000      0.000
REMARK  Name = 204109
REMARK  5 active torsions:
REMARK  status: ('A' for Active; 'I' for Inactive)
REMARK    1  A    between atoms: C_1  and  C_20
REMARK    2  A    between atoms: C_9  and  O_11
REMARK    3  A    between atoms: O_11  and  C_12
REMARK    4  A    between atoms: C_12  and  C_14
REMARK    5  A    between atoms: C_20  and  C_25
REMARK                            x       y       z     vdW  Elec       q    Type
REMARK                         _______ _______ _______ _____ _____    ______ ____
ROOT
ATOM      1  C   UNL     1      33.931 -22.250 -18.576  0.00  0.00    -0.021 C 
ATOM      2  C   UNL     1      35.490 -20.811 -19.767  0.00  0.00    -0.000 C 
ATOM      3  C   UNL     1      35.237 -21.845 -18.852  0.00  0.00    -0.004 C 
ATOM      4  C   UNL     1      34.402 -20.177 -20.411  0.00  0.00    +0.003 C 
ATOM      5  C   UNL     1      32.861 -21.626 -19.210  0.00  0.00    -0.004 C 
ATOM      6  C   UNL     1      33.093 -20.596 -20.124  0.00  0.00    -0.000 C 
ATOM      7  C   UNL     1      34.654 -19.142 -21.327  0.00  0.00    +0.037 C 
ATOM      8  C   UNL     1      36.799 -20.391 -20.055  0.00  0.00    +0.003 C 
ATOM      9  C   UNL     1      35.961 -18.738 -21.602  0.00  0.00    +0.139 C 
ATOM     10  C   UNL     1      37.031 -19.361 -20.967  0.00  0.00    +0.037 C 
ENDROOT
BRANCH   9  11
ATOM     11  O   UNL     1      36.191 -17.733 -22.492  0.00  0.00    -0.471 OA
BRANCH  11  12
ATOM     12  C   UNL     1      35.161 -17.457 -23.439  0.00  0.00    +0.234 C 
BRANCH  12  14
ATOM     13  F   UNL     1      34.109 -16.015 -25.630  0.00  0.00    -0.204 F 
ATOM     14  C   UNL     1      34.655 -16.060 -23.320  0.00  0.00    +0.049 C 
ATOM     15  C   UNL     1      34.147 -15.401 -24.439  0.00  0.00    +0.140 C 
ATOM     16  C   UNL     1      34.691 -15.412 -22.086  0.00  0.00    +0.002 C 
ATOM     17  C   UNL     1      33.674 -14.093 -24.325  0.00  0.00    +0.029 C 
ATOM     18  C   UNL     1      34.219 -14.104 -21.970  0.00  0.00    -0.000 C 
ATOM     19  C   UNL     1      33.710 -13.445 -23.090  0.00  0.00    +0.002 C 
ENDBRANCH  12  14
ENDBRANCH  11  12
ENDBRANCH   9  11
BRANCH   1  20
ATOM     20  C   UNL     1      33.681 -23.351 -17.602  0.00  0.00    +0.047 C 
BRANCH  20  25
ATOM     21  S   UNL     1      34.175 -23.641 -14.901  0.00  0.00    -0.048 S 
ATOM     22  O   UNL     1      30.871 -22.778 -16.699  0.00  0.00    -0.274 OA
ATOM     23  O   UNL     1      32.772 -24.865 -13.045  0.00  0.00    -0.263 OA
ATOM     24  N   UNL     1      31.632 -23.860 -14.803  0.00  0.00    -0.246 N 
ATOM     25  C   UNL     1      33.243 -22.828 -16.235  0.00  0.00    +0.137 C 
ATOM     26  C   UNL     1      31.787 -23.136 -15.967  0.00  0.00    +0.239 C 
ATOM     27  C   UNL     1      32.741 -24.227 -14.087  0.00  0.00    +0.279 C 
ATOM     28  H   UNL     1      30.733 -24.110 -14.490  0.00  0.00    +0.158 HD
ENDBRANCH  20  25
ENDBRANCH   1  20
TORSDOF 5
ENDMDL
MODEL 2
REMARK VINA RESULT:     -12.1      1.156      1.943
REMARK  Name = 204109
REMARK  5 active torsions:
REMARK  status: ('A' for Active; 'I' for Inactive)
REMARK    1  A    between atoms: C_1  and  C_20
REMARK    2  A    between atoms: C_9  and  O_11
REMARK    3  A    between atoms: O_11  and  C_12
REMARK    4  A    between atoms: C_12  and  C_14
REMARK    5  A    between atoms: C_20  and  C_25
REMARK                            x       y       z     vdW  Elec       q    Type
REMARK                         _______ _______ _______ _____ _____    ______ ____
ROOT
ATOM      1  C   UNL     1      33.754 -22.937 -17.401  0.00  0.00    -0.021 C 
ATOM      2  C   UNL     1      33.860 -21.373 -19.262  0.00  0.00    -0.000 C 
ATOM      3  C   UNL     1      33.119 -22.190 -18.393  0.00  0.00    -0.004 C 
ATOM      4  C   UNL     1      35.267 -21.313 -19.121  0.00  0.00    +0.003 C 
ATOM      5  C   UNL     1      35.137 -22.877 -17.263  0.00  0.00    -0.004 C 
ATOM      6  C   UNL     1      35.891 -22.070 -18.116  0.00  0.00    -0.000 C 
ATOM      7  C   UNL     1      36.010 -20.496 -19.989  0.00  0.00    +0.037 C 
ATOM      8  C   UNL     1      33.238 -20.615 -20.266  0.00  0.00    +0.003 C 
ATOM      9  C   UNL     1      35.374 -19.749 -20.982  0.00  0.00    +0.139 C 
ATOM     10  C   UNL     1      33.990 -19.808 -21.120  0.00  0.00    +0.037 C 
ENDROOT
BRANCH   9  11
ATOM     11  O   UNL     1      36.107 -18.961 -21.816  0.00  0.00    -0.471 OA
BRANCH  11  12
ATOM     12  C   UNL     1      35.463 -18.491 -22.999  0.00  0.00    +0.234 C 
BRANCH  12  14
ATOM     13  F   UNL     1      34.880 -16.876 -25.243  0.00  0.00    -0.204 F 
ATOM     14  C   UNL     1      35.062 -17.060 -22.883  0.00  0.00    +0.049 C 
ATOM     15  C   UNL     1      34.787 -16.315 -24.029  0.00  0.00    +0.140 C 
ATOM     16  C   UNL     1      34.963 -16.466 -21.625  0.00  0.00    +0.002 C 
ATOM     17  C   UNL     1      34.411 -14.976 -23.918  0.00  0.00    +0.029 C 
ATOM     18  C   UNL     1      34.588 -15.127 -21.513  0.00  0.00    -0.000 C 
ATOM     19  C   UNL     1      34.312 -14.382 -22.659  0.00  0.00    +0.002 C 
ENDBRANCH  12  14
ENDBRANCH  11  12
ENDBRANCH   9  11
BRANCH   1  20
ATOM     20  C   UNL     1      32.950 -23.799 -16.487  0.00  0.00    +0.047 C 
BRANCH  20  25
ATOM     21  S   UNL     1      32.647 -23.657 -13.746  0.00  0.00    -0.048 S 
ATOM     22  O   UNL     1      30.131 -22.753 -16.531  0.00  0.00    -0.274 OA
ATOM     23  O   UNL     1      30.618 -24.360 -12.229  0.00  0.00    -0.263 OA
ATOM     24  N   UNL     1      30.170 -23.559 -14.364  0.00  0.00    -0.246 N 
ATOM     25  C   UNL     1      32.251 -22.994 -15.394  0.00  0.00    +0.137 C 
ATOM     26  C   UNL     1      30.746 -23.079 -15.522  0.00  0.00    +0.239 C 
ATOM     27  C   UNL     1      30.971 -23.919 -13.312  0.00  0.00    +0.279 C 
ATOM     28  H   UNL     1      29.192 -23.645 -14.295  0.00  0.00    +0.158 HD
ENDBRANCH  20  25
ENDBRANCH   1  20
TORSDOF 5
ENDMDL
MODEL 3
REMARK VINA RESULT:     -11.9      2.937      3.585
REMARK  Name = 204109
REMARK  5 active torsions:
REMARK  status: ('A' for Active; 'I' for Inactive)
REMARK    1  A    between atoms: C_1  and  C_20
REMARK    2  A    between atoms: C_9  and  O_11
REMARK    3  A    between atoms: O_11  and  C_12
REMARK    4  A    between atoms: C_12  and  C_14
REMARK    5  A    between atoms: C_20  and  C_25
REMARK                            x       y       z     vdW  Elec       q    Type
REMARK                         _______ _______ _______ _____ _____    ______ ____
ROOT
ATOM      1  C   UNL     1      34.701 -23.144 -16.409  0.00  0.00    -0.021 C 
ATOM      2  C   UNL     1      35.431 -21.813 -18.310  0.00  0.00    -0.000 C 
ATOM      3  C   UNL     1      35.718 -22.521 -17.132  0.00  0.00    -0.004 C 
ATOM      4  C   UNL     1      34.092 -21.735 -18.760  0.00  0.00    +0.003 C 
ATOM      5  C   UNL     1      33.384 -23.068 -16.852  0.00  0.00    -0.004 C 
ATOM      6  C   UNL     1      33.079 -22.369 -18.021  0.00  0.00    -0.000 C 
ATOM      7  C   UNL     1      33.804 -21.027 -19.938  0.00  0.00    +0.037 C 
ATOM      8  C   UNL     1      36.442 -21.179 -19.050  0.00  0.00    +0.003 C 
ATOM      9  C   UNL     1      34.822 -20.403 -20.661  0.00  0.00    +0.139 C 
ATOM     10  C   UNL     1      36.139 -20.480 -20.218  0.00  0.00    +0.037 C 
ENDROOT
BRANCH   9  11
ATOM     11  O   UNL     1      34.528 -19.721 -21.802  0.00  0.00    -0.471 OA
BRANCH  11  12
ATOM     12  C   UNL     1      35.592 -19.001 -22.421  0.00  0.00    +0.234 C 
BRANCH  12  14
ATOM     13  F   UNL     1      35.190 -16.937 -20.533  0.00  0.00    -0.204 F 
ATOM     14  C   UNL     1      35.180 -17.621 -22.807  0.00  0.00    +0.049 C 
ATOM     15  C   UNL     1      34.998 -16.646 -21.827  0.00  0.00    +0.140 C 
ATOM     16  C   UNL     1      34.976 -17.307 -24.150  0.00  0.00    +0.002 C 
ATOM     17  C   UNL     1      34.612 -15.355 -22.191  0.00  0.00    +0.029 C 
ATOM     18  C   UNL     1      34.590 -16.017 -24.514  0.00  0.00    -0.000 C 
ATOM     19  C   UNL     1      34.409 -15.040 -23.535  0.00  0.00    +0.002 C 
ENDBRANCH  12  14
ENDBRANCH  11  12
ENDBRANCH   9  11
BRANCH   1  20
ATOM     20  C   UNL     1      35.024 -23.893 -15.160  0.00  0.00    +0.047 C 
BRANCH  20  25
ATOM     21  S   UNL     1      36.506 -26.174 -14.687  0.00  0.00    -0.048 S 
ATOM     22  O   UNL     1      37.457 -22.479 -14.102  0.00  0.00    -0.274 OA
ATOM     23  O   UNL     1      38.008 -26.821 -12.629  0.00  0.00    -0.263 OA
ATOM     24  N   UNL     1      37.867 -24.580 -13.227  0.00  0.00    -0.246 N 
ATOM     25  C   UNL     1      36.459 -24.415 -15.151  0.00  0.00    +0.137 C 
ATOM     26  C   UNL     1      37.302 -23.695 -14.122  0.00  0.00    +0.239 C 
ATOM     27  C   UNL     1      37.591 -25.917 -13.338  0.00  0.00    +0.279 C 
ATOM     28  H   UNL     1      38.463 -24.253 -12.515  0.00  0.00    +0.158 HD
ENDBRANCH  20  25
ENDBRANCH   1  20
TORSDOF 5
ENDMDL
MODEL 4
REMARK VINA RESULT:     -11.9      2.320      3.166
REMARK  Name = 204109
REMARK  5 active torsions:
REMARK  status: ('A' for Active; 'I' for Inactive)
REMARK    1  A    between atoms: C_1  and  C_20
REMARK    2  A    between atoms: C_9  and  O_11
REMARK    3  A    between atoms: O_11  and  C_12
REMARK    4  A    between atoms: C_12  and  C_14
REMARK    5  A    between atoms: C_20  and  C_25
REMARK                            x       y       z     vdW  Elec       q    Type
REMARK                         _______ _______ _______ _____ _____    ______ ____
ROOT
ATOM      1  C   UNL     1      34.704 -23.568 -16.149  0.00  0.00    -0.021 C 
ATOM      2  C   UNL     1      35.382 -22.159 -18.013  0.00  0.00    -0.000 C 
ATOM      3  C   UNL     1      35.704 -22.933 -16.887  0.00  0.00    -0.004 C 
ATOM      4  C   UNL     1      34.026 -22.027 -18.397  0.00  0.00    +0.003 C 
ATOM      5  C   UNL     1      33.371 -23.438 -16.527  0.00  0.00    -0.004 C 
ATOM      6  C   UNL     1      33.032 -22.674 -17.645  0.00  0.00    -0.000 C 
ATOM      7  C   UNL     1      33.704 -21.254 -19.524  0.00  0.00    +0.037 C 
ATOM      8  C   UNL     1      36.375 -21.513 -18.767  0.00  0.00    +0.003 C 
ATOM      9  C   UNL     1      34.704 -20.618 -20.261  0.00  0.00    +0.139 C 
ATOM     10  C   UNL     1      36.037 -20.748 -19.883  0.00  0.00    +0.037 C 
ENDROOT
BRANCH   9  11
ATOM     11  O   UNL     1      34.376 -19.872 -21.352  0.00  0.00    -0.471 OA
BRANCH  11  12
ATOM     12  C   UNL     1      35.427 -19.136 -21.975  0.00  0.00    +0.234 C 
BRANCH  12  14
ATOM     13  F   UNL     1      34.966 -17.990 -24.517  0.00  0.00    -0.204 F 
ATOM     14  C   UNL     1      35.066 -17.701 -22.162  0.00  0.00    +0.049 C 
ATOM     15  C   UNL     1      34.851 -17.195 -23.444  0.00  0.00    +0.140 C 
ATOM     16  C   UNL     1      34.945 -16.865 -21.053  0.00  0.00    +0.002 C 
ATOM     17  C   UNL     1      34.513 -15.852 -23.616  0.00  0.00    +0.029 C 
ATOM     18  C   UNL     1      34.608 -15.522 -21.224  0.00  0.00    -0.000 C 
ATOM     19  C   UNL     1      34.391 -15.016 -22.505  0.00  0.00    +0.002 C 
ENDBRANCH  12  14
ENDBRANCH  11  12
ENDBRANCH   9  11
BRANCH   1  20
ATOM     20  C   UNL     1      35.065 -24.387 -14.956  0.00  0.00    +0.047 C 
BRANCH  20  25
ATOM     21  S   UNL     1      37.115 -23.563 -13.300  0.00  0.00    -0.048 S 
ATOM     22  O   UNL     1      33.404 -24.204 -12.457  0.00  0.00    -0.274 OA
ATOM     23  O   UNL     1      37.736 -24.331 -10.864  0.00  0.00    -0.263 OA
ATOM     24  N   UNL     1      35.494 -24.322 -11.477  0.00  0.00    -0.246 N 
ATOM     25  C   UNL     1      35.346 -23.527 -13.725  0.00  0.00    +0.137 C 
ATOM     26  C   UNL     1      34.619 -24.051 -12.507  0.00  0.00    +0.239 C 
ATOM     27  C   UNL     1      36.838 -24.136 -11.669  0.00  0.00    +0.279 C 
ATOM     28  H   UNL     1      35.157 -24.646 -10.611  0.00  0.00    +0.158 HD
ENDBRANCH  20  25
ENDBRANCH   1  20
TORSDOF 5
ENDMDL
MODEL 5
REMARK VINA RESULT:     -11.7      1.712      2.065
REMARK  Name = 204109
REMARK  5 active torsions:
REMARK  status: ('A' for Active; 'I' for Inactive)
REMARK    1  A    between atoms: C_1  and  C_20
REMARK    2  A    between atoms: C_9  and  O_11
REMARK    3  A    between atoms: O_11  and  C_12
REMARK    4  A    between atoms: C_12  and  C_14
REMARK    5  A    between atoms: C_20  and  C_25
REMARK                            x       y       z     vdW  Elec       q    Type
REMARK                         _______ _______ _______ _____ _____    ______ ____
ROOT
ATOM      1  C   UNL     1      34.488 -22.830 -17.446  0.00  0.00    -0.021 C 
ATOM      2  C   UNL     1      35.406 -21.356 -19.151  0.00  0.00    -0.000 C 
ATOM      3  C   UNL     1      35.585 -22.242 -18.076  0.00  0.00    -0.004 C 
ATOM      4  C   UNL     1      34.094 -21.063 -19.592  0.00  0.00    +0.003 C 
ATOM      5  C   UNL     1      33.198 -22.541 -17.880  0.00  0.00    -0.004 C 
ATOM      6  C   UNL     1      33.000 -21.663 -18.947  0.00  0.00    -0.000 C 
ATOM      7  C   UNL     1      33.913 -20.177 -20.667  0.00  0.00    +0.037 C 
ATOM      8  C   UNL     1      36.498 -20.756 -19.796  0.00  0.00    +0.003 C 
ATOM      9  C   UNL     1      35.011 -19.589 -21.297  0.00  0.00    +0.139 C 
ATOM     10  C   UNL     1      36.301 -19.878 -20.862  0.00  0.00    +0.037 C 
ENDROOT
BRANCH   9  11
ATOM     11  O   UNL     1      34.821 -18.733 -22.338  0.00  0.00    -0.471 OA
BRANCH  11  12
ATOM     12  C   UNL     1      35.680 -17.597 -22.411  0.00  0.00    +0.234 C 
BRANCH  12  14
ATOM     13  F   UNL     1      34.723 -16.125 -20.197  0.00  0.00    -0.204 F 
ATOM     14  C   UNL     1      34.912 -16.327 -22.555  0.00  0.00    +0.049 C 
ATOM     15  C   UNL     1      34.467 -15.646 -21.422  0.00  0.00    +0.140 C 
ATOM     16  C   UNL     1      34.639 -15.820 -23.825  0.00  0.00    +0.002 C 
ATOM     17  C   UNL     1      33.749 -14.458 -21.560  0.00  0.00    +0.029 C 
ATOM     18  C   UNL     1      33.921 -14.632 -23.963  0.00  0.00    -0.000 C 
ATOM     19  C   UNL     1      33.476 -13.951 -22.831  0.00  0.00    +0.002 C 
ENDBRANCH  12  14
ENDBRANCH  11  12
ENDBRANCH   9  11
BRANCH   1  20
ATOM     20  C   UNL     1      34.698 -23.769 -16.306  0.00  0.00    +0.047 C 
BRANCH  20  25
ATOM     21  S   UNL     1      35.743 -23.447 -13.771  0.00  0.00    -0.048 S 
ATOM     22  O   UNL     1      32.054 -23.685 -14.878  0.00  0.00    -0.274 OA
ATOM     23  O   UNL     1      35.071 -24.596 -11.504  0.00  0.00    -0.263 OA
ATOM     24  N   UNL     1      33.406 -24.207 -13.077  0.00  0.00    -0.246 N 
ATOM     25  C   UNL     1      34.402 -23.119 -14.956  0.00  0.00    +0.137 C 
ATOM     26  C   UNL     1      33.150 -23.691 -14.330  0.00  0.00    +0.239 C 
ATOM     27  C   UNL     1      34.685 -24.181 -12.586  0.00  0.00    +0.279 C 
ATOM     28  H   UNL     1      32.676 -24.591 -12.540  0.00  0.00    +0.158 HD
ENDBRANCH  20  25
ENDBRANCH   1  20
TORSDOF 5
ENDMDL
MODEL 6
REMARK VINA RESULT:     -11.7      4.651      9.902
REMARK  Name = 204109
REMARK  5 active torsions:
REMARK  status: ('A' for Active; 'I' for Inactive)
REMARK    1  A    between atoms: C_1  and  C_20
REMARK    2  A    between atoms: C_9  and  O_11
REMARK    3  A    between atoms: O_11  and  C_12
REMARK    4  A    between atoms: C_12  and  C_14
REMARK    5  A    between atoms: C_20  and  C_25
REMARK                            x       y       z     vdW  Elec       q    Type
REMARK                         _______ _______ _______ _____ _____    ______ ____
ROOT
ATOM      1  C   UNL     1      35.936 -18.832 -21.457  0.00  0.00    -0.021 C 
ATOM      2  C   UNL     1      34.455 -20.320 -20.228  0.00  0.00    -0.000 C 
ATOM      3  C   UNL     1      34.650 -19.262 -21.130  0.00  0.00    -0.004 C 
ATOM      4  C   UNL     1      35.582 -20.951 -19.648  0.00  0.00    +0.003 C 
ATOM      5  C   UNL     1      37.044 -19.453 -20.887  0.00  0.00    -0.004 C 
ATOM      6  C   UNL     1      36.870 -20.506 -19.988  0.00  0.00    -0.000 C 
ATOM      7  C   UNL     1      35.387 -22.009 -18.746  0.00  0.00    +0.037 C 
ATOM      8  C   UNL     1      33.168 -20.766 -19.887  0.00  0.00    +0.003 C 
ATOM      9  C   UNL     1      34.100 -22.439 -18.419  0.00  0.00    +0.139 C 
ATOM     10  C   UNL     1      32.993 -21.818 -18.989  0.00  0.00    +0.037 C 
ENDROOT
BRANCH   9  11
ATOM     11  O   UNL     1      33.927 -23.467 -17.543  0.00  0.00    -0.471 OA
BRANCH  11  12
ATOM     12  C   UNL     1      34.143 -23.187 -16.161  0.00  0.00    +0.234 C 
BRANCH  12  14
ATOM     13  F   UNL     1      34.258 -24.729 -13.796  0.00  0.00    -0.204 F 
ATOM     14  C   UNL     1      32.939 -23.494 -15.337  0.00  0.00    +0.049 C 
ATOM     15  C   UNL     1      33.061 -24.261 -14.179  0.00  0.00    +0.140 C 
ATOM     16  C   UNL     1      31.689 -23.013 -15.726  0.00  0.00    +0.002 C 
ATOM     17  C   UNL     1      31.933 -24.547 -13.409  0.00  0.00    +0.029 C 
ATOM     18  C   UNL     1      30.561 -23.299 -14.957  0.00  0.00    -0.000 C 
ATOM     19  C   UNL     1      30.683 -24.065 -13.799  0.00  0.00    +0.002 C 
ENDBRANCH  12  14
ENDBRANCH  11  12
ENDBRANCH   9  11
BRANCH   1  20
ATOM     20  C   UNL     1      36.125 -17.707 -22.417  0.00  0.00    +0.047 C 
BRANCH  20  25
ATOM     21  S   UNL     1      34.671 -17.486 -24.754  0.00  0.00    -0.048 S 
ATOM     22  O   UNL     1      34.771 -15.118 -21.708  0.00  0.00    -0.274 OA
ATOM     23  O   UNL     1      34.237 -15.394 -26.286  0.00  0.00    -0.263 OA
ATOM     24  N   UNL     1      34.465 -15.054 -23.999  0.00  0.00    -0.246 N 
ATOM     25  C   UNL     1      34.799 -17.182 -22.965  0.00  0.00    +0.137 C 
ATOM     26  C   UNL     1      34.684 -15.684 -22.791  0.00  0.00    +0.239 C 
ATOM     27  C   UNL     1      34.418 -15.799 -25.148  0.00  0.00    +0.279 C 
ATOM     28  H   UNL     1      34.345 -14.078 -24.035  0.00  0.00    +0.158 HD
ENDBRANCH  20  25
ENDBRANCH   1  20
TORSDOF 5
ENDMDL
MODEL 7
REMARK VINA RESULT:     -11.5      4.786      9.902
REMARK  Name = 204109
REMARK  5 active torsions:
REMARK  status: ('A' for Active; 'I' for Inactive)
REMARK    1  A    between atoms: C_1  and  C_20
REMARK    2  A    between atoms: C_9  and  O_11
REMARK    3  A    between atoms: O_11  and  C_12
REMARK    4  A    between atoms: C_12  and  C_14
REMARK    5  A    between atoms: C_20  and  C_25
REMARK                            x       y       z     vdW  Elec       q    Type
REMARK                         _______ _______ _______ _____ _____    ______ ____
ROOT
ATOM      1  C   UNL     1      35.309 -19.082 -22.134  0.00  0.00    -0.021 C 
ATOM      2  C   UNL     1      34.717 -20.577 -20.308  0.00  0.00    -0.000 C 
ATOM      3  C   UNL     1      34.358 -19.836 -21.446  0.00  0.00    -0.004 C 
ATOM      4  C   UNL     1      36.060 -20.551 -19.862  0.00  0.00    +0.003 C 
ATOM      5  C   UNL     1      36.629 -19.057 -21.695  0.00  0.00    -0.004 C 
ATOM      6  C   UNL     1      37.004 -19.787 -20.567  0.00  0.00    -0.000 C 
ATOM      7  C   UNL     1      36.419 -21.292 -18.725  0.00  0.00    +0.037 C 
ATOM      8  C   UNL     1      33.774 -21.342 -19.604  0.00  0.00    +0.003 C 
ATOM      9  C   UNL     1      35.468 -22.046 -18.036  0.00  0.00    +0.139 C 
ATOM     10  C   UNL     1      34.148 -22.071 -18.476  0.00  0.00    +0.037 C 
ENDROOT
BRANCH   9  11
ATOM     11  O   UNL     1      35.832 -22.760 -16.935  0.00  0.00    -0.471 OA
BRANCH  11  12
ATOM     12  C   UNL     1      34.785 -23.211 -16.078  0.00  0.00    +0.234 C 
BRANCH  12  14
ATOM     13  F   UNL     1      33.181 -24.404 -14.080  0.00  0.00    -0.204 F 
ATOM     14  C   UNL     1      35.266 -23.441 -14.686  0.00  0.00    +0.049 C 
ATOM     15  C   UNL     1      34.425 -24.035 -13.745  0.00  0.00    +0.140 C 
ATOM     16  C   UNL     1      36.558 -23.061 -14.326  0.00  0.00    +0.002 C 
ATOM     17  C   UNL     1      34.878 -24.250 -12.442  0.00  0.00    +0.029 C 
ATOM     18  C   UNL     1      37.011 -23.275 -13.023  0.00  0.00    -0.000 C 
ATOM     19  C   UNL     1      36.171 -23.870 -12.082  0.00  0.00    +0.002 C 
ENDBRANCH  12  14
ENDBRANCH  11  12
ENDBRANCH   9  11
BRANCH   1  20
ATOM     20  C   UNL     1      34.910 -18.301 -23.341  0.00  0.00    +0.047 C 
BRANCH  20  25
ATOM     21  S   UNL     1      34.603 -16.081 -21.729  0.00  0.00    -0.048 S 
ATOM     22  O   UNL     1      34.968 -16.280 -25.566  0.00  0.00    -0.274 OA
ATOM     23  O   UNL     1      33.091 -13.954 -22.046  0.00  0.00    -0.263 OA
ATOM     24  N   UNL     1      33.957 -14.981 -23.942  0.00  0.00    -0.246 N 
ATOM     25  C   UNL     1      35.299 -16.828 -23.235  0.00  0.00    +0.137 C 
ATOM     26  C   UNL     1      34.740 -16.026 -24.389  0.00  0.00    +0.239 C 
ATOM     27  C   UNL     1      33.754 -14.820 -22.596  0.00  0.00    +0.279 C 
ATOM     28  H   UNL     1      33.548 -14.358 -24.584  0.00  0.00    +0.158 HD
ENDBRANCH  20  25
ENDBRANCH   1  20
TORSDOF 5
ENDMDL
MODEL 8
REMARK VINA RESULT:     -11.5      5.979     10.496
REMARK  Name = 204109
REMARK  5 active torsions:
REMARK  status: ('A' for Active; 'I' for Inactive)
REMARK    1  A    between atoms: C_1  and  C_20
REMARK    2  A    between atoms: C_9  and  O_11
REMARK    3  A    between atoms: O_11  and  C_12
REMARK    4  A    between atoms: C_12  and  C_14
REMARK    5  A    between atoms: C_20  and  C_25
REMARK                            x       y       z     vdW  Elec       q    Type
REMARK                         _______ _______ _______ _____ _____    ______ ____
ROOT
ATOM      1  C   UNL     1      32.256 -12.515 -21.269  0.00  0.00    -0.021 C 
ATOM      2  C   UNL     1      33.716 -14.287 -22.072  0.00  0.00    -0.000 C 
ATOM      3  C   UNL     1      33.075 -13.053 -22.262  0.00  0.00    -0.004 C 
ATOM      4  C   UNL     1      33.523 -14.987 -20.857  0.00  0.00    +0.003 C 
ATOM      5  C   UNL     1      32.066 -13.204 -20.075  0.00  0.00    -0.004 C 
ATOM      6  C   UNL     1      32.696 -14.432 -19.868  0.00  0.00    -0.000 C 
ATOM      7  C   UNL     1      34.165 -16.222 -20.667  0.00  0.00    +0.037 C 
ATOM      8  C   UNL     1      34.544 -14.843 -23.061  0.00  0.00    +0.003 C 
ATOM      9  C   UNL     1      34.984 -16.759 -21.661  0.00  0.00    +0.139 C 
ATOM     10  C   UNL     1      35.174 -16.071 -22.855  0.00  0.00    +0.037 C 
ENDROOT
BRANCH   9  11
ATOM     11  O   UNL     1      35.600 -17.957 -21.461  0.00  0.00    -0.471 OA
BRANCH  11  12
ATOM     12  C   UNL     1      34.864 -19.131 -21.799  0.00  0.00    +0.234 C 
BRANCH  12  14
ATOM     13  F   UNL     1      32.524 -20.179 -20.610  0.00  0.00    -0.204 F 
ATOM     14  C   UNL     1      34.896 -20.142 -20.704  0.00  0.00    +0.049 C 
ATOM     15  C   UNL     1      33.706 -20.621 -20.158  0.00  0.00    +0.140 C 
ATOM     16  C   UNL     1      36.120 -20.609 -20.226  0.00  0.00    +0.002 C 
ATOM     17  C   UNL     1      33.739 -21.568 -19.134  0.00  0.00    +0.029 C 
ATOM     18  C   UNL     1      36.154 -21.555 -19.201  0.00  0.00    -0.000 C 
ATOM     19  C   UNL     1      34.964 -22.035 -18.656  0.00  0.00    +0.002 C 
ENDBRANCH  12  14
ENDBRANCH  11  12
ENDBRANCH   9  11
BRANCH   1  20
ATOM     20  C   UNL     1      31.582 -11.202 -21.488  0.00  0.00    +0.047 C 
BRANCH  20  25
ATOM     21  S   UNL     1      31.898  -8.906 -19.988  0.00  0.00    -0.048 S 
ATOM     22  O   UNL     1      33.004  -9.624 -23.616  0.00  0.00    -0.274 OA
ATOM     23  O   UNL     1      31.557  -6.387 -20.658  0.00  0.00    -0.263 OA
ATOM     24  N   UNL     1      32.307  -7.866 -22.285  0.00  0.00    -0.246 N 
ATOM     25  C   UNL     1      32.529 -10.022 -21.279  0.00  0.00    +0.137 C 
ATOM     26  C   UNL     1      32.646  -9.181 -22.530  0.00  0.00    +0.239 C 
ATOM     27  C   UNL     1      31.892  -7.501 -21.032  0.00  0.00    +0.279 C 
ATOM     28  H   UNL     1      32.361  -7.197 -23.005  0.00  0.00    +0.158 HD
ENDBRANCH  20  25
ENDBRANCH   1  20
TORSDOF 5
ENDMDL
MODEL 9
REMARK VINA RESULT:     -11.5      5.165     10.337
REMARK  Name = 204109
REMARK  5 active torsions:
REMARK  status: ('A' for Active; 'I' for Inactive)
REMARK    1  A    between atoms: C_1  and  C_20
REMARK    2  A    between atoms: C_9  and  O_11
REMARK    3  A    between atoms: O_11  and  C_12
REMARK    4  A    between atoms: C_12  and  C_14
REMARK    5  A    between atoms: C_20  and  C_25
REMARK                            x       y       z     vdW  Elec       q    Type
REMARK                         _______ _______ _______ _____ _____    ______ ____
ROOT
ATOM      1  C   UNL     1      34.360 -20.641 -20.188  0.00  0.00    -0.021 C 
ATOM      2  C   UNL     1      33.677 -21.990 -18.282  0.00  0.00    -0.000 C 
ATOM      3  C   UNL     1      33.356 -21.208 -19.403  0.00  0.00    -0.004 C 
ATOM      4  C   UNL     1      35.037 -22.200 -17.952  0.00  0.00    +0.003 C 
ATOM      5  C   UNL     1      35.697 -20.848 -19.863  0.00  0.00    -0.004 C 
ATOM      6  C   UNL     1      36.036 -21.623 -18.753  0.00  0.00    -0.000 C 
ATOM      7  C   UNL     1      35.358 -22.982 -16.831  0.00  0.00    +0.037 C 
ATOM      8  C   UNL     1      32.678 -22.569 -17.481  0.00  0.00    +0.003 C 
ATOM      9  C   UNL     1      34.353 -23.549 -16.046  0.00  0.00    +0.139 C 
ATOM     10  C   UNL     1      33.016 -23.343 -16.371  0.00  0.00    +0.037 C 
ENDROOT
BRANCH   9  11
ATOM     11  O   UNL     1      34.680 -24.306 -14.962  0.00  0.00    -0.471 OA
BRANCH  11  12
ATOM     12  C   UNL     1      35.450 -23.678 -13.940  0.00  0.00    +0.234 C 
BRANCH  12  14
ATOM     13  F   UNL     1      35.763 -25.206 -11.583  0.00  0.00    -0.204 F 
ATOM     14  C   UNL     1      36.693 -24.443 -13.631  0.00  0.00    +0.049 C 
ATOM     15  C   UNL     1      36.786 -25.178 -12.449  0.00  0.00    +0.140 C 
ATOM     16  C   UNL     1      37.763 -24.420 -14.524  0.00  0.00    +0.002 C 
ATOM     17  C   UNL     1      37.949 -25.893 -12.163  0.00  0.00    +0.029 C 
ATOM     18  C   UNL     1      38.927 -25.134 -14.238  0.00  0.00    -0.000 C 
ATOM     19  C   UNL     1      39.020 -25.871 -13.057  0.00  0.00    +0.002 C 
ENDBRANCH  12  14
ENDBRANCH  11  12
ENDBRANCH   9  11
BRANCH   1  20
ATOM     20  C   UNL     1      34.001 -19.813 -21.375  0.00  0.00    +0.047 C 
BRANCH  20  25
ATOM     21  S   UNL     1      35.276 -17.368 -21.234  0.00  0.00    -0.048 S 
ATOM     22  O   UNL     1      34.973 -19.795 -24.220  0.00  0.00    -0.274 OA
ATOM     23  O   UNL     1      35.298 -15.370 -22.942  0.00  0.00    -0.263 OA
ATOM     24  N   UNL     1      35.142 -17.532 -23.780  0.00  0.00    -0.246 N 
ATOM     25  C   UNL     1      35.198 -19.047 -21.933  0.00  0.00    +0.137 C 
ATOM     26  C   UNL     1      35.089 -18.865 -23.430  0.00  0.00    +0.239 C 
ATOM     27  C   UNL     1      35.243 -16.582 -22.798  0.00  0.00    +0.279 C 
ATOM     28  H   UNL     1      35.107 -17.265 -24.727  0.00  0.00    +0.158 HD
ENDBRANCH  20  25
ENDBRANCH   1  20
TORSDOF 5
ENDMDL
