MODEL 1
REMARK VINA RESULT:     -12.8      0.000      0.000
REMARK  Name = 5326868
REMARK  6 active torsions:
REMARK  status: ('A' for Active; 'I' for Inactive)
REMARK    1  A    between atoms: C_2  and  C_28
REMARK    2  A    between atoms: C_7  and  N_12
REMARK    3  A    between atoms: C_13  and  C_18
REMARK    4  A    between atoms: C_16  and  N_23
REMARK    5  A    between atoms: C_28  and  C_29
REMARK    6  A    between atoms: C_29  and  C_31
REMARK                            x       y       z     vdW  Elec       q    Type
REMARK                         _______ _______ _______ _____ _____    ______ ____
ROOT
ATOM      1  N   UNL     1      34.945 -16.614 -24.285  0.00  0.00    -0.312 N 
ATOM      2  C   UNL     1      34.700 -15.697 -22.278  0.00  0.00    -0.006 C 
ATOM      3  C   UNL     1      34.786 -17.108 -22.116  0.00  0.00    +0.012 C 
ATOM      4  C   UNL     1      34.939 -17.659 -23.390  0.00  0.00    +0.048 C 
ATOM      5  C   UNL     1      34.801 -15.424 -23.623  0.00  0.00    +0.058 C 
ATOM      6  C   UNL     1      34.747 -17.973 -21.003  0.00  0.00    +0.016 C 
ATOM      7  C   UNL     1      34.864 -19.352 -21.206  0.00  0.00    +0.051 C 
ATOM      8  C   UNL     1      35.056 -19.037 -23.608  0.00  0.00    +0.016 C 
ATOM      9  C   UNL     1      35.017 -19.874 -22.489  0.00  0.00    +0.016 C 
ATOM     10  H   UNL     1      35.039 -16.707 -25.260  0.00  0.00    +0.152 HD
ENDROOT
BRANCH   7  12
ATOM     11  O   UNL     1      32.669 -21.145 -20.228  0.00  0.00    -0.270 OA
ATOM     12  N   UNL     1      34.826 -20.216 -20.109  0.00  0.00    -0.280 N 
ATOM     13  C   UNL     1      33.768 -21.035 -19.695  0.00  0.00    +0.250 C 
ATOM     14  H   UNL     1      35.642 -20.252 -19.560  0.00  0.00    +0.155 HD
BRANCH  13  18
ATOM     15  F   UNL     1      36.821 -22.989 -16.494  0.00  0.00    -0.204 F 
ATOM     16  C   UNL     1      33.185 -23.065 -16.600  0.00  0.00    +0.050 C 
ATOM     17  C   UNL     1      32.946 -22.324 -17.758  0.00  0.00    +0.019 C 
ATOM     18  C   UNL     1      34.022 -21.826 -18.462  0.00  0.00    +0.057 C 
ATOM     19  C   UNL     1      34.494 -23.290 -16.173  0.00  0.00    +0.044 C 
ATOM     20  C   UNL     1      35.325 -22.033 -18.061  0.00  0.00    +0.034 C 
ATOM     21  C   UNL     1      35.565 -22.774 -16.905  0.00  0.00    +0.142 C 
BRANCH  16  23
ATOM     22  O   UNL     1      29.982 -24.399 -14.225  0.00  0.00    -0.350 OA
ATOM     23  N   UNL     1      32.112 -23.582 -15.866  0.00  0.00    -0.303 N 
ATOM     24  C   UNL     1      30.749 -23.110 -16.133  0.00  0.00    +0.123 C 
ATOM     25  C   UNL     1      32.363 -24.020 -14.486  0.00  0.00    +0.123 C 
ATOM     26  C   UNL     1      29.740 -24.125 -15.604  0.00  0.00    +0.164 C 
ATOM     27  C   UNL     1      31.270 -24.988 -14.047  0.00  0.00    +0.164 C 
ENDBRANCH  16  23
ENDBRANCH  13  18
ENDBRANCH   7  12
BRANCH   2  28
ATOM     28  C   UNL     1      34.532 -14.698 -21.204  0.00  0.00    +0.032 C 
BRANCH  28  29
ATOM     29  C   UNL     1      33.088 -14.565 -20.672  0.00  0.00    +0.031 C 
BRANCH  29  31
ATOM     30  N   UNL     1      31.466 -10.626 -21.149  0.00  0.00    -0.242 NA
ATOM     31  C   UNL     1      32.517 -13.178 -20.839  0.00  0.00    -0.019 C 
ATOM     32  C   UNL     1      32.637 -12.537 -22.057  0.00  0.00    +0.016 C 
ATOM     33  C   UNL     1      31.884 -12.570 -19.773  0.00  0.00    +0.016 C 
ATOM     34  C   UNL     1      32.096 -11.266 -22.160  0.00  0.00    +0.099 C 
ATOM     35  C   UNL     1      31.376 -11.297 -19.978  0.00  0.00    +0.099 C 
ENDBRANCH  29  31
ENDBRANCH  28  29
ENDBRANCH   2  28
TORSDOF 6
ENDMDL
MODEL 2
REMARK VINA RESULT:     -12.3      2.265      3.053
REMARK  Name = 5326868
REMARK  6 active torsions:
REMARK  status: ('A' for Active; 'I' for Inactive)
REMARK    1  A    between atoms: C_2  and  C_28
REMARK    2  A    between atoms: C_7  and  N_12
REMARK    3  A    between atoms: C_13  and  C_18
REMARK    4  A    between atoms: C_16  and  N_23
REMARK    5  A    between atoms: C_28  and  C_29
REMARK    6  A    between atoms: C_29  and  C_31
REMARK                            x       y       z     vdW  Elec       q    Type
REMARK                         _______ _______ _______ _____ _____    ______ ____
ROOT
ATOM      1  N   UNL     1      35.265 -16.679 -24.218  0.00  0.00    -0.312 N 
ATOM      2  C   UNL     1      34.800 -15.734 -22.264  0.00  0.00    -0.006 C 
ATOM      3  C   UNL     1      34.811 -17.146 -22.085  0.00  0.00    +0.012 C 
ATOM      4  C   UNL     1      35.104 -17.714 -23.326  0.00  0.00    +0.048 C 
ATOM      5  C   UNL     1      35.083 -15.478 -23.586  0.00  0.00    +0.058 C 
ATOM      6  C   UNL     1      34.596 -17.997 -20.982  0.00  0.00    +0.016 C 
ATOM      7  C   UNL     1      34.684 -19.382 -21.162  0.00  0.00    +0.051 C 
ATOM      8  C   UNL     1      35.195 -19.098 -23.521  0.00  0.00    +0.016 C 
ATOM      9  C   UNL     1      34.980 -19.922 -22.412  0.00  0.00    +0.016 C 
ATOM     10  H   UNL     1      35.479 -16.786 -25.173  0.00  0.00    +0.152 HD
ENDROOT
BRANCH   7  12
ATOM     11  O   UNL     1      36.532 -21.345 -19.850  0.00  0.00    -0.270 OA
ATOM     12  N   UNL     1      34.472 -20.232 -20.075  0.00  0.00    -0.280 N 
ATOM     13  C   UNL     1      35.375 -21.135 -19.499  0.00  0.00    +0.250 C 
ATOM     14  H   UNL     1      33.580 -20.193 -19.663  0.00  0.00    +0.155 HD
BRANCH  13  18
ATOM     15  F   UNL     1      31.672 -23.151 -17.132  0.00  0.00    -0.204 F 
ATOM     16  C   UNL     1      35.224 -23.152 -16.345  0.00  0.00    +0.050 C 
ATOM     17  C   UNL     1      35.724 -22.406 -17.413  0.00  0.00    +0.019 C 
ATOM     18  C   UNL     1      34.843 -21.928 -18.360  0.00  0.00    +0.057 C 
ATOM     19  C   UNL     1      33.855 -23.403 -16.250  0.00  0.00    +0.044 C 
ATOM     20  C   UNL     1      33.486 -22.163 -18.290  0.00  0.00    +0.034 C 
ATOM     21  C   UNL     1      32.986 -22.908 -17.223  0.00  0.00    +0.142 C 
BRANCH  16  23
ATOM     22  O   UNL     1      37.861 -24.389 -13.312  0.00  0.00    -0.350 OA
ATOM     23  N   UNL     1      36.095 -23.649 -15.370  0.00  0.00    -0.303 N 
ATOM     24  C   UNL     1      35.578 -24.023 -14.049  0.00  0.00    +0.123 C 
ATOM     25  C   UNL     1      37.491 -23.190 -15.388  0.00  0.00    +0.123 C 
ATOM     26  C   UNL     1      36.558 -24.968 -13.361  0.00  0.00    +0.164 C 
ATOM     27  C   UNL     1      38.368 -24.180 -14.631  0.00  0.00    +0.164 C 
ENDBRANCH  16  23
ENDBRANCH  13  18
ENDBRANCH   7  12
BRANCH   2  28
ATOM     28  C   UNL     1      34.536 -14.718 -21.225  0.00  0.00    +0.032 C 
BRANCH  28  29
ATOM     29  C   UNL     1      33.057 -14.617 -20.791  0.00  0.00    +0.031 C 
BRANCH  29  31
ATOM     30  N   UNL     1      31.479 -10.642 -21.078  0.00  0.00    -0.242 NA
ATOM     31  C   UNL     1      32.502 -13.217 -20.891  0.00  0.00    -0.019 C 
ATOM     32  C   UNL     1      32.621 -12.523 -22.080  0.00  0.00    +0.016 C 
ATOM     33  C   UNL     1      31.882 -12.651 -19.795  0.00  0.00    +0.016 C 
ATOM     34  C   UNL     1      32.095 -11.242 -22.122  0.00  0.00    +0.099 C 
ATOM     35  C   UNL     1      31.388 -11.364 -19.938  0.00  0.00    +0.099 C 
ENDBRANCH  29  31
ENDBRANCH  28  29
ENDBRANCH   2  28
TORSDOF 6
ENDMDL
MODEL 3
REMARK VINA RESULT:     -12.1      4.973     12.117
REMARK  Name = 5326868
REMARK  6 active torsions:
REMARK  status: ('A' for Active; 'I' for Inactive)
REMARK    1  A    between atoms: C_2  and  C_28
REMARK    2  A    between atoms: C_7  and  N_12
REMARK    3  A    between atoms: C_13  and  C_18
REMARK    4  A    between atoms: C_16  and  N_23
REMARK    5  A    between atoms: C_28  and  C_29
REMARK    6  A    between atoms: C_29  and  C_31
REMARK                            x       y       z     vdW  Elec       q    Type
REMARK                         _______ _______ _______ _____ _____    ______ ____
ROOT
ATOM      1  N   UNL     1      34.644 -17.464 -25.062  0.00  0.00    -0.312 N 
ATOM      2  C   UNL     1      35.053 -17.204 -22.896  0.00  0.00    -0.006 C 
ATOM      3  C   UNL     1      34.548 -15.975 -23.405  0.00  0.00    +0.012 C 
ATOM      4  C   UNL     1      34.300 -16.165 -24.765  0.00  0.00    +0.048 C 
ATOM      5  C   UNL     1      35.101 -18.100 -23.939  0.00  0.00    +0.058 C 
ATOM      6  C   UNL     1      34.279 -14.713 -22.836  0.00  0.00    +0.016 C 
ATOM      7  C   UNL     1      33.771 -13.693 -23.647  0.00  0.00    +0.051 C 
ATOM      8  C   UNL     1      33.792 -15.154 -25.589  0.00  0.00    +0.016 C 
ATOM      9  C   UNL     1      33.531 -13.912 -25.003  0.00  0.00    +0.016 C 
ATOM     10  H   UNL     1      34.572 -17.877 -25.953  0.00  0.00    +0.152 HD
ENDROOT
BRANCH   7  12
ATOM     11  O   UNL     1      31.723 -12.876 -21.616  0.00  0.00    -0.270 OA
ATOM     12  N   UNL     1      33.501 -12.441 -23.092  0.00  0.00    -0.280 N 
ATOM     13  C   UNL     1      32.527 -12.112 -22.141  0.00  0.00    +0.250 C 
ATOM     14  H   UNL     1      34.064 -11.698 -23.407  0.00  0.00    +0.155 HD
BRANCH  13  18
ATOM     15  F   UNL     1      31.467  -8.633 -18.954  0.00  0.00    -0.204 F 
ATOM     16  C   UNL     1      32.836  -8.382 -22.315  0.00  0.00    +0.050 C 
ATOM     17  C   UNL     1      32.893  -9.730 -22.671  0.00  0.00    +0.019 C 
ATOM     18  C   UNL     1      32.465 -10.675 -21.763  0.00  0.00    +0.057 C 
ATOM     19  C   UNL     1      32.354  -8.012 -21.059  0.00  0.00    +0.044 C 
ATOM     20  C   UNL     1      31.985 -10.336 -20.515  0.00  0.00    +0.034 C 
ATOM     21  C   UNL     1      31.928  -8.989 -20.159  0.00  0.00    +0.142 C 
BRANCH  16  23
ATOM     22  O   UNL     1      34.107  -5.251 -24.818  0.00  0.00    -0.350 OA
ATOM     23  N   UNL     1      33.264  -7.402 -23.216  0.00  0.00    -0.303 N 
ATOM     24  C   UNL     1      34.686  -7.048 -23.292  0.00  0.00    +0.123 C 
ATOM     25  C   UNL     1      32.331  -6.319 -23.557  0.00  0.00    +0.123 C 
ATOM     26  C   UNL     1      34.976  -6.367 -24.625  0.00  0.00    +0.164 C 
ATOM     27  C   UNL     1      32.746  -5.678 -24.877  0.00  0.00    +0.164 C 
ENDBRANCH  16  23
ENDBRANCH  13  18
ENDBRANCH   7  12
BRANCH   2  28
ATOM     28  C   UNL     1      35.457 -17.479 -21.502  0.00  0.00    +0.032 C 
BRANCH  28  29
ATOM     29  C   UNL     1      36.209 -18.814 -21.304  0.00  0.00    +0.031 C 
BRANCH  29  31
ATOM     30  N   UNL     1      33.876 -21.783 -19.275  0.00  0.00    -0.242 NA
ATOM     31  C   UNL     1      35.388 -19.859 -20.591  0.00  0.00    -0.019 C 
ATOM     32  C   UNL     1      36.026 -20.846 -19.865  0.00  0.00    +0.016 C 
ATOM     33  C   UNL     1      34.009 -19.814 -20.673  0.00  0.00    +0.016 C 
ATOM     34  C   UNL     1      35.228 -21.782 -19.228  0.00  0.00    +0.099 C 
ATOM     35  C   UNL     1      33.301 -20.796 -19.999  0.00  0.00    +0.099 C 
ENDBRANCH  29  31
ENDBRANCH  28  29
ENDBRANCH   2  28
TORSDOF 6
ENDMDL
MODEL 4
REMARK VINA RESULT:     -11.4      4.469      8.316
REMARK  Name = 5326868
REMARK  6 active torsions:
REMARK  status: ('A' for Active; 'I' for Inactive)
REMARK    1  A    between atoms: C_2  and  C_28
REMARK    2  A    between atoms: C_7  and  N_12
REMARK    3  A    between atoms: C_13  and  C_18
REMARK    4  A    between atoms: C_16  and  N_23
REMARK    5  A    between atoms: C_28  and  C_29
REMARK    6  A    between atoms: C_29  and  C_31
REMARK                            x       y       z     vdW  Elec       q    Type
REMARK                         _______ _______ _______ _____ _____    ______ ____
ROOT
ATOM      1  N   UNL     1      31.554  -8.440 -21.542  0.00  0.00    -0.312 N 
ATOM      2  C   UNL     1      33.322  -8.586 -22.877  0.00  0.00    -0.006 C 
ATOM      3  C   UNL     1      32.945  -9.903 -22.492  0.00  0.00    +0.012 C 
ATOM      4  C   UNL     1      31.834  -9.783 -21.654  0.00  0.00    +0.048 C 
ATOM      5  C   UNL     1      32.448  -7.708 -22.278  0.00  0.00    +0.058 C 
ATOM      6  C   UNL     1      33.446 -11.190 -22.775  0.00  0.00    +0.016 C 
ATOM      7  C   UNL     1      32.816 -12.306 -22.212  0.00  0.00    +0.051 C 
ATOM      8  C   UNL     1      31.195 -10.890 -21.084  0.00  0.00    +0.016 C 
ATOM      9  C   UNL     1      31.708 -12.157 -21.380  0.00  0.00    +0.016 C 
ATOM     10  H   UNL     1      30.818  -8.061 -21.011  0.00  0.00    +0.152 HD
ENDROOT
BRANCH   7  12
ATOM     11  O   UNL     1      34.552 -14.111 -20.564  0.00  0.00    -0.270 OA
ATOM     12  N   UNL     1      33.306 -13.584 -22.488  0.00  0.00    -0.280 N 
ATOM     13  C   UNL     1      34.119 -14.388 -21.677  0.00  0.00    +0.250 C 
ATOM     14  H   UNL     1      33.050 -13.967 -23.357  0.00  0.00    +0.155 HD
BRANCH  13  18
ATOM     15  F   UNL     1      34.912 -17.221 -25.515  0.00  0.00    -0.204 F 
ATOM     16  C   UNL     1      35.187 -17.968 -21.965  0.00  0.00    +0.050 C 
ATOM     17  C   UNL     1      34.826 -16.737 -21.414  0.00  0.00    +0.019 C 
ATOM     18  C   UNL     1      34.501 -15.700 -22.263  0.00  0.00    +0.057 C 
ATOM     19  C   UNL     1      35.216 -18.131 -23.350  0.00  0.00    +0.044 C 
ATOM     20  C   UNL     1      34.523 -15.835 -23.635  0.00  0.00    +0.034 C 
ATOM     21  C   UNL     1      34.883 -17.064 -24.185  0.00  0.00    +0.142 C 
BRANCH  16  23
ATOM     22  O   UNL     1      36.205 -21.344 -19.674  0.00  0.00    -0.350 OA
ATOM     23  N   UNL     1      35.521 -19.037 -21.128  0.00  0.00    -0.303 N 
ATOM     24  C   UNL     1      36.930 -19.390 -20.919  0.00  0.00    +0.123 C 
ATOM     25  C   UNL     1      34.574 -20.155 -21.019  0.00  0.00    +0.123 C 
ATOM     26  C   UNL     1      37.071 -20.210 -19.641  0.00  0.00    +0.164 C 
ATOM     27  C   UNL     1      34.839 -20.932 -19.734  0.00  0.00    +0.164 C 
ENDBRANCH  16  23
ENDBRANCH  13  18
ENDBRANCH   7  12
BRANCH   2  28
ATOM     28  C   UNL     1      34.446  -8.216 -23.760  0.00  0.00    +0.032 C 
BRANCH  28  29
ATOM     29  C   UNL     1      34.977  -6.780 -23.555  0.00  0.00    +0.031 C 
BRANCH  29  31
ATOM     30  N   UNL     1      33.889  -4.106 -26.723  0.00  0.00    -0.242 NA
ATOM     31  C   UNL     1      34.594  -5.839 -24.671  0.00  0.00    -0.019 C 
ATOM     32  C   UNL     1      33.346  -5.248 -24.662  0.00  0.00    +0.016 C 
ATOM     33  C   UNL     1      35.497  -5.583 -25.684  0.00  0.00    +0.016 C 
ATOM     34  C   UNL     1      33.043  -4.391 -25.707  0.00  0.00    +0.099 C 
ATOM     35  C   UNL     1      35.098  -4.711 -26.685  0.00  0.00    +0.099 C 
ENDBRANCH  29  31
ENDBRANCH  28  29
ENDBRANCH   2  28
TORSDOF 6
ENDMDL
MODEL 5
REMARK VINA RESULT:     -11.4      5.008     12.058
REMARK  Name = 5326868
REMARK  6 active torsions:
REMARK  status: ('A' for Active; 'I' for Inactive)
REMARK    1  A    between atoms: C_2  and  C_28
REMARK    2  A    between atoms: C_7  and  N_12
REMARK    3  A    between atoms: C_13  and  C_18
REMARK    4  A    between atoms: C_16  and  N_23
REMARK    5  A    between atoms: C_28  and  C_29
REMARK    6  A    between atoms: C_29  and  C_31
REMARK                            x       y       z     vdW  Elec       q    Type
REMARK                         _______ _______ _______ _____ _____    ______ ____
ROOT
ATOM      1  N   UNL     1      35.191 -18.035 -24.703  0.00  0.00    -0.312 N 
ATOM      2  C   UNL     1      35.293 -17.751 -22.503  0.00  0.00    -0.006 C 
ATOM      3  C   UNL     1      34.715 -16.584 -23.076  0.00  0.00    +0.012 C 
ATOM      4  C   UNL     1      34.663 -16.788 -24.457  0.00  0.00    +0.048 C 
ATOM      5  C   UNL     1      35.575 -18.625 -23.528  0.00  0.00    +0.058 C 
ATOM      6  C   UNL     1      34.231 -15.369 -22.551  0.00  0.00    +0.016 C 
ATOM      7  C   UNL     1      33.713 -14.406 -23.425  0.00  0.00    +0.051 C 
ATOM      8  C   UNL     1      34.148 -15.834 -25.342  0.00  0.00    +0.016 C 
ATOM      9  C   UNL     1      33.672 -14.637 -24.799  0.00  0.00    +0.016 C 
ATOM     10  H   UNL     1      35.280 -18.444 -25.593  0.00  0.00    +0.152 HD
ENDROOT
BRANCH   7  12
ATOM     11  O   UNL     1      34.230 -11.587 -24.303  0.00  0.00    -0.270 OA
ATOM     12  N   UNL     1      33.232 -13.199 -22.913  0.00  0.00    -0.280 N 
ATOM     13  C   UNL     1      33.507 -11.902 -23.363  0.00  0.00    +0.250 C 
ATOM     14  H   UNL     1      32.625 -13.269 -22.141  0.00  0.00    +0.155 HD
BRANCH  13  18
ATOM     15  F   UNL     1      31.058 -10.359 -19.490  0.00  0.00    -0.204 F 
ATOM     16  C   UNL     1      32.290  -8.502 -22.366  0.00  0.00    +0.050 C 
ATOM     17  C   UNL     1      32.894  -9.527 -23.095  0.00  0.00    +0.019 C 
ATOM     18  C   UNL     1      32.862 -10.809 -22.588  0.00  0.00    +0.057 C 
ATOM     19  C   UNL     1      31.670  -8.783 -21.149  0.00  0.00    +0.044 C 
ATOM     20  C   UNL     1      32.256 -11.114 -21.387  0.00  0.00    +0.034 C 
ATOM     21  C   UNL     1      31.653 -10.090 -20.659  0.00  0.00    +0.142 C 
BRANCH  16  23
ATOM     22  O   UNL     1      32.458  -4.485 -23.598  0.00  0.00    -0.350 OA
ATOM     23  N   UNL     1      32.307  -7.191 -22.856  0.00  0.00    -0.303 N 
ATOM     24  C   UNL     1      33.518  -6.666 -23.497  0.00  0.00    +0.123 C 
ATOM     25  C   UNL     1      31.471  -6.188 -22.182  0.00  0.00    +0.123 C 
ATOM     26  C   UNL     1      33.160  -5.464 -24.364  0.00  0.00    +0.164 C 
ATOM     27  C   UNL     1      31.221  -5.013 -23.120  0.00  0.00    +0.164 C 
ENDBRANCH  16  23
ENDBRANCH  13  18
ENDBRANCH   7  12
BRANCH   2  28
ATOM     28  C   UNL     1      35.549 -17.992 -21.069  0.00  0.00    +0.032 C 
BRANCH  28  29
ATOM     29  C   UNL     1      36.130 -19.386 -20.746  0.00  0.00    +0.031 C 
BRANCH  29  31
ATOM     30  N   UNL     1      33.203 -22.130 -19.238  0.00  0.00    -0.242 NA
ATOM     31  C   UNL     1      35.100 -20.352 -20.216  0.00  0.00    -0.019 C 
ATOM     32  C   UNL     1      35.512 -21.460 -19.501  0.00  0.00    +0.016 C 
ATOM     33  C   UNL     1      33.760 -20.115 -20.452  0.00  0.00    +0.016 C 
ATOM     34  C   UNL     1      34.527 -22.316 -19.035  0.00  0.00    +0.099 C 
ATOM     35  C   UNL     1      32.853 -21.031 -19.943  0.00  0.00    +0.099 C 
ENDBRANCH  29  31
ENDBRANCH  28  29
ENDBRANCH   2  28
TORSDOF 6
ENDMDL
MODEL 6
REMARK VINA RESULT:     -11.2      8.770     15.468
REMARK  Name = 5326868
REMARK  6 active torsions:
REMARK  status: ('A' for Active; 'I' for Inactive)
REMARK    1  A    between atoms: C_2  and  C_28
REMARK    2  A    between atoms: C_7  and  N_12
REMARK    3  A    between atoms: C_13  and  C_18
REMARK    4  A    between atoms: C_16  and  N_23
REMARK    5  A    between atoms: C_28  and  C_29
REMARK    6  A    between atoms: C_29  and  C_31
REMARK                            x       y       z     vdW  Elec       q    Type
REMARK                         _______ _______ _______ _____ _____    ______ ____
ROOT
ATOM      1  N   UNL     1      31.707 -11.396 -19.126  0.00  0.00    -0.312 N 
ATOM      2  C   UNL     1      32.100 -12.120 -21.188  0.00  0.00    -0.006 C 
ATOM      3  C   UNL     1      32.148 -10.697 -21.198  0.00  0.00    +0.012 C 
ATOM      4  C   UNL     1      31.898 -10.269 -19.893  0.00  0.00    +0.048 C 
ATOM      5  C   UNL     1      31.827 -12.519 -19.900  0.00  0.00    +0.058 C 
ATOM      6  C   UNL     1      32.379  -9.730 -22.197  0.00  0.00    +0.016 C 
ATOM      7  C   UNL     1      32.354  -8.374 -21.853  0.00  0.00    +0.051 C 
ATOM      8  C   UNL     1      31.869  -8.916 -19.535  0.00  0.00    +0.016 C 
ATOM      9  C   UNL     1      32.103  -7.975 -20.542  0.00  0.00    +0.016 C 
ATOM     10  H   UNL     1      31.513 -11.395 -18.162  0.00  0.00    +0.152 HD
ENDROOT
BRANCH   7  12
ATOM     11  O   UNL     1      34.928  -7.279 -22.932  0.00  0.00    -0.270 OA
ATOM     12  N   UNL     1      32.582  -7.410 -22.837  0.00  0.00    -0.280 N 
ATOM     13  C   UNL     1      33.812  -6.932 -23.305  0.00  0.00    +0.250 C 
ATOM     14  H   UNL     1      31.780  -7.017 -23.251  0.00  0.00    +0.155 HD
BRANCH  13  18
ATOM     15  F   UNL     1      31.558  -3.147 -25.301  0.00  0.00    -0.204 F 
ATOM     16  C   UNL     1      34.645  -4.807 -26.277  0.00  0.00    +0.050 C 
ATOM     17  C   UNL     1      34.723  -5.800 -25.300  0.00  0.00    +0.019 C 
ATOM     18  C   UNL     1      33.729  -5.874 -24.348  0.00  0.00    +0.057 C 
ATOM     19  C   UNL     1      33.576  -3.911 -26.277  0.00  0.00    +0.044 C 
ATOM     20  C   UNL     1      32.662  -5.001 -24.325  0.00  0.00    +0.034 C 
ATOM     21  C   UNL     1      32.584  -4.008 -25.301  0.00  0.00    +0.142 C 
BRANCH  16  23
ATOM     22  O   UNL     1      37.572  -4.240 -29.243  0.00  0.00    -0.350 OA
ATOM     23  N   UNL     1      35.640  -4.708 -27.255  0.00  0.00    -0.303 N 
ATOM     24  C   UNL     1      36.985  -4.251 -26.888  0.00  0.00    +0.123 C 
ATOM     25  C   UNL     1      35.230  -4.401 -28.633  0.00  0.00    +0.123 C 
ATOM     26  C   UNL     1      37.986  -4.688 -27.952  0.00  0.00    +0.164 C 
ATOM     27  C   UNL     1      36.324  -4.832 -29.603  0.00  0.00    +0.164 C 
ENDBRANCH  16  23
ENDBRANCH  13  18
ENDBRANCH   7  12
BRANCH   2  28
ATOM     28  C   UNL     1      32.305 -13.014 -22.345  0.00  0.00    +0.032 C 
BRANCH  28  29
ATOM     29  C   UNL     1      33.468 -14.017 -22.181  0.00  0.00    +0.031 C 
BRANCH  29  31
ATOM     30  N   UNL     1      34.440 -16.085 -25.808  0.00  0.00    -0.242 NA
ATOM     31  C   UNL     1      33.810 -14.746 -23.457  0.00  0.00    -0.019 C 
ATOM     32  C   UNL     1      33.278 -14.305 -24.654  0.00  0.00    +0.016 C 
ATOM     33  C   UNL     1      34.649 -15.842 -23.411  0.00  0.00    +0.016 C 
ATOM     34  C   UNL     1      33.623 -15.007 -25.798  0.00  0.00    +0.099 C 
ATOM     35  C   UNL     1      34.933 -16.475 -24.611  0.00  0.00    +0.099 C 
ENDBRANCH  29  31
ENDBRANCH  28  29
ENDBRANCH   2  28
TORSDOF 6
ENDMDL
MODEL 7
REMARK VINA RESULT:     -11.1      7.056     11.454
REMARK  Name = 5326868
REMARK  6 active torsions:
REMARK  status: ('A' for Active; 'I' for Inactive)
REMARK    1  A    between atoms: C_2  and  C_28
REMARK    2  A    between atoms: C_7  and  N_12
REMARK    3  A    between atoms: C_13  and  C_18
REMARK    4  A    between atoms: C_16  and  N_23
REMARK    5  A    between atoms: C_28  and  C_29
REMARK    6  A    between atoms: C_29  and  C_31
REMARK                            x       y       z     vdW  Elec       q    Type
REMARK                         _______ _______ _______ _____ _____    ______ ____
ROOT
ATOM      1  N   UNL     1      31.937  -4.489 -22.140  0.00  0.00    -0.312 N 
ATOM      2  C   UNL     1      32.666  -5.522 -23.965  0.00  0.00    -0.006 C 
ATOM      3  C   UNL     1      32.490  -6.496 -22.942  0.00  0.00    +0.012 C 
ATOM      4  C   UNL     1      32.033  -5.821 -21.808  0.00  0.00    +0.048 C 
ATOM      5  C   UNL     1      32.318  -4.298 -23.441  0.00  0.00    +0.058 C 
ATOM      6  C   UNL     1      32.678  -7.891 -22.872  0.00  0.00    +0.016 C 
ATOM      7  C   UNL     1      32.401  -8.557 -21.673  0.00  0.00    +0.051 C 
ATOM      8  C   UNL     1      31.751  -6.475 -20.602  0.00  0.00    +0.016 C 
ATOM      9  C   UNL     1      31.944  -7.859 -20.557  0.00  0.00    +0.016 C 
ATOM     10  H   UNL     1      31.638  -3.777 -21.530  0.00  0.00    +0.152 HD
ENDROOT
BRANCH   7  12
ATOM     11  O   UNL     1      30.393 -10.765 -21.376  0.00  0.00    -0.270 OA
ATOM     12  N   UNL     1      32.585  -9.940 -21.595  0.00  0.00    -0.280 N 
ATOM     13  C   UNL     1      31.606 -10.932 -21.456  0.00  0.00    +0.250 C 
ATOM     14  H   UNL     1      33.516 -10.255 -21.644  0.00  0.00    +0.155 HD
BRANCH  13  18
ATOM     15  F   UNL     1      32.496 -14.952 -18.920  0.00  0.00    -0.204 F 
ATOM     16  C   UNL     1      33.114 -14.221 -22.430  0.00  0.00    +0.050 C 
ATOM     17  C   UNL     1      32.634 -12.913 -22.509  0.00  0.00    +0.019 C 
ATOM     18  C   UNL     1      32.120 -12.325 -21.373  0.00  0.00    +0.057 C 
ATOM     19  C   UNL     1      33.068 -14.909 -21.218  0.00  0.00    +0.044 C 
ATOM     20  C   UNL     1      32.062 -12.984 -20.162  0.00  0.00    +0.034 C 
ATOM     21  C   UNL     1      32.542 -14.290 -20.083  0.00  0.00    +0.142 C 
BRANCH  16  23
ATOM     22  O   UNL     1      34.869 -15.873 -25.876  0.00  0.00    -0.350 OA
ATOM     23  N   UNL     1      33.641 -14.842 -23.567  0.00  0.00    -0.303 N 
ATOM     24  C   UNL     1      34.851 -15.664 -23.458  0.00  0.00    +0.123 C 
ATOM     25  C   UNL     1      33.444 -14.189 -24.868  0.00  0.00    +0.123 C 
ATOM     26  C   UNL     1      34.944 -16.606 -24.653  0.00  0.00    +0.164 C 
ATOM     27  C   UNL     1      33.610 -15.210 -25.988  0.00  0.00    +0.164 C 
ENDBRANCH  16  23
ENDBRANCH  13  18
ENDBRANCH   7  12
BRANCH   2  28
ATOM     28  C   UNL     1      33.137  -5.770 -25.342  0.00  0.00    +0.032 C 
BRANCH  28  29
ATOM     29  C   UNL     1      34.671  -5.704 -25.517  0.00  0.00    +0.031 C 
BRANCH  29  31
ATOM     30  N   UNL     1      35.901  -3.076 -28.671  0.00  0.00    -0.242 NA
ATOM     31  C   UNL     1      35.104  -4.779 -26.627  0.00  0.00    -0.019 C 
ATOM     32  C   UNL     1      34.164  -3.986 -27.256  0.00  0.00    +0.016 C 
ATOM     33  C   UNL     1      36.434  -4.739 -26.999  0.00  0.00    +0.016 C 
ATOM     34  C   UNL     1      34.612  -3.154 -28.269  0.00  0.00    +0.099 C 
ATOM     35  C   UNL     1      36.781  -3.873 -28.024  0.00  0.00    +0.099 C 
ENDBRANCH  29  31
ENDBRANCH  28  29
ENDBRANCH   2  28
TORSDOF 6
ENDMDL
MODEL 8
REMARK VINA RESULT:     -11.1      3.316     10.089
REMARK  Name = 5326868
REMARK  6 active torsions:
REMARK  status: ('A' for Active; 'I' for Inactive)
REMARK    1  A    between atoms: C_2  and  C_28
REMARK    2  A    between atoms: C_7  and  N_12
REMARK    3  A    between atoms: C_13  and  C_18
REMARK    4  A    between atoms: C_16  and  N_23
REMARK    5  A    between atoms: C_28  and  C_29
REMARK    6  A    between atoms: C_29  and  C_31
REMARK                            x       y       z     vdW  Elec       q    Type
REMARK                         _______ _______ _______ _____ _____    ______ ____
ROOT
ATOM      1  N   UNL     1      35.952 -23.452 -15.163  0.00  0.00    -0.312 N 
ATOM      2  C   UNL     1      33.900 -23.529 -16.006  0.00  0.00    -0.006 C 
ATOM      3  C   UNL     1      34.722 -22.788 -16.902  0.00  0.00    +0.012 C 
ATOM      4  C   UNL     1      36.003 -22.755 -16.349  0.00  0.00    +0.048 C 
ATOM      5  C   UNL     1      34.684 -23.923 -14.947  0.00  0.00    +0.058 C 
ATOM      6  C   UNL     1      34.496 -22.140 -18.133  0.00  0.00    +0.016 C 
ATOM      7  C   UNL     1      35.560 -21.486 -18.764  0.00  0.00    +0.051 C 
ATOM      8  C   UNL     1      37.076 -22.104 -16.969  0.00  0.00    +0.016 C 
ATOM      9  C   UNL     1      36.829 -21.469 -18.190  0.00  0.00    +0.016 C 
ATOM     10  H   UNL     1      36.715 -23.591 -14.558  0.00  0.00    +0.152 HD
ENDROOT
BRANCH   7  12
ATOM     11  O   UNL     1      37.013 -19.184 -20.020  0.00  0.00    -0.270 OA
ATOM     12  N   UNL     1      35.345 -20.841 -19.984  0.00  0.00    -0.280 N 
ATOM     13  C   UNL     1      36.057 -19.764 -20.525  0.00  0.00    +0.250 C 
ATOM     14  H   UNL     1      34.601 -21.185 -20.529  0.00  0.00    +0.155 HD
BRANCH  13  18
ATOM     15  F   UNL     1      34.828 -20.573 -25.132  0.00  0.00    -0.204 F 
ATOM     16  C   UNL     1      34.805 -17.479 -23.218  0.00  0.00    +0.050 C 
ATOM     17  C   UNL     1      35.265 -17.936 -21.983  0.00  0.00    +0.019 C 
ATOM     18  C   UNL     1      35.568 -19.274 -21.842  0.00  0.00    +0.057 C 
ATOM     19  C   UNL     1      34.657 -18.369 -24.281  0.00  0.00    +0.044 C 
ATOM     20  C   UNL     1      35.430 -20.176 -22.876  0.00  0.00    +0.034 C 
ATOM     21  C   UNL     1      34.970 -19.718 -24.111  0.00  0.00    +0.142 C 
BRANCH  16  23
ATOM     22  O   UNL     1      34.127 -13.365 -23.768  0.00  0.00    -0.350 OA
ATOM     23  N   UNL     1      34.489 -16.127 -23.390  0.00  0.00    -0.303 N 
ATOM     24  C   UNL     1      34.324 -15.580 -24.741  0.00  0.00    +0.123 C 
ATOM     25  C   UNL     1      34.966 -15.170 -22.382  0.00  0.00    +0.123 C 
ATOM     26  C   UNL     1      33.523 -14.284 -24.677  0.00  0.00    +0.164 C 
ATOM     27  C   UNL     1      34.129 -13.898 -22.443  0.00  0.00    +0.164 C 
ENDBRANCH  16  23
ENDBRANCH  13  18
ENDBRANCH   7  12
BRANCH   2  28
ATOM     28  C   UNL     1      32.463 -23.826 -16.174  0.00  0.00    +0.032 C 
BRANCH  28  29
ATOM     29  C   UNL     1      31.588 -23.470 -14.951  0.00  0.00    +0.031 C 
BRANCH  29  31
ATOM     30  N   UNL     1      27.409 -23.236 -15.872  0.00  0.00    -0.242 NA
ATOM     31  C   UNL     1      30.117 -23.387 -15.276  0.00  0.00    -0.019 C 
ATOM     32  C   UNL     1      29.561 -24.305 -16.145  0.00  0.00    +0.016 C 
ATOM     33  C   UNL     1      29.348 -22.396 -14.698  0.00  0.00    +0.016 C 
ATOM     34  C   UNL     1      28.206 -24.187 -16.410  0.00  0.00    +0.099 C 
ATOM     35  C   UNL     1      28.002 -22.362 -15.028  0.00  0.00    +0.099 C 
ENDBRANCH  29  31
ENDBRANCH  28  29
ENDBRANCH   2  28
TORSDOF 6
ENDMDL
MODEL 9
REMARK VINA RESULT:     -10.8      7.607     14.951
REMARK  Name = 5326868
REMARK  6 active torsions:
REMARK  status: ('A' for Active; 'I' for Inactive)
REMARK    1  A    between atoms: C_2  and  C_28
REMARK    2  A    between atoms: C_7  and  N_12
REMARK    3  A    between atoms: C_13  and  C_18
REMARK    4  A    between atoms: C_16  and  N_23
REMARK    5  A    between atoms: C_28  and  C_29
REMARK    6  A    between atoms: C_29  and  C_31
REMARK                            x       y       z     vdW  Elec       q    Type
REMARK                         _______ _______ _______ _____ _____    ______ ____
ROOT
ATOM      1  N   UNL     1      32.055 -13.409 -19.719  0.00  0.00    -0.312 N 
ATOM      2  C   UNL     1      32.581 -13.292 -21.872  0.00  0.00    -0.006 C 
ATOM      3  C   UNL     1      32.253 -11.982 -21.422  0.00  0.00    +0.012 C 
ATOM      4  C   UNL     1      31.926 -12.084 -20.068  0.00  0.00    +0.048 C 
ATOM      5  C   UNL     1      32.449 -14.147 -20.802  0.00  0.00    +0.058 C 
ATOM      6  C   UNL     1      32.201 -10.716 -22.039  0.00  0.00    +0.016 C 
ATOM      7  C   UNL     1      31.828  -9.602 -21.280  0.00  0.00    +0.051 C 
ATOM      8  C   UNL     1      31.550 -10.978 -19.297  0.00  0.00    +0.016 C 
ATOM      9  C   UNL     1      31.508  -9.732 -19.930  0.00  0.00    +0.016 C 
ATOM     10  H   UNL     1      31.887 -13.774 -18.820  0.00  0.00    +0.152 HD
ENDROOT
BRANCH   7  12
ATOM     11  O   UNL     1      33.928  -8.087 -22.792  0.00  0.00    -0.270 OA
ATOM     12  N   UNL     1      31.773  -8.344 -21.885  0.00  0.00    -0.280 N 
ATOM     13  C   UNL     1      32.790  -7.679 -22.582  0.00  0.00    +0.250 C 
ATOM     14  H   UNL     1      30.917  -7.866 -21.811  0.00  0.00    +0.155 HD
BRANCH  13  18
ATOM     15  F   UNL     1      30.319  -3.542 -22.183  0.00  0.00    -0.204 F 
ATOM     16  C   UNL     1      32.693  -4.608 -24.725  0.00  0.00    +0.050 C 
ATOM     17  C   UNL     1      33.026  -5.877 -24.251  0.00  0.00    +0.019 C 
ATOM     18  C   UNL     1      32.435  -6.328 -23.089  0.00  0.00    +0.057 C 
ATOM     19  C   UNL     1      31.779  -3.819 -24.027  0.00  0.00    +0.044 C 
ATOM     20  C   UNL     1      31.529  -5.568 -22.379  0.00  0.00    +0.034 C 
ATOM     21  C   UNL     1      31.196  -4.300 -22.853  0.00  0.00    +0.142 C 
BRANCH  16  23
ATOM     22  O   UNL     1      34.605  -2.988 -28.102  0.00  0.00    -0.350 OA
ATOM     23  N   UNL     1      33.278  -4.125 -25.901  0.00  0.00    -0.303 N 
ATOM     24  C   UNL     1      34.550  -4.686 -26.369  0.00  0.00    +0.123 C 
ATOM     25  C   UNL     1      33.040  -2.722 -26.268  0.00  0.00    +0.123 C 
ATOM     26  C   UNL     1      34.728  -4.388 -27.854  0.00  0.00    +0.164 C 
ATOM     27  C   UNL     1      33.297  -2.530 -27.759  0.00  0.00    +0.164 C 
ENDBRANCH  16  23
ENDBRANCH  13  18
ENDBRANCH   7  12
BRANCH   2  28
ATOM     28  C   UNL     1      32.989 -13.675 -23.239  0.00  0.00    +0.032 C 
BRANCH  28  29
ATOM     29  C   UNL     1      34.482 -14.046 -23.381  0.00  0.00    +0.031 C 
BRANCH  29  31
ATOM     30  N   UNL     1      35.193 -18.271 -23.268  0.00  0.00    -0.242 NA
ATOM     31  C   UNL     1      34.732 -15.533 -23.341  0.00  0.00    -0.019 C 
ATOM     32  C   UNL     1      34.643 -16.269 -24.507  0.00  0.00    +0.016 C 
ATOM     33  C   UNL     1      35.046 -16.138 -22.140  0.00  0.00    +0.016 C 
ATOM     34  C   UNL     1      34.883 -17.631 -24.418  0.00  0.00    +0.099 C 
ATOM     35  C   UNL     1      35.267 -17.506 -22.156  0.00  0.00    +0.099 C 
ENDBRANCH  29  31
ENDBRANCH  28  29
ENDBRANCH   2  28
TORSDOF 6
ENDMDL
