MODEL 1
REMARK VINA RESULT:     -12.1      0.000      0.000
REMARK  Name = 23635314
REMARK  9 active torsions:
REMARK  status: ('A' for Active; 'I' for Inactive)
REMARK    1  A    between atoms: C_2  and  C_8
REMARK    2  A    between atoms: C_3  and  C_23
REMARK    3  A    between atoms: C_7  and  O_13
REMARK    4  A    between atoms: O_13  and  C_14
REMARK    5  A    between atoms: C_14  and  C_15
REMARK    6  A    between atoms: C_15  and  N_17
REMARK    7  A    between atoms: C_23  and  C_26
REMARK    8  A    between atoms: N_25  and  C_28
REMARK    9  A    between atoms: C_28  and  C_29
REMARK                            x       y       z     vdW  Elec       q    Type
REMARK                         _______ _______ _______ _____ _____    ______ ____
ROOT
ATOM      1  N   UNL     1      35.320 -16.941 -22.750  0.00  0.00    -0.248 NA
ATOM      2  C   UNL     1      34.964 -19.180 -21.915  0.00  0.00    +0.019 C 
ATOM      3  C   UNL     1      34.986 -17.398 -23.978  0.00  0.00    +0.068 C 
ATOM      4  C   UNL     1      34.627 -19.613 -23.191  0.00  0.00    +0.003 C 
ATOM      5  C   UNL     1      35.299 -17.847 -21.747  0.00  0.00    +0.098 C 
ATOM      6  C   UNL     1      34.636 -18.711 -24.248  0.00  0.00    +0.015 C 
ENDROOT
BRANCH   2   8
ATOM      7  C   UNL     1      34.963 -21.852 -18.639  0.00  0.00    +0.138 C 
ATOM      8  C   UNL     1      34.964 -20.094 -20.794  0.00  0.00    +0.002 C 
ATOM      9  C   UNL     1      36.170 -21.401 -19.160  0.00  0.00    +0.037 C 
ATOM     10  C   UNL     1      33.754 -21.434 -19.187  0.00  0.00    +0.037 C 
ATOM     11  C   UNL     1      36.171 -20.519 -20.240  0.00  0.00    +0.003 C 
ATOM     12  C   UNL     1      33.756 -20.552 -20.268  0.00  0.00    +0.003 C 
BRANCH   7  13
ATOM     13  O   UNL     1      34.962 -22.719 -17.578  0.00  0.00    -0.478 OA
BRANCH  13  14
ATOM     14  C   UNL     1      35.942 -22.501 -16.572  0.00  0.00    +0.183 C 
BRANCH  14  15
ATOM     15  C   UNL     1      35.660 -23.432 -15.404  0.00  0.00    -0.029 C 
BRANCH  15  17
ATOM     16  O   UNL     1      38.222 -26.416 -13.938  0.00  0.00    -0.358 OA
ATOM     17  N   UNL     1      36.655 -24.501 -15.345  0.00  0.00    +0.393 N 
ATOM     18  C   UNL     1      37.806 -24.099 -14.524  0.00  0.00    -0.044 C 
ATOM     19  C   UNL     1      36.063 -25.736 -14.811  0.00  0.00    -0.044 C 
ATOM     20  C   UNL     1      38.823 -25.234 -14.468  0.00  0.00    +0.119 C 
ATOM     21  C   UNL     1      37.121 -26.832 -14.748  0.00  0.00    +0.119 C 
ATOM     22  H   UNL     1      36.979 -24.679 -16.295  0.00  0.00    -0.079 HD
ENDBRANCH  15  17
ENDBRANCH  14  15
ENDBRANCH  13  14
ENDBRANCH   7  13
ENDBRANCH   2   8
BRANCH   3  23
ATOM     23  C   UNL     1      35.007 -16.402 -25.090  0.00  0.00    +0.131 C 
BRANCH  23  26
ATOM     24  O   UNL     1      33.021 -15.077 -25.495  0.00  0.00    -0.275 OA
ATOM     25  N   UNL     1      34.551 -14.348 -23.909  0.00  0.00    -0.300 N 
ATOM     26  C   UNL     1      34.071 -15.222 -24.874  0.00  0.00    +0.229 C 
ATOM     27  H   UNL     1      35.406 -14.556 -23.467  0.00  0.00    +0.150 HD
BRANCH  25  28
ATOM     28  C   UNL     1      33.845 -13.148 -23.525  0.00  0.00    +0.116 C 
BRANCH  28  29
ATOM     29  C   UNL     1      33.173 -13.294 -22.191  0.00  0.00    -0.003 C 
ATOM     30  C   UNL     1      32.390 -12.256 -21.698  0.00  0.00    -0.003 C 
ATOM     31  C   UNL     1      33.339 -14.466 -21.462  0.00  0.00    -0.003 C 
ATOM     32  C   UNL     1      31.765 -12.392 -20.459  0.00  0.00    -0.000 C 
ATOM     33  C   UNL     1      32.714 -14.602 -20.223  0.00  0.00    -0.000 C 
ATOM     34  C   UNL     1      31.927 -13.564 -19.720  0.00  0.00    -0.000 C 
ENDBRANCH  28  29
ENDBRANCH  25  28
ENDBRANCH  23  26
ENDBRANCH   3  23
TORSDOF 9
ENDMDL
MODEL 2
REMARK VINA RESULT:     -12.0      2.369      3.307
REMARK  Name = 23635314
REMARK  9 active torsions:
REMARK  status: ('A' for Active; 'I' for Inactive)
REMARK    1  A    between atoms: C_2  and  C_8
REMARK    2  A    between atoms: C_3  and  C_23
REMARK    3  A    between atoms: C_7  and  O_13
REMARK    4  A    between atoms: O_13  and  C_14
REMARK    5  A    between atoms: C_14  and  C_15
REMARK    6  A    between atoms: C_15  and  N_17
REMARK    7  A    between atoms: C_23  and  C_26
REMARK    8  A    between atoms: N_25  and  C_28
REMARK    9  A    between atoms: C_28  and  C_29
REMARK                            x       y       z     vdW  Elec       q    Type
REMARK                         _______ _______ _______ _____ _____    ______ ____
ROOT
ATOM      1  N   UNL     1      35.321 -16.982 -22.542  0.00  0.00    -0.248 NA
ATOM      2  C   UNL     1      34.859 -19.228 -21.780  0.00  0.00    +0.019 C 
ATOM      3  C   UNL     1      35.035 -17.400 -23.795  0.00  0.00    +0.068 C 
ATOM      4  C   UNL     1      34.574 -19.621 -23.082  0.00  0.00    +0.003 C 
ATOM      5  C   UNL     1      35.224 -17.910 -21.563  0.00  0.00    +0.098 C 
ATOM      6  C   UNL     1      34.662 -18.695 -24.115  0.00  0.00    +0.015 C 
ENDROOT
BRANCH   2   8
ATOM      7  C   UNL     1      34.619 -21.973 -18.575  0.00  0.00    +0.138 C 
ATOM      8  C   UNL     1      34.776 -20.167 -20.683  0.00  0.00    +0.002 C 
ATOM      9  C   UNL     1      33.453 -21.453 -19.124  0.00  0.00    +0.037 C 
ATOM     10  C   UNL     1      35.864 -21.598 -19.069  0.00  0.00    +0.037 C 
ATOM     11  C   UNL     1      33.532 -20.548 -20.182  0.00  0.00    +0.003 C 
ATOM     12  C   UNL     1      35.942 -20.692 -20.126  0.00  0.00    +0.003 C 
BRANCH   7  13
ATOM     13  O   UNL     1      34.542 -22.862 -17.535  0.00  0.00    -0.478 OA
BRANCH  13  14
ATOM     14  C   UNL     1      33.264 -23.038 -16.936  0.00  0.00    +0.183 C 
BRANCH  14  15
ATOM     15  C   UNL     1      33.446 -23.204 -15.437  0.00  0.00    -0.029 C 
BRANCH  15  17
ATOM     16  O   UNL     1      29.820 -24.933 -14.218  0.00  0.00    -0.358 OA
ATOM     17  N   UNL     1      32.157 -23.406 -14.779  0.00  0.00    +0.393 N 
ATOM     18  C   UNL     1      31.083 -23.561 -15.771  0.00  0.00    -0.044 C 
ATOM     19  C   UNL     1      32.199 -24.580 -13.895  0.00  0.00    -0.044 C 
ATOM     20  C   UNL     1      29.751 -23.782 -15.061  0.00  0.00    +0.119 C 
ATOM     21  C   UNL     1      30.840 -24.777 -13.230  0.00  0.00    +0.119 C 
ATOM     22  H   UNL     1      31.961 -22.580 -14.214  0.00  0.00    -0.079 HD
ENDBRANCH  15  17
ENDBRANCH  14  15
ENDBRANCH  13  14
ENDBRANCH   7  13
ENDBRANCH   2   8
BRANCH   3  23
ATOM     23  C   UNL     1      35.141 -16.380 -24.880  0.00  0.00    +0.131 C 
BRANCH  23  26
ATOM     24  O   UNL     1      33.078 -15.244 -25.445  0.00  0.00    -0.275 OA
ATOM     25  N   UNL     1      34.479 -14.299 -23.854  0.00  0.00    -0.300 N 
ATOM     26  C   UNL     1      34.109 -15.267 -24.777  0.00  0.00    +0.229 C 
ATOM     27  H   UNL     1      35.329 -14.410 -23.368  0.00  0.00    +0.150 HD
BRANCH  25  28
ATOM     28  C   UNL     1      33.668 -13.136 -23.576  0.00  0.00    +0.116 C 
BRANCH  28  29
ATOM     29  C   UNL     1      33.041 -13.202 -22.214  0.00  0.00    -0.003 C 
ATOM     30  C   UNL     1      33.175 -14.355 -21.450  0.00  0.00    -0.003 C 
ATOM     31  C   UNL     1      32.334 -12.108 -21.729  0.00  0.00    -0.003 C 
ATOM     32  C   UNL     1      32.593 -14.417 -20.184  0.00  0.00    -0.000 C 
ATOM     33  C   UNL     1      31.751 -12.169 -20.463  0.00  0.00    -0.000 C 
ATOM     34  C   UNL     1      31.880 -13.324 -19.691  0.00  0.00    -0.000 C 
ENDBRANCH  28  29
ENDBRANCH  25  28
ENDBRANCH  23  26
ENDBRANCH   3  23
TORSDOF 9
ENDMDL
MODEL 3
REMARK VINA RESULT:     -11.8      4.197      7.232
REMARK  Name = 23635314
REMARK  9 active torsions:
REMARK  status: ('A' for Active; 'I' for Inactive)
REMARK    1  A    between atoms: C_2  and  C_8
REMARK    2  A    between atoms: C_3  and  C_23
REMARK    3  A    between atoms: C_7  and  O_13
REMARK    4  A    between atoms: O_13  and  C_14
REMARK    5  A    between atoms: C_14  and  C_15
REMARK    6  A    between atoms: C_15  and  N_17
REMARK    7  A    between atoms: C_23  and  C_26
REMARK    8  A    between atoms: N_25  and  C_28
REMARK    9  A    between atoms: C_28  and  C_29
REMARK                            x       y       z     vdW  Elec       q    Type
REMARK                         _______ _______ _______ _____ _____    ______ ____
ROOT
ATOM      1  N   UNL     1      32.666 -11.428 -22.491  0.00  0.00    -0.248 NA
ATOM      2  C   UNL     1      33.235 -13.648 -21.729  0.00  0.00    +0.019 C 
ATOM      3  C   UNL     1      31.897 -11.298 -21.387  0.00  0.00    +0.068 C 
ATOM      4  C   UNL     1      32.433 -13.479 -20.606  0.00  0.00    +0.003 C 
ATOM      5  C   UNL     1      33.318 -12.603 -22.633  0.00  0.00    +0.098 C 
ATOM      6  C   UNL     1      31.747 -12.284 -20.425  0.00  0.00    +0.015 C 
ENDROOT
BRANCH   2   8
ATOM      7  C   UNL     1      35.357 -17.249 -22.363  0.00  0.00    +0.138 C 
ATOM      8  C   UNL     1      33.961 -14.880 -21.946  0.00  0.00    +0.002 C 
ATOM      9  C   UNL     1      35.001 -16.459 -23.450  0.00  0.00    +0.037 C 
ATOM     10  C   UNL     1      35.021 -16.866 -21.068  0.00  0.00    +0.037 C 
ATOM     11  C   UNL     1      34.302 -15.271 -23.241  0.00  0.00    +0.003 C 
ATOM     12  C   UNL     1      34.321 -15.679 -20.860  0.00  0.00    +0.003 C 
BRANCH   7  13
ATOM     13  O   UNL     1      36.044 -18.416 -22.568  0.00  0.00    -0.478 OA
BRANCH  13  14
ATOM     14  C   UNL     1      35.438 -19.610 -22.088  0.00  0.00    +0.183 C 
BRANCH  14  15
ATOM     15  C   UNL     1      36.120 -20.016 -20.791  0.00  0.00    -0.029 C 
BRANCH  15  17
ATOM     16  O   UNL     1      33.115 -22.334 -18.999  0.00  0.00    -0.358 OA
ATOM     17  N   UNL     1      35.141 -20.515 -19.828  0.00  0.00    +0.393 N 
ATOM     18  C   UNL     1      33.783 -20.459 -20.386  0.00  0.00    -0.044 C 
ATOM     19  C   UNL     1      35.462 -21.891 -19.422  0.00  0.00    -0.044 C 
ATOM     20  C   UNL     1      32.782 -20.995 -19.367  0.00  0.00    +0.119 C 
ATOM     21  C   UNL     1      34.422 -22.393 -18.426  0.00  0.00    +0.119 C 
ATOM     22  H   UNL     1      35.180 -19.915 -19.004  0.00  0.00    -0.079 HD
ENDBRANCH  15  17
ENDBRANCH  14  15
ENDBRANCH  13  14
ENDBRANCH   7  13
ENDBRANCH   2   8
BRANCH   3  23
ATOM     23  C   UNL     1      31.174 -10.002 -21.225  0.00  0.00    +0.131 C 
BRANCH  23  26
ATOM     24  O   UNL     1      32.122  -8.313 -19.771  0.00  0.00    -0.275 OA
ATOM     25  N   UNL     1      32.844  -8.430 -21.975  0.00  0.00    -0.300 N 
ATOM     26  C   UNL     1      32.084  -8.831 -20.885  0.00  0.00    +0.229 C 
ATOM     27  H   UNL     1      32.739  -8.913 -22.827  0.00  0.00    +0.150 HD
BRANCH  25  28
ATOM     28  C   UNL     1      33.783  -7.335 -21.908  0.00  0.00    +0.116 C 
BRANCH  28  29
ATOM     29  C   UNL     1      33.850  -6.575 -23.201  0.00  0.00    -0.003 C 
ATOM     30  C   UNL     1      35.007  -6.627 -23.970  0.00  0.00    -0.003 C 
ATOM     31  C   UNL     1      32.755  -5.826 -23.616  0.00  0.00    -0.003 C 
ATOM     32  C   UNL     1      35.070  -5.921 -25.172  0.00  0.00    -0.000 C 
ATOM     33  C   UNL     1      32.818  -5.119 -24.817  0.00  0.00    -0.000 C 
ATOM     34  C   UNL     1      33.976  -5.166 -25.595  0.00  0.00    -0.000 C 
ENDBRANCH  28  29
ENDBRANCH  25  28
ENDBRANCH  23  26
ENDBRANCH   3  23
TORSDOF 9
ENDMDL
MODEL 4
REMARK VINA RESULT:     -11.1      4.473      7.446
REMARK  Name = 23635314
REMARK  9 active torsions:
REMARK  status: ('A' for Active; 'I' for Inactive)
REMARK    1  A    between atoms: C_2  and  C_8
REMARK    2  A    between atoms: C_3  and  C_23
REMARK    3  A    between atoms: C_7  and  O_13
REMARK    4  A    between atoms: O_13  and  C_14
REMARK    5  A    between atoms: C_14  and  C_15
REMARK    6  A    between atoms: C_15  and  N_17
REMARK    7  A    between atoms: C_23  and  C_26
REMARK    8  A    between atoms: N_25  and  C_28
REMARK    9  A    between atoms: C_28  and  C_29
REMARK                            x       y       z     vdW  Elec       q    Type
REMARK                         _______ _______ _______ _____ _____    ______ ____
ROOT
ATOM      1  N   UNL     1      32.890 -10.856 -22.835  0.00  0.00    -0.248 NA
ATOM      2  C   UNL     1      33.147 -13.125 -22.049  0.00  0.00    +0.019 C 
ATOM      3  C   UNL     1      31.928 -10.692 -21.899  0.00  0.00    +0.068 C 
ATOM      4  C   UNL     1      32.154 -12.920 -21.100  0.00  0.00    +0.003 C 
ATOM      5  C   UNL     1      33.477 -12.072 -22.886  0.00  0.00    +0.098 C 
ATOM      6  C   UNL     1      31.527 -11.682 -21.017  0.00  0.00    +0.015 C 
ENDROOT
BRANCH   2   8
ATOM      7  C   UNL     1      35.109 -16.856 -22.376  0.00  0.00    +0.138 C 
ATOM      8  C   UNL     1      33.818 -14.402 -22.161  0.00  0.00    +0.002 C 
ATOM      9  C   UNL     1      34.859 -16.317 -21.119  0.00  0.00    +0.037 C 
ATOM     10  C   UNL     1      34.720 -16.179 -23.528  0.00  0.00    +0.037 C 
ATOM     11  C   UNL     1      34.212 -15.087 -21.011  0.00  0.00    +0.003 C 
ATOM     12  C   UNL     1      34.073 -14.948 -23.419  0.00  0.00    +0.003 C 
BRANCH   7  13
ATOM     13  O   UNL     1      35.745 -18.065 -22.483  0.00  0.00    -0.478 OA
BRANCH  13  14
ATOM     14  C   UNL     1      35.885 -18.822 -21.288  0.00  0.00    +0.183 C 
BRANCH  14  15
ATOM     15  C   UNL     1      34.837 -19.923 -21.282  0.00  0.00    -0.029 C 
BRANCH  15  17
ATOM     16  O   UNL     1      34.530 -22.755 -18.200  0.00  0.00    -0.358 OA
ATOM     17  N   UNL     1      34.725 -20.522 -19.954  0.00  0.00    +0.393 N 
ATOM     18  C   UNL     1      33.484 -21.300 -19.835  0.00  0.00    -0.044 C 
ATOM     19  C   UNL     1      35.885 -21.378 -19.667  0.00  0.00    -0.044 C 
ATOM     20  C   UNL     1      33.395 -21.923 -18.445  0.00  0.00    +0.119 C 
ATOM     21  C   UNL     1      35.740 -22.001 -18.282  0.00  0.00    +0.119 C 
ATOM     22  H   UNL     1      34.702 -19.765 -19.271  0.00  0.00    -0.079 HD
ENDBRANCH  15  17
ENDBRANCH  14  15
ENDBRANCH  13  14
ENDBRANCH   7  13
ENDBRANCH   2   8
BRANCH   3  23
ATOM     23  C   UNL     1      31.276  -9.351 -21.838  0.00  0.00    +0.131 C 
BRANCH  23  26
ATOM     24  O   UNL     1      32.291  -7.614 -20.488  0.00  0.00    -0.275 OA
ATOM     25  N   UNL     1      33.046  -7.932 -22.660  0.00  0.00    -0.300 N 
ATOM     26  C   UNL     1      32.244  -8.209 -21.562  0.00  0.00    +0.229 C 
ATOM     27  H   UNL     1      32.931  -8.469 -23.478  0.00  0.00    +0.150 HD
BRANCH  25  28
ATOM     28  C   UNL     1      34.045  -6.889 -22.651  0.00  0.00    +0.116 C 
BRANCH  28  29
ATOM     29  C   UNL     1      34.060  -6.116 -23.938  0.00  0.00    -0.003 C 
ATOM     30  C   UNL     1      32.938  -5.390 -24.318  0.00  0.00    -0.003 C 
ATOM     31  C   UNL     1      35.198  -6.134 -24.737  0.00  0.00    -0.003 C 
ATOM     32  C   UNL     1      32.952  -4.671 -25.513  0.00  0.00    -0.000 C 
ATOM     33  C   UNL     1      35.212  -5.415 -25.933  0.00  0.00    -0.000 C 
ATOM     34  C   UNL     1      34.088  -4.685 -26.321  0.00  0.00    -0.000 C 
ENDBRANCH  28  29
ENDBRANCH  25  28
ENDBRANCH  23  26
ENDBRANCH   3  23
TORSDOF 9
ENDMDL
MODEL 5
REMARK VINA RESULT:     -11.1      2.014      3.067
REMARK  Name = 23635314
REMARK  9 active torsions:
REMARK  status: ('A' for Active; 'I' for Inactive)
REMARK    1  A    between atoms: C_2  and  C_8
REMARK    2  A    between atoms: C_3  and  C_23
REMARK    3  A    between atoms: C_7  and  O_13
REMARK    4  A    between atoms: O_13  and  C_14
REMARK    5  A    between atoms: C_14  and  C_15
REMARK    6  A    between atoms: C_15  and  N_17
REMARK    7  A    between atoms: C_23  and  C_26
REMARK    8  A    between atoms: N_25  and  C_28
REMARK    9  A    between atoms: C_28  and  C_29
REMARK                            x       y       z     vdW  Elec       q    Type
REMARK                         _______ _______ _______ _____ _____    ______ ____
ROOT
ATOM      1  N   UNL     1      36.954 -19.990 -20.518  0.00  0.00    -0.248 NA
ATOM      2  C   UNL     1      35.169 -21.081 -19.311  0.00  0.00    +0.019 C 
ATOM      3  C   UNL     1      36.020 -19.507 -21.367  0.00  0.00    +0.068 C 
ATOM      4  C   UNL     1      34.237 -20.566 -20.204  0.00  0.00    +0.003 C 
ATOM      5  C   UNL     1      36.503 -20.767 -19.508  0.00  0.00    +0.098 C 
ATOM      6  C   UNL     1      34.663 -19.763 -21.256  0.00  0.00    +0.015 C 
ENDROOT
BRANCH   2   8
ATOM      7  C   UNL     1      33.965 -23.532 -16.084  0.00  0.00    +0.138 C 
ATOM      8  C   UNL     1      34.757 -21.919 -18.207  0.00  0.00    +0.002 C 
ATOM      9  C   UNL     1      35.269 -23.052 -16.135  0.00  0.00    +0.037 C 
ATOM     10  C   UNL     1      33.053 -23.215 -17.086  0.00  0.00    +0.037 C 
ATOM     11  C   UNL     1      35.666 -22.243 -17.199  0.00  0.00    +0.003 C 
ATOM     12  C   UNL     1      33.451 -22.406 -18.149  0.00  0.00    +0.003 C 
BRANCH   7  13
ATOM     13  O   UNL     1      33.575 -24.328 -15.039  0.00  0.00    -0.478 OA
BRANCH  13  14
ATOM     14  C   UNL     1      34.609 -24.946 -14.284  0.00  0.00    +0.183 C 
BRANCH  14  15
ATOM     15  C   UNL     1      34.573 -24.398 -12.866  0.00  0.00    -0.029 C 
BRANCH  15  17
ATOM     16  O   UNL     1      38.714 -24.349 -12.186  0.00  0.00    -0.358 OA
ATOM     17  N   UNL     1      35.875 -24.549 -12.221  0.00  0.00    +0.393 N 
ATOM     18  C   UNL     1      36.722 -25.492 -12.966  0.00  0.00    -0.044 C 
ATOM     19  C   UNL     1      36.553 -23.251 -12.100  0.00  0.00    -0.044 C 
ATOM     20  C   UNL     1      38.078 -25.624 -12.279  0.00  0.00    +0.119 C 
ATOM     21  C   UNL     1      37.913 -23.436 -11.435  0.00  0.00    +0.119 C 
ATOM     22  H   UNL     1      35.718 -24.923 -11.285  0.00  0.00    -0.079 HD
ENDBRANCH  15  17
ENDBRANCH  14  15
ENDBRANCH  13  14
ENDBRANCH   7  13
ENDBRANCH   2   8
BRANCH   3  23
ATOM     23  C   UNL     1      36.513 -18.649 -22.485  0.00  0.00    +0.131 C 
BRANCH  23  26
ATOM     24  O   UNL     1      34.565 -18.433 -23.909  0.00  0.00    -0.275 OA
ATOM     25  N   UNL     1      35.486 -16.519 -22.970  0.00  0.00    -0.300 N 
ATOM     26  C   UNL     1      35.410 -17.885 -23.204  0.00  0.00    +0.229 C 
ATOM     27  H   UNL     1      36.204 -16.179 -22.388  0.00  0.00    +0.150 HD
BRANCH  25  28
ATOM     28  C   UNL     1      34.553 -15.578 -23.544  0.00  0.00    +0.116 C 
BRANCH  28  29
ATOM     29  C   UNL     1      33.779 -14.841 -22.490  0.00  0.00    -0.003 C 
ATOM     30  C   UNL     1      33.069 -13.697 -22.833  0.00  0.00    -0.003 C 
ATOM     31  C   UNL     1      33.779 -15.312 -21.182  0.00  0.00    -0.003 C 
ATOM     32  C   UNL     1      32.349 -13.012 -21.853  0.00  0.00    -0.000 C 
ATOM     33  C   UNL     1      33.059 -14.628 -20.203  0.00  0.00    -0.000 C 
ATOM     34  C   UNL     1      32.345 -13.476 -20.538  0.00  0.00    -0.000 C 
ENDBRANCH  28  29
ENDBRANCH  25  28
ENDBRANCH  23  26
ENDBRANCH   3  23
TORSDOF 9
ENDMDL
MODEL 6
REMARK VINA RESULT:     -11.1      2.001      3.561
REMARK  Name = 23635314
REMARK  9 active torsions:
REMARK  status: ('A' for Active; 'I' for Inactive)
REMARK    1  A    between atoms: C_2  and  C_8
REMARK    2  A    between atoms: C_3  and  C_23
REMARK    3  A    between atoms: C_7  and  O_13
REMARK    4  A    between atoms: O_13  and  C_14
REMARK    5  A    between atoms: C_14  and  C_15
REMARK    6  A    between atoms: C_15  and  N_17
REMARK    7  A    between atoms: C_23  and  C_26
REMARK    8  A    between atoms: N_25  and  C_28
REMARK    9  A    between atoms: C_28  and  C_29
REMARK                            x       y       z     vdW  Elec       q    Type
REMARK                         _______ _______ _______ _____ _____    ______ ____
ROOT
ATOM      1  N   UNL     1      35.902 -20.730 -20.484  0.00  0.00    -0.248 NA
ATOM      2  C   UNL     1      34.597 -21.693 -18.694  0.00  0.00    +0.019 C 
ATOM      3  C   UNL     1      34.746 -20.270 -21.014  0.00  0.00    +0.068 C 
ATOM      4  C   UNL     1      33.430 -21.205 -19.268  0.00  0.00    +0.003 C 
ATOM      5  C   UNL     1      35.797 -21.432 -19.334  0.00  0.00    +0.098 C 
ATOM      6  C   UNL     1      33.497 -20.478 -20.451  0.00  0.00    +0.015 C 
ENDROOT
BRANCH   2   8
ATOM      7  C   UNL     1      34.490 -23.912 -15.097  0.00  0.00    +0.138 C 
ATOM      8  C   UNL     1      34.560 -22.453 -17.463  0.00  0.00    +0.002 C 
ATOM      9  C   UNL     1      33.326 -23.745 -15.838  0.00  0.00    +0.037 C 
ATOM     10  C   UNL     1      35.690 -23.356 -15.528  0.00  0.00    +0.037 C 
ATOM     11  C   UNL     1      33.361 -23.014 -17.025  0.00  0.00    +0.003 C 
ATOM     12  C   UNL     1      35.724 -22.624 -16.714  0.00  0.00    +0.003 C 
BRANCH   7  13
ATOM     13  O   UNL     1      34.456 -24.631 -13.931  0.00  0.00    -0.478 OA
BRANCH  13  14
ATOM     14  C   UNL     1      35.082 -24.043 -12.798  0.00  0.00    +0.183 C 
BRANCH  14  15
ATOM     15  C   UNL     1      36.079 -25.034 -12.222  0.00  0.00    -0.029 C 
BRANCH  15  17
ATOM     16  O   UNL     1      39.412 -26.791 -14.073  0.00  0.00    -0.358 OA
ATOM     17  N   UNL     1      37.123 -25.342 -13.197  0.00  0.00    +0.393 N 
ATOM     18  C   UNL     1      38.456 -25.088 -12.633  0.00  0.00    -0.044 C 
ATOM     19  C   UNL     1      37.024 -26.738 -13.645  0.00  0.00    -0.044 C 
ATOM     20  C   UNL     1      39.528 -25.427 -13.664  0.00  0.00    +0.119 C 
ATOM     21  C   UNL     1      38.130 -27.039 -14.653  0.00  0.00    +0.119 C 
ATOM     22  H   UNL     1      36.989 -24.731 -14.002  0.00  0.00    -0.079 HD
ENDBRANCH  15  17
ENDBRANCH  14  15
ENDBRANCH  13  14
ENDBRANCH   7  13
ENDBRANCH   2   8
BRANCH   3  23
ATOM     23  C   UNL     1      34.855 -19.494 -22.285  0.00  0.00    +0.131 C 
BRANCH  23  26
ATOM     24  O   UNL     1      36.203 -17.778 -21.234  0.00  0.00    -0.275 OA
ATOM     25  N   UNL     1      34.819 -17.190 -23.002  0.00  0.00    -0.300 N 
ATOM     26  C   UNL     1      35.381 -18.079 -22.096  0.00  0.00    +0.229 C 
ATOM     27  H   UNL     1      34.167 -17.533 -23.656  0.00  0.00    +0.150 HD
BRANCH  25  28
ATOM     28  C   UNL     1      35.153 -15.786 -23.025  0.00  0.00    +0.116 C 
BRANCH  28  29
ATOM     29  C   UNL     1      34.122 -14.952 -22.319  0.00  0.00    -0.003 C 
ATOM     30  C   UNL     1      33.509 -13.902 -22.992  0.00  0.00    -0.003 C 
ATOM     31  C   UNL     1      33.791 -15.240 -21.000  0.00  0.00    -0.003 C 
ATOM     32  C   UNL     1      32.551 -13.128 -22.337  0.00  0.00    -0.000 C 
ATOM     33  C   UNL     1      32.833 -14.466 -20.345  0.00  0.00    -0.000 C 
ATOM     34  C   UNL     1      32.214 -13.409 -21.014  0.00  0.00    -0.000 C 
ENDBRANCH  28  29
ENDBRANCH  25  28
ENDBRANCH  23  26
ENDBRANCH   3  23
TORSDOF 9
ENDMDL
MODEL 7
REMARK VINA RESULT:     -11.0      3.121      4.606
REMARK  Name = 23635314
REMARK  9 active torsions:
REMARK  status: ('A' for Active; 'I' for Inactive)
REMARK    1  A    between atoms: C_2  and  C_8
REMARK    2  A    between atoms: C_3  and  C_23
REMARK    3  A    between atoms: C_7  and  O_13
REMARK    4  A    between atoms: O_13  and  C_14
REMARK    5  A    between atoms: C_14  and  C_15
REMARK    6  A    between atoms: C_15  and  N_17
REMARK    7  A    between atoms: C_23  and  C_26
REMARK    8  A    between atoms: N_25  and  C_28
REMARK    9  A    between atoms: C_28  and  C_29
REMARK                            x       y       z     vdW  Elec       q    Type
REMARK                         _______ _______ _______ _____ _____    ______ ____
ROOT
ATOM      1  N   UNL     1      37.037 -19.867 -20.539  0.00  0.00    -0.248 NA
ATOM      2  C   UNL     1      35.304 -21.058 -19.350  0.00  0.00    +0.019 C 
ATOM      3  C   UNL     1      36.079 -19.397 -21.368  0.00  0.00    +0.068 C 
ATOM      4  C   UNL     1      34.346 -20.555 -20.223  0.00  0.00    +0.003 C 
ATOM      5  C   UNL     1      36.624 -20.688 -19.548  0.00  0.00    +0.098 C 
ATOM      6  C   UNL     1      34.734 -19.708 -21.255  0.00  0.00    +0.015 C 
ENDROOT
BRANCH   2   8
ATOM      7  C   UNL     1      34.221 -23.640 -16.184  0.00  0.00    +0.138 C 
ATOM      8  C   UNL     1      34.933 -21.942 -18.267  0.00  0.00    +0.002 C 
ATOM      9  C   UNL     1      33.315 -23.388 -17.207  0.00  0.00    +0.037 C 
ATOM     10  C   UNL     1      35.481 -23.050 -16.191  0.00  0.00    +0.037 C 
ATOM     11  C   UNL     1      33.672 -22.537 -18.252  0.00  0.00    +0.003 C 
ATOM     12  C   UNL     1      35.837 -22.198 -17.236  0.00  0.00    +0.003 C 
BRANCH   7  13
ATOM     13  O   UNL     1      33.870 -24.476 -15.156  0.00  0.00    -0.478 OA
BRANCH  13  14
ATOM     14  C   UNL     1      33.559 -23.866 -13.911  0.00  0.00    +0.183 C 
BRANCH  14  15
ATOM     15  C   UNL     1      32.243 -24.432 -13.404  0.00  0.00    -0.029 C 
BRANCH  15  17
ATOM     16  O   UNL     1      28.544 -23.614 -15.211  0.00  0.00    -0.358 OA
ATOM     17  N   UNL     1      31.193 -24.277 -14.409  0.00  0.00    +0.393 N 
ATOM     18  C   UNL     1      30.057 -25.163 -14.118  0.00  0.00    -0.044 C 
ATOM     19  C   UNL     1      30.738 -22.882 -14.479  0.00  0.00    -0.044 C 
ATOM     20  C   UNL     1      28.972 -24.976 -15.174  0.00  0.00    +0.119 C 
ATOM     21  C   UNL     1      29.636 -22.748 -15.525  0.00  0.00    +0.119 C 
ATOM     22  H   UNL     1      31.586 -24.538 -15.313  0.00  0.00    -0.079 HD
ENDBRANCH  15  17
ENDBRANCH  14  15
ENDBRANCH  13  14
ENDBRANCH   7  13
ENDBRANCH   2   8
BRANCH   3  23
ATOM     23  C   UNL     1      36.530 -18.491 -22.465  0.00  0.00    +0.131 C 
BRANCH  23  26
ATOM     24  O   UNL     1      34.571 -18.375 -23.885  0.00  0.00    -0.275 OA
ATOM     25  N   UNL     1      35.399 -16.415 -22.956  0.00  0.00    -0.300 N 
ATOM     26  C   UNL     1      35.390 -17.784 -23.185  0.00  0.00    +0.229 C 
ATOM     27  H   UNL     1      36.101 -16.039 -22.376  0.00  0.00    +0.150 HD
BRANCH  25  28
ATOM     28  C   UNL     1      34.421 -15.523 -23.531  0.00  0.00    +0.116 C 
BRANCH  28  29
ATOM     29  C   UNL     1      33.667 -14.763 -22.479  0.00  0.00    -0.003 C 
ATOM     30  C   UNL     1      33.617 -15.254 -21.180  0.00  0.00    -0.003 C 
ATOM     31  C   UNL     1      33.027 -13.575 -22.814  0.00  0.00    -0.003 C 
ATOM     32  C   UNL     1      32.916 -14.548 -20.202  0.00  0.00    -0.000 C 
ATOM     33  C   UNL     1      32.326 -12.869 -21.836  0.00  0.00    -0.000 C 
ATOM     34  C   UNL     1      32.270 -13.356 -20.530  0.00  0.00    -0.000 C 
ENDBRANCH  28  29
ENDBRANCH  25  28
ENDBRANCH  23  26
ENDBRANCH   3  23
TORSDOF 9
ENDMDL
MODEL 8
REMARK VINA RESULT:     -11.0      3.595     11.899
REMARK  Name = 23635314
REMARK  9 active torsions:
REMARK  status: ('A' for Active; 'I' for Inactive)
REMARK    1  A    between atoms: C_2  and  C_8
REMARK    2  A    between atoms: C_3  and  C_23
REMARK    3  A    between atoms: C_7  and  O_13
REMARK    4  A    between atoms: O_13  and  C_14
REMARK    5  A    between atoms: C_14  and  C_15
REMARK    6  A    between atoms: C_15  and  N_17
REMARK    7  A    between atoms: C_23  and  C_26
REMARK    8  A    between atoms: N_25  and  C_28
REMARK    9  A    between atoms: C_28  and  C_29
REMARK                            x       y       z     vdW  Elec       q    Type
REMARK                         _______ _______ _______ _____ _____    ______ ____
ROOT
ATOM      1  N   UNL     1      35.003 -16.882 -21.350  0.00  0.00    -0.248 NA
ATOM      2  C   UNL     1      33.873 -14.854 -22.018  0.00  0.00    +0.019 C 
ATOM      3  C   UNL     1      35.160 -17.169 -22.662  0.00  0.00    +0.068 C 
ATOM      4  C   UNL     1      34.052 -15.183 -23.356  0.00  0.00    +0.003 C 
ATOM      5  C   UNL     1      34.362 -15.728 -21.061  0.00  0.00    +0.098 C 
ATOM      6  C   UNL     1      34.707 -16.362 -23.692  0.00  0.00    +0.015 C 
ENDROOT
BRANCH   2   8
ATOM      7  C   UNL     1      31.894 -11.291 -20.897  0.00  0.00    +0.138 C 
ATOM      8  C   UNL     1      33.196 -13.635 -21.635  0.00  0.00    +0.002 C 
ATOM      9  C   UNL     1      32.491 -11.382 -22.149  0.00  0.00    +0.037 C 
ATOM     10  C   UNL     1      31.941 -12.361 -20.010  0.00  0.00    +0.037 C 
ATOM     11  C   UNL     1      33.144 -12.558 -22.519  0.00  0.00    +0.003 C 
ATOM     12  C   UNL     1      32.594 -13.536 -20.380  0.00  0.00    +0.003 C 
BRANCH   7  13
ATOM     13  O   UNL     1      31.253 -10.136 -20.534  0.00  0.00    -0.478 OA
BRANCH  13  14
ATOM     14  C   UNL     1      31.899  -9.322 -19.563  0.00  0.00    +0.183 C 
BRANCH  14  15
ATOM     15  C   UNL     1      31.892  -7.882 -20.049  0.00  0.00    -0.029 C 
BRANCH  15  17
ATOM     16  O   UNL     1      33.127  -6.443 -23.793  0.00  0.00    -0.358 OA
ATOM     17  N   UNL     1      32.214  -7.816 -21.472  0.00  0.00    +0.393 N 
ATOM     18  C   UNL     1      31.380  -6.814 -22.151  0.00  0.00    -0.044 C 
ATOM     19  C   UNL     1      33.637  -7.505 -21.672  0.00  0.00    -0.044 C 
ATOM     20  C   UNL     1      31.742  -6.756 -23.632  0.00  0.00    +0.119 C 
ATOM     21  C   UNL     1      33.946  -7.430 -23.164  0.00  0.00    +0.119 C 
ATOM     22  H   UNL     1      32.020  -8.731 -21.880  0.00  0.00    -0.079 HD
ENDBRANCH  15  17
ENDBRANCH  14  15
ENDBRANCH  13  14
ENDBRANCH   7  13
ENDBRANCH   2   8
BRANCH   3  23
ATOM     23  C   UNL     1      35.867 -18.443 -22.988  0.00  0.00    +0.131 C 
BRANCH  23  26
ATOM     24  O   UNL     1      37.882 -18.675 -21.664  0.00  0.00    -0.275 OA
ATOM     25  N   UNL     1      35.990 -19.870 -21.045  0.00  0.00    -0.300 N 
ATOM     26  C   UNL     1      36.707 -18.988 -21.842  0.00  0.00    +0.229 C 
ATOM     27  H   UNL     1      35.050 -20.054 -21.273  0.00  0.00    +0.150 HD
BRANCH  25  28
ATOM     28  C   UNL     1      36.567 -20.525 -19.895  0.00  0.00    +0.116 C 
BRANCH  28  29
ATOM     29  C   UNL     1      35.543 -21.302 -19.120  0.00  0.00    -0.003 C 
ATOM     30  C   UNL     1      35.931 -22.019 -17.994  0.00  0.00    -0.003 C 
ATOM     31  C   UNL     1      34.216 -21.297 -19.535  0.00  0.00    -0.003 C 
ATOM     32  C   UNL     1      34.980 -22.742 -17.274  0.00  0.00    -0.000 C 
ATOM     33  C   UNL     1      33.264 -22.019 -18.814  0.00  0.00    -0.000 C 
ATOM     34  C   UNL     1      33.647 -22.742 -17.684  0.00  0.00    -0.000 C 
ENDBRANCH  28  29
ENDBRANCH  25  28
ENDBRANCH  23  26
ENDBRANCH   3  23
TORSDOF 9
ENDMDL
MODEL 9
REMARK VINA RESULT:     -11.0      1.589      2.452
REMARK  Name = 23635314
REMARK  9 active torsions:
REMARK  status: ('A' for Active; 'I' for Inactive)
REMARK    1  A    between atoms: C_2  and  C_8
REMARK    2  A    between atoms: C_3  and  C_23
REMARK    3  A    between atoms: C_7  and  O_13
REMARK    4  A    between atoms: O_13  and  C_14
REMARK    5  A    between atoms: C_14  and  C_15
REMARK    6  A    between atoms: C_15  and  N_17
REMARK    7  A    between atoms: C_23  and  C_26
REMARK    8  A    between atoms: N_25  and  C_28
REMARK    9  A    between atoms: C_28  and  C_29
REMARK                            x       y       z     vdW  Elec       q    Type
REMARK                         _______ _______ _______ _____ _____    ______ ____
ROOT
ATOM      1  N   UNL     1      35.037 -16.799 -21.999  0.00  0.00    -0.248 NA
ATOM      2  C   UNL     1      34.799 -19.145 -21.475  0.00  0.00    +0.019 C 
ATOM      3  C   UNL     1      35.012 -17.138 -23.307  0.00  0.00    +0.068 C 
ATOM      4  C   UNL     1      34.779 -19.456 -22.829  0.00  0.00    +0.003 C 
ATOM      5  C   UNL     1      34.929 -17.815 -21.113  0.00  0.00    +0.098 C 
ATOM      6  C   UNL     1      34.887 -18.438 -23.769  0.00  0.00    +0.015 C 
ENDROOT
BRANCH   2   8
ATOM      7  C   UNL     1      34.476 -22.174 -18.543  0.00  0.00    +0.138 C 
ATOM      8  C   UNL     1      34.689 -20.182 -20.472  0.00  0.00    +0.002 C 
ATOM      9  C   UNL     1      35.732 -21.786 -18.997  0.00  0.00    +0.037 C 
ATOM     10  C   UNL     1      33.325 -21.576 -19.046  0.00  0.00    +0.037 C 
ATOM     11  C   UNL     1      35.839 -20.786 -19.963  0.00  0.00    +0.003 C 
ATOM     12  C   UNL     1      33.433 -20.577 -20.013  0.00  0.00    +0.003 C 
BRANCH   7  13
ATOM     13  O   UNL     1      34.371 -23.156 -17.594  0.00  0.00    -0.478 OA
BRANCH  13  14
ATOM     14  C   UNL     1      35.243 -23.062 -16.475  0.00  0.00    +0.183 C 
BRANCH  14  15
ATOM     15  C   UNL     1      34.418 -22.750 -15.237  0.00  0.00    -0.029 C 
BRANCH  15  17
ATOM     16  O   UNL     1      36.605 -24.903 -12.373  0.00  0.00    -0.358 OA
ATOM     17  N   UNL     1      35.158 -23.090 -14.024  0.00  0.00    +0.393 N 
ATOM     18  C   UNL     1      34.481 -24.162 -13.281  0.00  0.00    -0.044 C 
ATOM     19  C   UNL     1      36.534 -23.494 -14.347  0.00  0.00    -0.044 C 
ATOM     20  C   UNL     1      35.278 -24.506 -12.026  0.00  0.00    +0.119 C 
ATOM     21  C   UNL     1      37.283 -23.854 -13.068  0.00  0.00    +0.119 C 
ATOM     22  H   UNL     1      35.193 -22.258 -13.436  0.00  0.00    -0.079 HD
ENDBRANCH  15  17
ENDBRANCH  14  15
ENDBRANCH  13  14
ENDBRANCH   7  13
ENDBRANCH   2   8
BRANCH   3  23
ATOM     23  C   UNL     1      35.131 -16.021 -24.290  0.00  0.00    +0.131 C 
BRANCH  23  26
ATOM     24  O   UNL     1      33.211 -14.898 -25.249  0.00  0.00    -0.275 OA
ATOM     25  N   UNL     1      33.811 -14.419 -23.058  0.00  0.00    -0.300 N 
ATOM     26  C   UNL     1      33.946 -15.066 -24.279  0.00  0.00    +0.229 C 
ATOM     27  H   UNL     1      34.455 -14.624 -22.341  0.00  0.00    +0.150 HD
BRANCH  25  28
ATOM     28  C   UNL     1      32.764 -13.459 -22.797  0.00  0.00    +0.116 C 
BRANCH  28  29
ATOM     29  C   UNL     1      33.207 -12.054 -23.085  0.00  0.00    -0.003 C 
ATOM     30  C   UNL     1      34.299 -11.834 -23.916  0.00  0.00    -0.003 C 
ATOM     31  C   UNL     1      32.520 -10.987 -22.518  0.00  0.00    -0.003 C 
ATOM     32  C   UNL     1      34.711 -10.528 -24.184  0.00  0.00    -0.000 C 
ATOM     33  C   UNL     1      32.931  -9.681 -22.785  0.00  0.00    -0.000 C 
ATOM     34  C   UNL     1      34.028  -9.452 -23.618  0.00  0.00    -0.000 C 
ENDBRANCH  28  29
ENDBRANCH  25  28
ENDBRANCH  23  26
ENDBRANCH   3  23
TORSDOF 9
ENDMDL
