MODEL 1
REMARK VINA RESULT:     -11.6      0.000      0.000
REMARK  Name = 5326930
REMARK  4 active torsions:
REMARK  status: ('A' for Active; 'I' for Inactive)
REMARK    1  A    between atoms: C_7  and  C_21
REMARK    2  A    between atoms: C_21  and  C_22
REMARK    3  A    between atoms: C_22  and  C_23
REMARK    4  A    between atoms: C_28  and  O_29
REMARK                            x       y       z     vdW  Elec       q    Type
REMARK                         _______ _______ _______ _____ _____    ______ ____
ROOT
ATOM      1  O   UNL     1      34.830 -24.918 -11.699  0.00  0.00    -0.209 OA
ATOM      2  N   UNL     1      34.781 -22.968 -15.197  0.00  0.00    -0.275 N 
ATOM      3  N   UNL     1      29.996 -25.256 -13.734  0.00  0.00    -0.315 N 
ATOM      4  N   UNL     1      30.002 -24.166 -15.669  0.00  0.00    -0.316 N 
ATOM      5  N   UNL     1      35.965 -23.691 -13.264  0.00  0.00    -0.302 NA
ATOM      6  N   UNL     1      36.995 -22.429 -14.948  0.00  0.00    -0.320 N 
ATOM      7  C   UNL     1      32.426 -23.485 -15.562  0.00  0.00    +0.007 C 
ATOM      8  C   UNL     1      33.588 -23.568 -14.780  0.00  0.00    +0.060 C 
ATOM      9  C   UNL     1      31.252 -24.105 -15.098  0.00  0.00    +0.056 C 
ATOM     10  C   UNL     1      31.275 -24.782 -13.882  0.00  0.00    +0.060 C 
ATOM     11  C   UNL     1      33.572 -24.260 -13.559  0.00  0.00    +0.109 C 
ATOM     12  C   UNL     1      32.411 -24.885 -13.079  0.00  0.00    +0.029 C 
ATOM     13  C   UNL     1      34.835 -24.316 -12.768  0.00  0.00    +0.208 C 
ATOM     14  C   UNL     1      29.275 -24.863 -14.826  0.00  0.00    +0.182 C 
ATOM     15  C   UNL     1      35.905 -23.066 -14.410  0.00  0.00    +0.248 C 
ATOM     16  H   UNL     1      34.815 -22.479 -16.051  0.00  0.00    +0.156 HD
ATOM     17  H   UNL     1      29.660 -25.786 -12.975  0.00  0.00    +0.148 HD
ATOM     18  H   UNL     1      29.714 -23.773 -16.525  0.00  0.00    +0.148 HD
ATOM     19  H   UNL     1      36.918 -21.966 -15.813  0.00  0.00    +0.146 HD
ATOM     20  H   UNL     1      37.855 -22.435 -14.467  0.00  0.00    +0.146 HD
ENDROOT
BRANCH   7  21
ATOM     21  C   UNL     1      32.436 -22.750 -16.865  0.00  0.00    +0.034 C 
BRANCH  21  22
ATOM     22  C   UNL     1      33.524 -23.230 -17.844  0.00  0.00    +0.031 C 
BRANCH  22  23
ATOM     23  C   UNL     1      33.988 -22.153 -18.794  0.00  0.00    -0.022 C 
ATOM     24  C   UNL     1      35.342 -22.013 -19.051  0.00  0.00    -0.001 C 
ATOM     25  C   UNL     1      33.052 -21.324 -19.390  0.00  0.00    -0.001 C 
ATOM     26  C   UNL     1      35.773 -21.018 -19.929  0.00  0.00    +0.037 C 
ATOM     27  C   UNL     1      33.482 -20.328 -20.268  0.00  0.00    +0.037 C 
ATOM     28  C   UNL     1      34.842 -20.175 -20.537  0.00  0.00    +0.139 C 
BRANCH  28  29
ATOM     29  O   UNL     1      35.261 -19.204 -21.393  0.00  0.00    -0.471 OA
ATOM     30  C   UNL     1      34.966 -19.384 -22.777  0.00  0.00    +0.252 C 
ENDBRANCH  28  29
ENDBRANCH  22  23
ENDBRANCH  21  22
ENDBRANCH   7  21
TORSDOF 4
ENDMDL
MODEL 2
REMARK VINA RESULT:     -11.3      1.508      3.909
REMARK  Name = 5326930
REMARK  4 active torsions:
REMARK  status: ('A' for Active; 'I' for Inactive)
REMARK    1  A    between atoms: C_7  and  C_21
REMARK    2  A    between atoms: C_21  and  C_22
REMARK    3  A    between atoms: C_22  and  C_23
REMARK    4  A    between atoms: C_28  and  O_29
REMARK                            x       y       z     vdW  Elec       q    Type
REMARK                         _______ _______ _______ _____ _____    ______ ____
ROOT
ATOM      1  O   UNL     1      30.821 -23.998 -12.405  0.00  0.00    -0.209 OA
ATOM      2  N   UNL     1      31.331 -23.094 -16.273  0.00  0.00    -0.275 N 
ATOM      3  N   UNL     1      35.895 -24.635 -13.616  0.00  0.00    -0.315 N 
ATOM      4  N   UNL     1      36.144 -24.128 -15.764  0.00  0.00    -0.316 N 
ATOM      5  N   UNL     1      29.899 -23.314 -14.386  0.00  0.00    -0.302 NA
ATOM      6  N   UNL     1      29.096 -22.624 -16.476  0.00  0.00    -0.320 N 
ATOM      7  C   UNL     1      33.720 -23.568 -16.169  0.00  0.00    +0.007 C 
ATOM      8  C   UNL     1      32.462 -23.492 -15.552  0.00  0.00    +0.060 C 
ATOM      9  C   UNL     1      34.826 -23.974 -15.400  0.00  0.00    +0.056 C 
ATOM     10  C   UNL     1      34.643 -24.286 -14.057  0.00  0.00    +0.060 C 
ATOM     11  C   UNL     1      32.317 -23.815 -14.195  0.00  0.00    +0.109 C 
ATOM     12  C   UNL     1      33.408 -24.221 -13.411  0.00  0.00    +0.029 C 
ATOM     13  C   UNL     1      30.957 -23.716 -13.592  0.00  0.00    +0.208 C 
ATOM     14  C   UNL     1      36.756 -24.524 -14.671  0.00  0.00    +0.182 C 
ATOM     15  C   UNL     1      30.109 -23.028 -15.643  0.00  0.00    +0.248 C 
ATOM     16  H   UNL     1      31.409 -22.862 -17.227  0.00  0.00    +0.156 HD
ATOM     17  H   UNL     1      36.130 -24.915 -12.702  0.00  0.00    +0.148 HD
ATOM     18  H   UNL     1      36.542 -23.974 -16.652  0.00  0.00    +0.148 HD
ATOM     19  H   UNL     1      29.287 -22.416 -17.419  0.00  0.00    +0.146 HD
ATOM     20  H   UNL     1      28.177 -22.542 -16.130  0.00  0.00    +0.146 HD
ENDROOT
BRANCH   7  21
ATOM     21  C   UNL     1      33.882 -23.225 -17.616  0.00  0.00    +0.034 C 
BRANCH  21  22
ATOM     22  C   UNL     1      35.164 -22.432 -17.930  0.00  0.00    +0.031 C 
BRANCH  22  23
ATOM     23  C   UNL     1      35.005 -21.477 -19.087  0.00  0.00    -0.022 C 
ATOM     24  C   UNL     1      33.733 -21.105 -19.492  0.00  0.00    -0.001 C 
ATOM     25  C   UNL     1      36.134 -20.989 -19.725  0.00  0.00    -0.001 C 
ATOM     26  C   UNL     1      33.586 -20.222 -20.561  0.00  0.00    +0.037 C 
ATOM     27  C   UNL     1      35.988 -20.106 -20.795  0.00  0.00    +0.037 C 
ATOM     28  C   UNL     1      34.713 -19.722 -21.213  0.00  0.00    +0.139 C 
BRANCH  28  29
ATOM     29  O   UNL     1      34.570 -18.861 -22.257  0.00  0.00    -0.471 OA
ATOM     30  C   UNL     1      34.949 -19.336 -23.548  0.00  0.00    +0.252 C 
ENDBRANCH  28  29
ENDBRANCH  22  23
ENDBRANCH  21  22
ENDBRANCH   7  21
TORSDOF 4
ENDMDL
MODEL 3
REMARK VINA RESULT:     -11.3      1.855      4.265
REMARK  Name = 5326930
REMARK  4 active torsions:
REMARK  status: ('A' for Active; 'I' for Inactive)
REMARK    1  A    between atoms: C_7  and  C_21
REMARK    2  A    between atoms: C_21  and  C_22
REMARK    3  A    between atoms: C_22  and  C_23
REMARK    4  A    between atoms: C_28  and  O_29
REMARK                            x       y       z     vdW  Elec       q    Type
REMARK                         _______ _______ _______ _____ _____    ______ ____
ROOT
ATOM      1  O   UNL     1      28.588 -25.588 -13.772  0.00  0.00    -0.209 OA
ATOM      2  N   UNL     1      29.863 -23.070 -16.614  0.00  0.00    -0.275 N 
ATOM      3  N   UNL     1      33.780 -24.971 -13.250  0.00  0.00    -0.315 N 
ATOM      4  N   UNL     1      34.456 -23.572 -14.838  0.00  0.00    -0.316 N 
ATOM      5  N   UNL     1      28.087 -24.258 -15.567  0.00  0.00    -0.302 NA
ATOM      6  N   UNL     1      27.725 -22.861 -17.412  0.00  0.00    -0.320 N 
ATOM      7  C   UNL     1      32.173 -23.222 -15.846  0.00  0.00    +0.007 C 
ATOM      8  C   UNL     1      30.821 -23.582 -15.732  0.00  0.00    +0.060 C 
ATOM      9  C   UNL     1      33.097 -23.764 -14.935  0.00  0.00    +0.056 C 
ATOM     10  C   UNL     1      32.648 -24.638 -13.950  0.00  0.00    +0.060 C 
ATOM     11  C   UNL     1      30.407 -24.466 -14.724  0.00  0.00    +0.109 C 
ATOM     12  C   UNL     1      31.313 -25.018 -13.806  0.00  0.00    +0.029 C 
ATOM     13  C   UNL     1      28.959 -24.815 -14.650  0.00  0.00    +0.208 C 
ATOM     14  C   UNL     1      34.833 -24.309 -13.818  0.00  0.00    +0.182 C 
ATOM     15  C   UNL     1      28.545 -23.441 -16.478  0.00  0.00    +0.248 C 
ATOM     16  H   UNL     1      30.132 -22.448 -17.327  0.00  0.00    +0.156 HD
ATOM     17  H   UNL     1      33.825 -25.577 -12.476  0.00  0.00    +0.148 HD
ATOM     18  H   UNL     1      35.023 -23.005 -15.410  0.00  0.00    +0.148 HD
ATOM     19  H   UNL     1      28.100 -22.249 -18.086  0.00  0.00    +0.146 HD
ATOM     20  H   UNL     1      26.759 -23.056 -17.409  0.00  0.00    +0.146 HD
ENDROOT
BRANCH   7  21
ATOM     21  C   UNL     1      32.622 -22.279 -16.918  0.00  0.00    +0.034 C 
BRANCH  21  22
ATOM     22  C   UNL     1      33.466 -22.944 -18.020  0.00  0.00    +0.031 C 
BRANCH  22  23
ATOM     23  C   UNL     1      34.121 -21.952 -18.949  0.00  0.00    -0.022 C 
ATOM     24  C   UNL     1      33.329 -21.093 -19.695  0.00  0.00    -0.001 C 
ATOM     25  C   UNL     1      35.503 -21.918 -19.042  0.00  0.00    -0.001 C 
ATOM     26  C   UNL     1      33.933 -20.176 -20.554  0.00  0.00    +0.037 C 
ATOM     27  C   UNL     1      36.109 -21.001 -19.902  0.00  0.00    +0.037 C 
ATOM     28  C   UNL     1      35.324 -20.130 -20.657  0.00  0.00    +0.139 C 
BRANCH  28  29
ATOM     29  O   UNL     1      35.915 -19.236 -21.496  0.00  0.00    -0.471 OA
ATOM     30  C   UNL     1      37.221 -18.782 -21.147  0.00  0.00    +0.252 C 
ENDBRANCH  28  29
ENDBRANCH  22  23
ENDBRANCH  21  22
ENDBRANCH   7  21
TORSDOF 4
ENDMDL
MODEL 4
REMARK VINA RESULT:     -11.1      1.806      2.589
REMARK  Name = 5326930
REMARK  4 active torsions:
REMARK  status: ('A' for Active; 'I' for Inactive)
REMARK    1  A    between atoms: C_7  and  C_21
REMARK    2  A    between atoms: C_21  and  C_22
REMARK    3  A    between atoms: C_22  and  C_23
REMARK    4  A    between atoms: C_28  and  O_29
REMARK                            x       y       z     vdW  Elec       q    Type
REMARK                         _______ _______ _______ _____ _____    ______ ____
ROOT
ATOM      1  O   UNL     1      36.927 -26.258 -11.625  0.00  0.00    -0.209 OA
ATOM      2  N   UNL     1      37.555 -24.292 -15.058  0.00  0.00    -0.275 N 
ATOM      3  N   UNL     1      32.451 -23.896 -13.042  0.00  0.00    -0.315 N 
ATOM      4  N   UNL     1      32.833 -22.815 -14.945  0.00  0.00    -0.316 N 
ATOM      5  N   UNL     1      38.374 -25.671 -13.300  0.00  0.00    -0.302 NA
ATOM      6  N   UNL     1      39.738 -24.992 -15.079  0.00  0.00    -0.320 N 
ATOM      7  C   UNL     1      35.253 -23.491 -15.132  0.00  0.00    +0.007 C 
ATOM      8  C   UNL     1      36.273 -24.223 -14.504  0.00  0.00    +0.060 C 
ATOM      9  C   UNL     1      33.981 -23.452 -14.534  0.00  0.00    +0.056 C 
ATOM     10  C   UNL     1      33.768 -24.138 -13.342  0.00  0.00    +0.060 C 
ATOM     11  C   UNL     1      36.019 -24.901 -13.302  0.00  0.00    +0.109 C 
ATOM     12  C   UNL     1      34.757 -24.875 -12.690  0.00  0.00    +0.029 C 
ATOM     13  C   UNL     1      37.139 -25.662 -12.677  0.00  0.00    +0.208 C 
ATOM     14  C   UNL     1      31.936 -23.103 -14.029  0.00  0.00    +0.182 C 
ATOM     15  C   UNL     1      38.536 -25.017 -14.419  0.00  0.00    +0.248 C 
ATOM     16  H   UNL     1      37.755 -23.824 -15.900  0.00  0.00    +0.156 HD
ATOM     17  H   UNL     1      31.965 -24.235 -12.256  0.00  0.00    +0.148 HD
ATOM     18  H   UNL     1      32.709 -22.263 -15.752  0.00  0.00    +0.148 HD
ATOM     19  H   UNL     1      39.828 -24.488 -15.920  0.00  0.00    +0.146 HD
ATOM     20  H   UNL     1      40.512 -25.478 -14.711  0.00  0.00    +0.146 HD
ENDROOT
BRANCH   7  21
ATOM     21  C   UNL     1      35.516 -22.765 -16.414  0.00  0.00    +0.034 C 
BRANCH  21  22
ATOM     22  C   UNL     1      34.461 -23.024 -17.505  0.00  0.00    +0.031 C 
BRANCH  22  23
ATOM     23  C   UNL     1      34.497 -22.009 -18.621  0.00  0.00    -0.022 C 
ATOM     24  C   UNL     1      33.307 -21.494 -19.110  0.00  0.00    -0.001 C 
ATOM     25  C   UNL     1      35.720 -21.612 -19.139  0.00  0.00    -0.001 C 
ATOM     26  C   UNL     1      33.340 -20.556 -20.142  0.00  0.00    +0.037 C 
ATOM     27  C   UNL     1      35.753 -20.673 -20.171  0.00  0.00    +0.037 C 
ATOM     28  C   UNL     1      34.563 -20.146 -20.672  0.00  0.00    +0.139 C 
BRANCH  28  29
ATOM     29  O   UNL     1      34.595 -19.232 -21.680  0.00  0.00    -0.471 OA
ATOM     30  C   UNL     1      35.716 -18.350 -21.722  0.00  0.00    +0.252 C 
ENDBRANCH  28  29
ENDBRANCH  22  23
ENDBRANCH  21  22
ENDBRANCH   7  21
TORSDOF 4
ENDMDL
MODEL 5
REMARK VINA RESULT:     -10.5      3.518      5.905
REMARK  Name = 5326930
REMARK  4 active torsions:
REMARK  status: ('A' for Active; 'I' for Inactive)
REMARK    1  A    between atoms: C_7  and  C_21
REMARK    2  A    between atoms: C_21  and  C_22
REMARK    3  A    between atoms: C_22  and  C_23
REMARK    4  A    between atoms: C_28  and  O_29
REMARK                            x       y       z     vdW  Elec       q    Type
REMARK                         _______ _______ _______ _____ _____    ______ ____
ROOT
ATOM      1  O   UNL     1      38.633 -22.656 -11.658  0.00  0.00    -0.209 OA
ATOM      2  N   UNL     1      35.050 -24.432 -11.432  0.00  0.00    -0.275 N 
ATOM      3  N   UNL     1      36.396 -22.517 -16.411  0.00  0.00    -0.315 N 
ATOM      4  N   UNL     1      34.415 -23.509 -16.253  0.00  0.00    -0.316 N 
ATOM      5  N   UNL     1      37.067 -23.733 -10.381  0.00  0.00    -0.302 NA
ATOM      6  N   UNL     1      35.376 -24.846  -9.200  0.00  0.00    -0.320 N 
ATOM      7  C   UNL     1      34.602 -24.044 -13.797  0.00  0.00    +0.007 C 
ATOM      8  C   UNL     1      35.439 -23.928 -12.677  0.00  0.00    +0.060 C 
ATOM      9  C   UNL     1      35.039 -23.521 -15.027  0.00  0.00    +0.056 C 
ATOM     10  C   UNL     1      36.285 -22.904 -15.099  0.00  0.00    +0.060 C 
ATOM     11  C   UNL     1      36.689 -23.299 -12.790  0.00  0.00    +0.109 C 
ATOM     12  C   UNL     1      37.143 -22.771 -14.008  0.00  0.00    +0.029 C 
ATOM     13  C   UNL     1      37.538 -23.204 -11.568  0.00  0.00    +0.208 C 
ATOM     14  C   UNL     1      35.255 -22.900 -17.058  0.00  0.00    +0.182 C 
ATOM     15  C   UNL     1      35.892 -24.304 -10.351  0.00  0.00    +0.248 C 
ATOM     16  H   UNL     1      34.178 -24.876 -11.330  0.00  0.00    +0.156 HD
ATOM     17  H   UNL     1      37.161 -22.047 -16.813  0.00  0.00    +0.148 HD
ATOM     18  H   UNL     1      33.529 -23.877 -16.477  0.00  0.00    +0.148 HD
ATOM     19  H   UNL     1      34.488 -25.269  -9.211  0.00  0.00    +0.146 HD
ATOM     20  H   UNL     1      35.896 -24.810  -8.364  0.00  0.00    +0.146 HD
ENDROOT
BRANCH   7  21
ATOM     21  C   UNL     1      33.268 -24.713 -13.684  0.00  0.00    +0.034 C 
BRANCH  21  22
ATOM     22  C   UNL     1      32.121 -23.758 -13.303  0.00  0.00    +0.031 C 
BRANCH  22  23
ATOM     23  C   UNL     1      30.987 -23.763 -14.298  0.00  0.00    -0.022 C 
ATOM     24  C   UNL     1      29.951 -24.670 -14.143  0.00  0.00    -0.001 C 
ATOM     25  C   UNL     1      31.003 -22.862 -15.351  0.00  0.00    -0.001 C 
ATOM     26  C   UNL     1      28.902 -24.675 -15.061  0.00  0.00    +0.037 C 
ATOM     27  C   UNL     1      29.953 -22.867 -16.271  0.00  0.00    +0.037 C 
ATOM     28  C   UNL     1      28.903 -23.774 -16.126  0.00  0.00    +0.139 C 
BRANCH  28  29
ATOM     29  O   UNL     1      27.881 -23.779 -17.024  0.00  0.00    -0.471 OA
ATOM     30  C   UNL     1      27.145 -22.567 -17.179  0.00  0.00    +0.252 C 
ENDBRANCH  28  29
ENDBRANCH  22  23
ENDBRANCH  21  22
ENDBRANCH   7  21
TORSDOF 4
ENDMDL
MODEL 6
REMARK VINA RESULT:     -10.5      3.124      6.081
REMARK  Name = 5326930
REMARK  4 active torsions:
REMARK  status: ('A' for Active; 'I' for Inactive)
REMARK    1  A    between atoms: C_7  and  C_21
REMARK    2  A    between atoms: C_21  and  C_22
REMARK    3  A    between atoms: C_22  and  C_23
REMARK    4  A    between atoms: C_28  and  O_29
REMARK                            x       y       z     vdW  Elec       q    Type
REMARK                         _______ _______ _______ _____ _____    ______ ____
ROOT
ATOM      1  O   UNL     1      37.344 -21.962 -16.783  0.00  0.00    -0.209 OA
ATOM      2  N   UNL     1      33.677 -23.475 -16.227  0.00  0.00    -0.275 N 
ATOM      3  N   UNL     1      37.113 -24.057 -11.969  0.00  0.00    -0.315 N 
ATOM      4  N   UNL     1      35.071 -24.885 -11.692  0.00  0.00    -0.316 N 
ATOM      5  N   UNL     1      35.246 -22.346 -17.615  0.00  0.00    -0.302 NA
ATOM      6  N   UNL     1      33.063 -22.807 -18.332  0.00  0.00    -0.320 N 
ATOM      7  C   UNL     1      34.225 -24.227 -13.973  0.00  0.00    +0.007 C 
ATOM      8  C   UNL     1      34.589 -23.598 -15.173  0.00  0.00    +0.060 C 
ATOM      9  C   UNL     1      35.179 -24.325 -12.943  0.00  0.00    +0.056 C 
ATOM     10  C   UNL     1      36.451 -23.798 -13.143  0.00  0.00    +0.060 C 
ATOM     11  C   UNL     1      35.883 -23.079 -15.336  0.00  0.00    +0.109 C 
ATOM     12  C   UNL     1      36.848 -23.166 -14.322  0.00  0.00    +0.029 C 
ATOM     13  C   UNL     1      36.215 -22.419 -16.632  0.00  0.00    +0.208 C 
ATOM     14  C   UNL     1      36.247 -24.708 -11.136  0.00  0.00    +0.182 C 
ATOM     15  C   UNL     1      34.062 -22.853 -17.393  0.00  0.00    +0.248 C 
ATOM     16  H   UNL     1      32.765 -23.833 -16.134  0.00  0.00    +0.156 HD
ATOM     17  H   UNL     1      38.046 -23.817 -11.766  0.00  0.00    +0.148 HD
ATOM     18  H   UNL     1      34.282 -25.325 -11.298  0.00  0.00    +0.148 HD
ATOM     19  H   UNL     1      32.182 -23.198 -18.134  0.00  0.00    +0.146 HD
ATOM     20  H   UNL     1      33.229 -22.384 -19.206  0.00  0.00    +0.146 HD
ENDROOT
BRANCH   7  21
ATOM     21  C   UNL     1      32.848 -24.783 -13.792  0.00  0.00    +0.034 C 
BRANCH  21  22
ATOM     22  C   UNL     1      31.783 -23.719 -13.468  0.00  0.00    +0.031 C 
BRANCH  22  23
ATOM     23  C   UNL     1      30.637 -23.705 -14.450  0.00  0.00    -0.022 C 
ATOM     24  C   UNL     1      30.159 -22.492 -14.919  0.00  0.00    -0.001 C 
ATOM     25  C   UNL     1      30.082 -24.905 -14.863  0.00  0.00    -0.001 C 
ATOM     26  C   UNL     1      29.100 -22.477 -15.826  0.00  0.00    +0.037 C 
ATOM     27  C   UNL     1      29.022 -24.892 -15.771  0.00  0.00    +0.037 C 
ATOM     28  C   UNL     1      28.531 -23.678 -16.252  0.00  0.00    +0.139 C 
BRANCH  28  29
ATOM     29  O   UNL     1      27.497 -23.665 -17.136  0.00  0.00    -0.471 OA
ATOM     30  C   UNL     1      26.915 -22.398 -17.437  0.00  0.00    +0.252 C 
ENDBRANCH  28  29
ENDBRANCH  22  23
ENDBRANCH  21  22
ENDBRANCH   7  21
TORSDOF 4
ENDMDL
MODEL 7
REMARK VINA RESULT:      -9.9      3.216      5.949
REMARK  Name = 5326930
REMARK  4 active torsions:
REMARK  status: ('A' for Active; 'I' for Inactive)
REMARK    1  A    between atoms: C_7  and  C_21
REMARK    2  A    between atoms: C_21  and  C_22
REMARK    3  A    between atoms: C_22  and  C_23
REMARK    4  A    between atoms: C_28  and  O_29
REMARK                            x       y       z     vdW  Elec       q    Type
REMARK                         _______ _______ _______ _____ _____    ______ ____
ROOT
ATOM      1  O   UNL     1      38.591 -22.545 -15.750  0.00  0.00    -0.209 OA
ATOM      2  N   UNL     1      35.150 -24.109 -14.423  0.00  0.00    -0.275 N 
ATOM      3  N   UNL     1      34.812 -21.473 -19.240  0.00  0.00    -0.315 N 
ATOM      4  N   UNL     1      32.920 -22.353 -18.477  0.00  0.00    -0.316 N 
ATOM      5  N   UNL     1      37.480 -23.723 -14.130  0.00  0.00    -0.302 NA
ATOM      6  N   UNL     1      36.214 -24.911 -12.557  0.00  0.00    -0.320 N 
ATOM      7  C   UNL     1      33.922 -23.303 -16.369  0.00  0.00    +0.007 C 
ATOM      8  C   UNL     1      35.117 -23.428 -15.644  0.00  0.00    +0.060 C 
ATOM      9  C   UNL     1      33.941 -22.609 -17.592  0.00  0.00    +0.056 C 
ATOM     10  C   UNL     1      35.140 -22.067 -18.047  0.00  0.00    +0.060 C 
ATOM     11  C   UNL     1      36.306 -22.868 -16.137  0.00  0.00    +0.109 C 
ATOM     12  C   UNL     1      36.346 -22.172 -17.354  0.00  0.00    +0.029 C 
ATOM     13  C   UNL     1      37.547 -23.032 -15.326  0.00  0.00    +0.208 C 
ATOM     14  C   UNL     1      33.476 -21.670 -19.452  0.00  0.00    +0.182 C 
ATOM     15  C   UNL     1      36.337 -24.217 -13.734  0.00  0.00    +0.248 C 
ATOM     16  H   UNL     1      34.328 -24.510 -14.059  0.00  0.00    +0.156 HD
ATOM     17  H   UNL     1      35.429 -20.990 -19.835  0.00  0.00    +0.148 HD
ATOM     18  H   UNL     1      31.976 -22.622 -18.397  0.00  0.00    +0.148 HD
ATOM     19  H   UNL     1      35.339 -25.271 -12.287  0.00  0.00    +0.146 HD
ATOM     20  H   UNL     1      37.002 -25.048 -11.982  0.00  0.00    +0.146 HD
ENDROOT
BRANCH   7  21
ATOM     21  C   UNL     1      32.651 -23.897 -15.850  0.00  0.00    +0.034 C 
BRANCH  21  22
ATOM     22  C   UNL     1      31.880 -22.977 -14.886  0.00  0.00    +0.031 C 
BRANCH  22  23
ATOM     23  C   UNL     1      30.418 -22.840 -15.235  0.00  0.00    -0.022 C 
ATOM     24  C   UNL     1      29.533 -22.365 -14.280  0.00  0.00    -0.001 C 
ATOM     25  C   UNL     1      29.986 -23.195 -16.503  0.00  0.00    -0.001 C 
ATOM     26  C   UNL     1      28.182 -22.239 -14.601  0.00  0.00    +0.037 C 
ATOM     27  C   UNL     1      28.634 -23.069 -16.825  0.00  0.00    +0.037 C 
ATOM     28  C   UNL     1      27.732 -22.591 -15.874  0.00  0.00    +0.139 C 
BRANCH  28  29
ATOM     29  O   UNL     1      26.414 -22.469 -16.188  0.00  0.00    -0.471 OA
ATOM     30  C   UNL     1      26.056 -21.434 -17.102  0.00  0.00    +0.252 C 
ENDBRANCH  28  29
ENDBRANCH  22  23
ENDBRANCH  21  22
ENDBRANCH   7  21
TORSDOF 4
ENDMDL
MODEL 8
REMARK VINA RESULT:      -9.8      2.978      6.888
REMARK  Name = 5326930
REMARK  4 active torsions:
REMARK  status: ('A' for Active; 'I' for Inactive)
REMARK    1  A    between atoms: C_7  and  C_21
REMARK    2  A    between atoms: C_21  and  C_22
REMARK    3  A    between atoms: C_22  and  C_23
REMARK    4  A    between atoms: C_28  and  O_29
REMARK                            x       y       z     vdW  Elec       q    Type
REMARK                         _______ _______ _______ _____ _____    ______ ____
ROOT
ATOM      1  O   UNL     1      37.163 -20.361 -19.557  0.00  0.00    -0.209 OA
ATOM      2  N   UNL     1      33.777 -22.141 -18.371  0.00  0.00    -0.275 N 
ATOM      3  N   UNL     1      38.169 -23.139 -15.211  0.00  0.00    -0.315 N 
ATOM      4  N   UNL     1      36.275 -24.111 -14.579  0.00  0.00    -0.316 N 
ATOM      5  N   UNL     1      34.932 -20.737 -19.906  0.00  0.00    -0.302 NA
ATOM      6  N   UNL     1      32.649 -21.211 -20.137  0.00  0.00    -0.320 N 
ATOM      7  C   UNL     1      34.879 -23.179 -16.459  0.00  0.00    +0.007 C 
ATOM      8  C   UNL     1      34.923 -22.363 -17.600  0.00  0.00    +0.060 C 
ATOM      9  C   UNL     1      36.059 -23.370 -15.718  0.00  0.00    +0.056 C 
ATOM     10  C   UNL     1      37.233 -22.750 -16.136  0.00  0.00    +0.060 C 
ATOM     11  C   UNL     1      36.126 -21.754 -17.989  0.00  0.00    +0.109 C 
ATOM     12  C   UNL     1      37.314 -21.933 -17.264  0.00  0.00    +0.029 C 
ATOM     13  C   UNL     1      36.115 -20.897 -19.210  0.00  0.00    +0.208 C 
ATOM     14  C   UNL     1      37.549 -23.950 -14.304  0.00  0.00    +0.182 C 
ATOM     15  C   UNL     1      33.850 -21.336 -19.485  0.00  0.00    +0.248 C 
ATOM     16  H   UNL     1      32.922 -22.558 -18.116  0.00  0.00    +0.156 HD
ATOM     17  H   UNL     1      39.119 -22.879 -15.205  0.00  0.00    +0.148 HD
ATOM     18  H   UNL     1      35.616 -24.646 -14.079  0.00  0.00    +0.148 HD
ATOM     19  H   UNL     1      31.851 -21.675 -19.793  0.00  0.00    +0.146 HD
ATOM     20  H   UNL     1      32.585 -20.657 -20.949  0.00  0.00    +0.146 HD
ENDROOT
BRANCH   7  21
ATOM     21  C   UNL     1      33.600 -23.831 -16.039  0.00  0.00    +0.034 C 
BRANCH  21  22
ATOM     22  C   UNL     1      32.822 -23.046 -14.966  0.00  0.00    +0.031 C 
BRANCH  22  23
ATOM     23  C   UNL     1      31.325 -23.124 -15.139  0.00  0.00    -0.022 C 
ATOM     24  C   UNL     1      30.752 -22.664 -16.314  0.00  0.00    -0.001 C 
ATOM     25  C   UNL     1      30.551 -23.652 -14.119  0.00  0.00    -0.001 C 
ATOM     26  C   UNL     1      29.369 -22.735 -16.474  0.00  0.00    +0.037 C 
ATOM     27  C   UNL     1      29.166 -23.724 -14.279  0.00  0.00    +0.037 C 
ATOM     28  C   UNL     1      28.576 -23.265 -15.456  0.00  0.00    +0.139 C 
BRANCH  28  29
ATOM     29  O   UNL     1      27.225 -23.334 -15.611  0.00  0.00    -0.471 OA
ATOM     30  C   UNL     1      26.504 -22.104 -15.588  0.00  0.00    +0.252 C 
ENDBRANCH  28  29
ENDBRANCH  22  23
ENDBRANCH  21  22
ENDBRANCH   7  21
TORSDOF 4
ENDMDL
MODEL 9
REMARK VINA RESULT:      -9.8      3.167      7.630
REMARK  Name = 5326930
REMARK  4 active torsions:
REMARK  status: ('A' for Active; 'I' for Inactive)
REMARK    1  A    between atoms: C_7  and  C_21
REMARK    2  A    between atoms: C_21  and  C_22
REMARK    3  A    between atoms: C_22  and  C_23
REMARK    4  A    between atoms: C_28  and  O_29
REMARK                            x       y       z     vdW  Elec       q    Type
REMARK                         _______ _______ _______ _____ _____    ______ ____
ROOT
ATOM      1  O   UNL     1      33.669 -19.443 -22.016  0.00  0.00    -0.209 OA
ATOM      2  N   UNL     1      37.066 -20.092 -19.996  0.00  0.00    -0.275 N 
ATOM      3  N   UNL     1      32.684 -22.856 -18.143  0.00  0.00    -0.315 N 
ATOM      4  N   UNL     1      34.585 -23.195 -17.045  0.00  0.00    -0.316 N 
ATOM      5  N   UNL     1      35.901 -19.002 -21.762  0.00  0.00    -0.302 NA
ATOM      6  N   UNL     1      38.186 -18.649 -21.382  0.00  0.00    -0.320 N 
ATOM      7  C   UNL     1      35.972 -21.644 -18.466  0.00  0.00    +0.007 C 
ATOM      8  C   UNL     1      35.922 -20.771 -19.564  0.00  0.00    +0.060 C 
ATOM      9  C   UNL     1      34.795 -22.304 -18.071  0.00  0.00    +0.056 C 
ATOM     10  C   UNL     1      33.617 -22.074 -18.776  0.00  0.00    +0.060 C 
ATOM     11  C   UNL     1      34.715 -20.565 -20.250  0.00  0.00    +0.109 C 
ATOM     12  C   UNL     1      33.530 -21.214 -19.872  0.00  0.00    +0.029 C 
ATOM     13  C   UNL     1      34.720 -19.628 -21.410  0.00  0.00    +0.208 C 
ATOM     14  C   UNL     1      33.310 -23.505 -17.117  0.00  0.00    +0.182 C 
ATOM     15  C   UNL     1      36.987 -19.242 -21.076  0.00  0.00    +0.248 C 
ATOM     16  H   UNL     1      37.923 -20.221 -19.529  0.00  0.00    +0.156 HD
ATOM     17  H   UNL     1      31.734 -22.934 -18.386  0.00  0.00    +0.148 HD
ATOM     18  H   UNL     1      35.247 -23.529 -16.396  0.00  0.00    +0.148 HD
ATOM     19  H   UNL     1      38.987 -18.851 -20.845  0.00  0.00    +0.146 HD
ATOM     20  H   UNL     1      38.246 -18.021 -22.138  0.00  0.00    +0.146 HD
ENDROOT
BRANCH   7  21
ATOM     21  C   UNL     1      37.256 -21.868 -17.730  0.00  0.00    +0.034 C 
BRANCH  21  22
ATOM     22  C   UNL     1      37.190 -21.500 -16.236  0.00  0.00    +0.031 C 
BRANCH  22  23
ATOM     23  C   UNL     1      37.497 -22.661 -15.322  0.00  0.00    -0.022 C 
ATOM     24  C   UNL     1      36.693 -22.886 -14.216  0.00  0.00    -0.001 C 
ATOM     25  C   UNL     1      38.578 -23.480 -15.604  0.00  0.00    -0.001 C 
ATOM     26  C   UNL     1      36.975 -23.959 -13.371  0.00  0.00    +0.037 C 
ATOM     27  C   UNL     1      38.862 -24.554 -14.759  0.00  0.00    +0.037 C 
ATOM     28  C   UNL     1      38.060 -24.792 -13.642  0.00  0.00    +0.139 C 
BRANCH  28  29
ATOM     29  O   UNL     1      38.337 -25.839 -12.818  0.00  0.00    -0.471 OA
ATOM     30  C   UNL     1      37.309 -26.247 -11.916  0.00  0.00    +0.252 C 
ENDBRANCH  28  29
ENDBRANCH  22  23
ENDBRANCH  21  22
ENDBRANCH   7  21
TORSDOF 4
ENDMDL
