MODEL 1
REMARK VINA RESULT:     -11.6      0.000      0.000
REMARK  Name = 447734
REMARK  5 active torsions:
REMARK  status: ('A' for Active; 'I' for Inactive)
REMARK    1  A    between atoms: C_3  and  C_19
REMARK    2  A    between atoms: C_9  and  C_13
REMARK    3  A    between atoms: N_18  and  C_24
REMARK    4  A    between atoms: C_21  and  O_27
REMARK    5  A    between atoms: O_27  and  C_28
REMARK                            x       y       z     vdW  Elec       q    Type
REMARK                         _______ _______ _______ _____ _____    ______ ____
ROOT
ATOM      1  C   UNL     1      36.094 -22.394 -17.064  0.00  0.00    +0.000 C 
ATOM      2  C   UNL     1      35.108 -23.164 -16.404  0.00  0.00    +0.000 C 
ATOM      3  C   UNL     1      34.429 -21.672 -18.685  0.00  0.00    +0.054 C 
ATOM      4  C   UNL     1      35.738 -21.653 -18.203  0.00  0.00    +0.005 C 
ATOM      5  C   UNL     1      33.795 -23.172 -16.902  0.00  0.00    +0.000 C 
ATOM      6  C   UNL     1      33.459 -22.430 -18.035  0.00  0.00    +0.005 C 
ATOM      7  C   UNL     1      35.464 -23.905 -15.264  0.00  0.00    +0.003 C 
ATOM      8  C   UNL     1      37.407 -22.386 -16.566  0.00  0.00    +0.000 C 
ATOM      9  C   UNL     1      36.772 -23.885 -14.782  0.00  0.00    +0.031 C 
ATOM     10  C   UNL     1      37.743 -23.127 -15.432  0.00  0.00    +0.003 C 
ENDROOT
BRANCH   9  13
ATOM     11  N   UNL     1      36.385 -25.775 -13.220  0.00  0.00    -0.343 N 
ATOM     12  N   UNL     1      38.160 -24.299 -12.865  0.00  0.00    -0.285 NA
ATOM     13  C   UNL     1      37.124 -24.658 -13.602  0.00  0.00    +0.117 C 
ATOM     14  H   UNL     1      36.641 -26.284 -12.417  0.00  0.00    +0.144 HD
ATOM     15  H   UNL     1      35.607 -26.057 -13.754  0.00  0.00    +0.144 HD
ATOM     16  H   UNL     1      38.401 -24.820 -12.066  0.00  0.00    +0.188 HD
ENDBRANCH   9  13
BRANCH   3  19
ATOM     17  O   UNL     1      32.912 -20.949 -20.294  0.00  0.00    -0.270 OA
ATOM     18  N   UNL     1      35.107 -20.128 -20.421  0.00  0.00    -0.280 N 
ATOM     19  C   UNL     1      34.078 -20.901 -19.866  0.00  0.00    +0.249 C 
ATOM     20  H   UNL     1      35.980 -20.192 -19.972  0.00  0.00    +0.155 HD
BRANCH  18  24
ATOM     21  C   UNL     1      34.944 -17.050 -22.452  0.00  0.00    +0.140 C 
ATOM     22  C   UNL     1      34.997 -17.898 -21.346  0.00  0.00    +0.052 C 
ATOM     23  C   UNL     1      34.951 -17.585 -23.741  0.00  0.00    +0.037 C 
ATOM     24  C   UNL     1      35.055 -19.267 -21.545  0.00  0.00    +0.054 C 
ATOM     25  C   UNL     1      35.009 -18.966 -23.923  0.00  0.00    +0.004 C 
ATOM     26  C   UNL     1      35.062 -19.814 -22.817  0.00  0.00    +0.015 C 
BRANCH  21  27
ATOM     27  O   UNL     1      34.887 -15.703 -22.275  0.00  0.00    -0.479 OA
BRANCH  27  28
ATOM     28  C   UNL     1      33.605 -15.093 -22.363  0.00  0.00    +0.166 C 
ATOM     29  C   UNL     1      33.428 -14.484 -23.746  0.00  0.00    +0.044 C 
ATOM     30  C   UNL     1      33.530 -13.883 -21.444  0.00  0.00    +0.044 C 
ATOM     31  C   UNL     1      34.187 -13.159 -23.682  0.00  0.00    +0.004 C 
ATOM     32  C   UNL     1      34.279 -12.790 -22.201  0.00  0.00    +0.004 C 
ENDBRANCH  27  28
ENDBRANCH  21  27
ENDBRANCH  18  24
ENDBRANCH   3  19
TORSDOF 5
ENDMDL
MODEL 2
REMARK VINA RESULT:     -11.1      3.192     10.334
REMARK  Name = 447734
REMARK  5 active torsions:
REMARK  status: ('A' for Active; 'I' for Inactive)
REMARK    1  A    between atoms: C_3  and  C_19
REMARK    2  A    between atoms: C_9  and  C_13
REMARK    3  A    between atoms: N_18  and  C_24
REMARK    4  A    between atoms: C_21  and  O_27
REMARK    5  A    between atoms: O_27  and  C_28
REMARK                            x       y       z     vdW  Elec       q    Type
REMARK                         _______ _______ _______ _____ _____    ______ ____
ROOT
ATOM      1  C   UNL     1      34.658 -16.280 -22.198  0.00  0.00    +0.000 C 
ATOM      2  C   UNL     1      34.625 -16.632 -23.568  0.00  0.00    +0.000 C 
ATOM      3  C   UNL     1      35.202 -18.583 -21.632  0.00  0.00    +0.054 C 
ATOM      4  C   UNL     1      34.948 -17.268 -21.243  0.00  0.00    +0.005 C 
ATOM      5  C   UNL     1      34.883 -17.960 -23.943  0.00  0.00    +0.000 C 
ATOM      6  C   UNL     1      35.170 -18.928 -22.981  0.00  0.00    +0.005 C 
ATOM      7  C   UNL     1      34.335 -15.643 -24.524  0.00  0.00    +0.003 C 
ATOM      8  C   UNL     1      34.400 -14.951 -21.823  0.00  0.00    +0.000 C 
ATOM      9  C   UNL     1      34.082 -14.328 -24.134  0.00  0.00    +0.031 C 
ATOM     10  C   UNL     1      34.114 -13.983 -22.786  0.00  0.00    +0.003 C 
ENDROOT
BRANCH   9  13
ATOM     11  N   UNL     1      34.101 -11.976 -24.930  0.00  0.00    -0.343 N 
ATOM     12  N   UNL     1      33.193 -13.665 -26.266  0.00  0.00    -0.285 NA
ATOM     13  C   UNL     1      33.783 -13.317 -25.136  0.00  0.00    +0.117 C 
ATOM     14  H   UNL     1      33.890 -11.308 -25.622  0.00  0.00    +0.144 HD
ATOM     15  H   UNL     1      34.537 -11.697 -24.092  0.00  0.00    +0.144 HD
ATOM     16  H   UNL     1      32.991 -12.982 -26.946  0.00  0.00    +0.188 HD
ENDBRANCH   9  13
BRANCH   3  19
ATOM     17  O   UNL     1      36.682 -19.789 -20.304  0.00  0.00    -0.270 OA
ATOM     18  N   UNL     1      34.394 -20.262 -20.089  0.00  0.00    -0.280 N 
ATOM     19  C   UNL     1      35.500 -19.594 -20.631  0.00  0.00    +0.249 C 
ATOM     20  H   UNL     1      33.517 -20.000 -20.449  0.00  0.00    +0.155 HD
BRANCH  18  24
ATOM     21  C   UNL     1      33.138 -22.770 -17.689  0.00  0.00    +0.140 C 
ATOM     22  C   UNL     1      33.158 -21.782 -18.672  0.00  0.00    +0.052 C 
ATOM     23  C   UNL     1      34.334 -23.228 -17.137  0.00  0.00    +0.037 C 
ATOM     24  C   UNL     1      34.374 -21.267 -19.090  0.00  0.00    +0.054 C 
ATOM     25  C   UNL     1      35.550 -22.698 -17.569  0.00  0.00    +0.004 C 
ATOM     26  C   UNL     1      35.570 -21.711 -18.552  0.00  0.00    +0.015 C 
BRANCH  21  27
ATOM     27  O   UNL     1      31.952 -23.287 -17.267  0.00  0.00    -0.479 OA
BRANCH  27  28
ATOM     28  C   UNL     1      31.462 -22.838 -16.009  0.00  0.00    +0.166 C 
ATOM     29  C   UNL     1      31.516 -23.982 -15.008  0.00  0.00    +0.044 C 
ATOM     30  C   UNL     1      29.975 -22.531 -16.099  0.00  0.00    +0.044 C 
ATOM     31  C   UNL     1      30.281 -24.826 -15.324  0.00  0.00    +0.004 C 
ATOM     32  C   UNL     1      29.305 -23.902 -16.053  0.00  0.00    +0.004 C 
ENDBRANCH  27  28
ENDBRANCH  21  27
ENDBRANCH  18  24
ENDBRANCH   3  19
TORSDOF 5
ENDMDL
MODEL 3
REMARK VINA RESULT:     -11.0      6.423     10.308
REMARK  Name = 447734
REMARK  5 active torsions:
REMARK  status: ('A' for Active; 'I' for Inactive)
REMARK    1  A    between atoms: C_3  and  C_19
REMARK    2  A    between atoms: C_9  and  C_13
REMARK    3  A    between atoms: N_18  and  C_24
REMARK    4  A    between atoms: C_21  and  O_27
REMARK    5  A    between atoms: O_27  and  C_28
REMARK                            x       y       z     vdW  Elec       q    Type
REMARK                         _______ _______ _______ _____ _____    ______ ____
ROOT
ATOM      1  C   UNL     1      33.761 -14.573 -22.754  0.00  0.00    +0.000 C 
ATOM      2  C   UNL     1      33.871 -15.304 -21.547  0.00  0.00    +0.000 C 
ATOM      3  C   UNL     1      32.575 -12.812 -21.566  0.00  0.00    +0.054 C 
ATOM      4  C   UNL     1      33.110 -13.329 -22.746  0.00  0.00    +0.005 C 
ATOM      5  C   UNL     1      33.326 -14.770 -20.368  0.00  0.00    +0.000 C 
ATOM      6  C   UNL     1      32.683 -13.532 -20.379  0.00  0.00    +0.005 C 
ATOM      7  C   UNL     1      34.522 -16.549 -21.555  0.00  0.00    +0.003 C 
ATOM      8  C   UNL     1      34.306 -15.108 -23.933  0.00  0.00    +0.000 C 
ATOM      9  C   UNL     1      35.058 -17.065 -22.735  0.00  0.00    +0.031 C 
ATOM     10  C   UNL     1      34.950 -16.346 -23.922  0.00  0.00    +0.003 C 
ENDROOT
BRANCH   9  13
ATOM     11  N   UNL     1      37.036 -18.489 -22.261  0.00  0.00    -0.343 N 
ATOM     12  N   UNL     1      35.100 -19.428 -23.170  0.00  0.00    -0.285 NA
ATOM     13  C   UNL     1      35.729 -18.355 -22.726  0.00  0.00    +0.117 C 
ATOM     14  H   UNL     1      37.472 -19.372 -22.263  0.00  0.00    +0.144 HD
ATOM     15  H   UNL     1      37.524 -17.700 -21.928  0.00  0.00    +0.144 HD
ATOM     16  H   UNL     1      35.552 -20.302 -23.164  0.00  0.00    +0.188 HD
ENDBRANCH   9  13
BRANCH   3  19
ATOM     17  O   UNL     1      30.681 -11.478 -21.356  0.00  0.00    -0.270 OA
ATOM     18  N   UNL     1      32.720 -10.409 -21.814  0.00  0.00    -0.280 N 
ATOM     19  C   UNL     1      31.903 -11.523 -21.575  0.00  0.00    +0.249 C 
ATOM     20  H   UNL     1      33.672 -10.603 -21.972  0.00  0.00    +0.155 HD
BRANCH  18  24
ATOM     21  C   UNL     1      32.122  -6.997 -23.089  0.00  0.00    +0.140 C 
ATOM     22  C   UNL     1      32.481  -8.344 -23.047  0.00  0.00    +0.052 C 
ATOM     23  C   UNL     1      31.643  -6.367 -21.940  0.00  0.00    +0.037 C 
ATOM     24  C   UNL     1      32.355  -9.041 -21.857  0.00  0.00    +0.054 C 
ATOM     25  C   UNL     1      31.523  -7.084 -20.750  0.00  0.00    +0.004 C 
ATOM     26  C   UNL     1      31.881  -8.431 -20.708  0.00  0.00    +0.015 C 
BRANCH  21  27
ATOM     27  O   UNL     1      32.240  -6.297 -24.250  0.00  0.00    -0.479 OA
BRANCH  27  28
ATOM     28  C   UNL     1      33.119  -5.180 -24.246  0.00  0.00    +0.166 C 
ATOM     29  C   UNL     1      32.899  -4.358 -25.507  0.00  0.00    +0.044 C 
ATOM     30  C   UNL     1      34.562  -5.641 -24.383  0.00  0.00    +0.044 C 
ATOM     31  C   UNL     1      33.668  -5.111 -26.593  0.00  0.00    +0.004 C 
ATOM     32  C   UNL     1      34.714  -5.958 -25.869  0.00  0.00    +0.004 C 
ENDBRANCH  27  28
ENDBRANCH  21  27
ENDBRANCH  18  24
ENDBRANCH   3  19
TORSDOF 5
ENDMDL
MODEL 4
REMARK VINA RESULT:     -11.0      5.983     12.846
REMARK  Name = 447734
REMARK  5 active torsions:
REMARK  status: ('A' for Active; 'I' for Inactive)
REMARK    1  A    between atoms: C_3  and  C_19
REMARK    2  A    between atoms: C_9  and  C_13
REMARK    3  A    between atoms: N_18  and  C_24
REMARK    4  A    between atoms: C_21  and  O_27
REMARK    5  A    between atoms: O_27  and  C_28
REMARK                            x       y       z     vdW  Elec       q    Type
REMARK                         _______ _______ _______ _____ _____    ______ ____
ROOT
ATOM      1  C   UNL     1      32.062  -8.922 -22.681  0.00  0.00    +0.000 C 
ATOM      2  C   UNL     1      31.735  -8.434 -21.394  0.00  0.00    +0.000 C 
ATOM      3  C   UNL     1      32.313 -11.158 -21.758  0.00  0.00    +0.054 C 
ATOM      4  C   UNL     1      32.349 -10.286 -22.846  0.00  0.00    +0.005 C 
ATOM      5  C   UNL     1      31.704  -9.325 -20.309  0.00  0.00    +0.000 C 
ATOM      6  C   UNL     1      31.991 -10.678 -20.491  0.00  0.00    +0.005 C 
ATOM      7  C   UNL     1      31.449  -7.068 -21.229  0.00  0.00    +0.003 C 
ATOM      8  C   UNL     1      32.094  -8.030 -23.766  0.00  0.00    +0.000 C 
ATOM      9  C   UNL     1      31.484  -6.197 -22.317  0.00  0.00    +0.031 C 
ATOM     10  C   UNL     1      31.806  -6.677 -23.584  0.00  0.00    +0.003 C 
ENDROOT
BRANCH   9  13
ATOM     11  N   UNL     1      31.993  -3.794 -22.682  0.00  0.00    -0.343 N 
ATOM     12  N   UNL     1      30.132  -4.426 -21.417  0.00  0.00    -0.285 NA
ATOM     13  C   UNL     1      31.185  -4.786 -22.129  0.00  0.00    +0.117 C 
ATOM     14  H   UNL     1      31.771  -2.845 -22.543  0.00  0.00    +0.144 HD
ATOM     15  H   UNL     1      32.784  -4.043 -23.213  0.00  0.00    +0.144 HD
ATOM     16  H   UNL     1      29.927  -3.471 -21.289  0.00  0.00    +0.188 HD
ENDBRANCH   9  13
BRANCH   3  19
ATOM     17  O   UNL     1      32.103 -13.401 -21.177  0.00  0.00    -0.270 OA
ATOM     18  N   UNL     1      33.455 -12.877 -23.023  0.00  0.00    -0.280 N 
ATOM     19  C   UNL     1      32.613 -12.569 -21.945  0.00  0.00    +0.249 C 
ATOM     20  H   UNL     1      33.782 -12.109 -23.543  0.00  0.00    +0.155 HD
BRANCH  18  24
ATOM     21  C   UNL     1      34.926 -16.262 -22.980  0.00  0.00    +0.140 C 
ATOM     22  C   UNL     1      34.490 -15.010 -22.550  0.00  0.00    +0.052 C 
ATOM     23  C   UNL     1      34.763 -16.637 -24.314  0.00  0.00    +0.037 C 
ATOM     24  C   UNL     1      33.897 -14.150 -23.459  0.00  0.00    +0.054 C 
ATOM     25  C   UNL     1      34.165 -15.759 -25.217  0.00  0.00    +0.004 C 
ATOM     26  C   UNL     1      33.728 -14.506 -24.787  0.00  0.00    +0.015 C 
BRANCH  21  27
ATOM     27  O   UNL     1      35.511 -17.119 -22.100  0.00  0.00    -0.479 OA
BRANCH  27  28
ATOM     28  C   UNL     1      36.008 -18.344 -22.623  0.00  0.00    +0.166 C 
ATOM     29  C   UNL     1      35.048 -19.471 -22.272  0.00  0.00    +0.044 C 
ATOM     30  C   UNL     1      37.287 -18.746 -21.905  0.00  0.00    +0.044 C 
ATOM     31  C   UNL     1      35.379 -19.817 -20.820  0.00  0.00    +0.004 C 
ATOM     32  C   UNL     1      36.805 -19.324 -20.576  0.00  0.00    +0.004 C 
ENDBRANCH  27  28
ENDBRANCH  21  27
ENDBRANCH  18  24
ENDBRANCH   3  19
TORSDOF 5
ENDMDL
MODEL 5
REMARK VINA RESULT:     -10.7      6.211     10.216
REMARK  Name = 447734
REMARK  5 active torsions:
REMARK  status: ('A' for Active; 'I' for Inactive)
REMARK    1  A    between atoms: C_3  and  C_19
REMARK    2  A    between atoms: C_9  and  C_13
REMARK    3  A    between atoms: N_18  and  C_24
REMARK    4  A    between atoms: C_21  and  O_27
REMARK    5  A    between atoms: O_27  and  C_28
REMARK                            x       y       z     vdW  Elec       q    Type
REMARK                         _______ _______ _______ _____ _____    ______ ____
ROOT
ATOM      1  C   UNL     1      33.924 -14.951 -21.555  0.00  0.00    +0.000 C 
ATOM      2  C   UNL     1      34.191 -15.234 -22.915  0.00  0.00    +0.000 C 
ATOM      3  C   UNL     1      32.884 -12.852 -22.208  0.00  0.00    +0.054 C 
ATOM      4  C   UNL     1      33.270 -13.755 -21.218  0.00  0.00    +0.005 C 
ATOM      5  C   UNL     1      33.796 -14.314 -23.899  0.00  0.00    +0.000 C 
ATOM      6  C   UNL     1      33.146 -13.131 -23.546  0.00  0.00    +0.005 C 
ATOM      7  C   UNL     1      34.846 -16.431 -23.252  0.00  0.00    +0.003 C 
ATOM      8  C   UNL     1      34.319 -15.873 -20.571  0.00  0.00    +0.000 C 
ATOM      9  C   UNL     1      35.231 -17.335 -22.262  0.00  0.00    +0.031 C 
ATOM     10  C   UNL     1      34.968 -17.057 -20.924  0.00  0.00    +0.003 C 
ENDROOT
BRANCH   9  13
ATOM     11  N   UNL     1      35.222 -19.619 -23.237  0.00  0.00    -0.343 N 
ATOM     12  N   UNL     1      37.197 -18.712 -22.377  0.00  0.00    -0.285 NA
ATOM     13  C   UNL     1      35.908 -18.569 -22.628  0.00  0.00    +0.117 C 
ATOM     14  H   UNL     1      35.701 -20.446 -23.477  0.00  0.00    +0.144 HD
ATOM     15  H   UNL     1      34.260 -19.533 -23.429  0.00  0.00    +0.144 HD
ATOM     16  H   UNL     1      37.657 -19.547 -22.624  0.00  0.00    +0.188 HD
ENDBRANCH   9  13
BRANCH   3  19
ATOM     17  O   UNL     1      31.183 -11.675 -21.143  0.00  0.00    -0.270 OA
ATOM     18  N   UNL     1      32.802 -10.435 -22.304  0.00  0.00    -0.280 N 
ATOM     19  C   UNL     1      32.208 -11.617 -21.842  0.00  0.00    +0.249 C 
ATOM     20  H   UNL     1      33.613 -10.548 -22.850  0.00  0.00    +0.155 HD
BRANCH  18  24
ATOM     21  C   UNL     1      31.911  -6.912 -22.952  0.00  0.00    +0.140 C 
ATOM     22  C   UNL     1      32.318  -8.228 -23.164  0.00  0.00    +0.052 C 
ATOM     23  C   UNL     1      31.580  -6.484 -21.666  0.00  0.00    +0.037 C 
ATOM     24  C   UNL     1      32.387  -9.097 -22.088  0.00  0.00    +0.054 C 
ATOM     25  C   UNL     1      31.656  -7.372 -20.593  0.00  0.00    +0.004 C 
ATOM     26  C   UNL     1      32.062  -8.688 -20.806  0.00  0.00    +0.015 C 
BRANCH  21  27
ATOM     27  O   UNL     1      31.838  -6.044 -23.997  0.00  0.00    -0.479 OA
BRANCH  27  28
ATOM     28  C   UNL     1      32.790  -4.988 -24.030  0.00  0.00    +0.166 C 
ATOM     29  C   UNL     1      32.632  -4.206 -25.325  0.00  0.00    +0.044 C 
ATOM     30  C   UNL     1      34.199  -5.550 -24.138  0.00  0.00    +0.044 C 
ATOM     31  C   UNL     1      33.354  -5.052 -26.374  0.00  0.00    +0.004 C 
ATOM     32  C   UNL     1      34.338  -5.936 -25.609  0.00  0.00    +0.004 C 
ENDBRANCH  27  28
ENDBRANCH  21  27
ENDBRANCH  18  24
ENDBRANCH   3  19
TORSDOF 5
ENDMDL
MODEL 6
REMARK VINA RESULT:     -10.6      5.122      9.564
REMARK  Name = 447734
REMARK  5 active torsions:
REMARK  status: ('A' for Active; 'I' for Inactive)
REMARK    1  A    between atoms: C_3  and  C_19
REMARK    2  A    between atoms: C_9  and  C_13
REMARK    3  A    between atoms: N_18  and  C_24
REMARK    4  A    between atoms: C_21  and  O_27
REMARK    5  A    between atoms: O_27  and  C_28
REMARK                            x       y       z     vdW  Elec       q    Type
REMARK                         _______ _______ _______ _____ _____    ______ ____
ROOT
ATOM      1  C   UNL     1      34.738 -15.723 -23.090  0.00  0.00    +0.000 C 
ATOM      2  C   UNL     1      34.569 -15.750 -21.685  0.00  0.00    +0.000 C 
ATOM      3  C   UNL     1      34.314 -13.328 -23.083  0.00  0.00    +0.054 C 
ATOM      4  C   UNL     1      34.607 -14.504 -23.774  0.00  0.00    +0.005 C 
ATOM      5  C   UNL     1      34.274 -14.557 -21.005  0.00  0.00    +0.000 C 
ATOM      6  C   UNL     1      34.148 -13.355 -21.701  0.00  0.00    +0.005 C 
ATOM      7  C   UNL     1      34.699 -16.970 -21.001  0.00  0.00    +0.003 C 
ATOM      8  C   UNL     1      35.033 -16.917 -23.769  0.00  0.00    +0.000 C 
ATOM      9  C   UNL     1      34.993 -18.146 -21.691  0.00  0.00    +0.031 C 
ATOM     10  C   UNL     1      35.160 -18.119 -23.073  0.00  0.00    +0.003 C 
ENDROOT
BRANCH   9  13
ATOM     11  N   UNL     1      34.018 -20.204 -20.703  0.00  0.00    -0.343 N 
ATOM     12  N   UNL     1      36.313 -19.794 -20.544  0.00  0.00    -0.285 NA
ATOM     13  C   UNL     1      35.125 -19.401 -20.968  0.00  0.00    +0.117 C 
ATOM     14  H   UNL     1      34.130 -21.051 -20.212  0.00  0.00    +0.144 HD
ATOM     15  H   UNL     1      33.124 -19.927 -21.008  0.00  0.00    +0.144 HD
ATOM     16  H   UNL     1      36.405 -20.644 -20.055  0.00  0.00    +0.188 HD
ENDBRANCH   9  13
BRANCH   3  19
ATOM     17  O   UNL     1      33.843 -12.098 -25.001  0.00  0.00    -0.270 OA
ATOM     18  N   UNL     1      34.430 -10.910 -23.064  0.00  0.00    -0.280 N 
ATOM     19  C   UNL     1      34.181 -12.073 -23.806  0.00  0.00    +0.249 C 
ATOM     20  H   UNL     1      34.690 -11.049 -22.126  0.00  0.00    +0.155 HD
BRANCH  18  24
ATOM     21  C   UNL     1      33.133  -7.505 -23.651  0.00  0.00    +0.140 C 
ATOM     22  C   UNL     1      33.206  -8.832 -23.231  0.00  0.00    +0.052 C 
ATOM     23  C   UNL     1      34.209  -6.925 -24.323  0.00  0.00    +0.037 C 
ATOM     24  C   UNL     1      34.355  -9.561 -23.489  0.00  0.00    +0.054 C 
ATOM     25  C   UNL     1      35.359  -7.674 -24.575  0.00  0.00    +0.004 C 
ATOM     26  C   UNL     1      35.433  -9.001 -24.155  0.00  0.00    +0.015 C 
BRANCH  21  27
ATOM     27  O   UNL     1      32.012  -6.774 -23.406  0.00  0.00    -0.479 OA
BRANCH  27  28
ATOM     28  C   UNL     1      32.187  -5.512 -22.773  0.00  0.00    +0.166 C 
ATOM     29  C   UNL     1      32.543  -5.726 -21.309  0.00  0.00    +0.044 C 
ATOM     30  C   UNL     1      30.863  -4.768 -22.699  0.00  0.00    +0.044 C 
ATOM     31  C   UNL     1      31.205  -6.017 -20.629  0.00  0.00    +0.004 C 
ATOM     32  C   UNL     1      30.126  -5.429 -21.537  0.00  0.00    +0.004 C 
ENDBRANCH  27  28
ENDBRANCH  21  27
ENDBRANCH  18  24
ENDBRANCH   3  19
TORSDOF 5
ENDMDL
MODEL 7
REMARK VINA RESULT:     -10.6      3.360     10.326
REMARK  Name = 447734
REMARK  5 active torsions:
REMARK  status: ('A' for Active; 'I' for Inactive)
REMARK    1  A    between atoms: C_3  and  C_19
REMARK    2  A    between atoms: C_9  and  C_13
REMARK    3  A    between atoms: N_18  and  C_24
REMARK    4  A    between atoms: C_21  and  O_27
REMARK    5  A    between atoms: O_27  and  C_28
REMARK                            x       y       z     vdW  Elec       q    Type
REMARK                         _______ _______ _______ _____ _____    ______ ____
ROOT
ATOM      1  C   UNL     1      35.275 -20.495 -20.146  0.00  0.00    +0.000 C 
ATOM      2  C   UNL     1      34.075 -19.998 -20.707  0.00  0.00    +0.000 C 
ATOM      3  C   UNL     1      33.978 -21.947 -18.687  0.00  0.00    +0.054 C 
ATOM      4  C   UNL     1      35.209 -21.469 -19.137  0.00  0.00    +0.005 C 
ATOM      5  C   UNL     1      32.844 -20.490 -20.243  0.00  0.00    +0.000 C 
ATOM      6  C   UNL     1      32.797 -21.458 -19.240  0.00  0.00    +0.005 C 
ATOM      7  C   UNL     1      34.141 -19.023 -21.717  0.00  0.00    +0.003 C 
ATOM      8  C   UNL     1      36.506 -20.003 -20.611  0.00  0.00    +0.000 C 
ATOM      9  C   UNL     1      35.372 -18.547 -22.167  0.00  0.00    +0.031 C 
ATOM     10  C   UNL     1      36.552 -19.036 -21.615  0.00  0.00    +0.003 C 
ENDROOT
BRANCH   9  13
ATOM     11  N   UNL     1      34.945 -17.799 -24.496  0.00  0.00    -0.343 N 
ATOM     12  N   UNL     1      35.935 -16.348 -22.956  0.00  0.00    -0.285 NA
ATOM     13  C   UNL     1      35.423 -17.538 -23.213  0.00  0.00    +0.117 C 
ATOM     14  H   UNL     1      34.989 -17.101 -25.190  0.00  0.00    +0.144 HD
ATOM     15  H   UNL     1      34.563 -18.681 -24.709  0.00  0.00    +0.144 HD
ATOM     16  H   UNL     1      35.970 -15.663 -23.662  0.00  0.00    +0.188 HD
ENDBRANCH   9  13
BRANCH   3  19
ATOM     17  O   UNL     1      33.695 -24.135 -17.951  0.00  0.00    -0.270 OA
ATOM     18  N   UNL     1      34.174 -22.498 -16.339  0.00  0.00    -0.280 N 
ATOM     19  C   UNL     1      33.926 -22.955 -17.641  0.00  0.00    +0.249 C 
ATOM     20  H   UNL     1      34.341 -21.533 -16.249  0.00  0.00    +0.155 HD
BRANCH  18  24
ATOM     21  C   UNL     1      35.475 -24.226 -13.348  0.00  0.00    +0.140 C 
ATOM     22  C   UNL     1      35.436 -23.490 -14.531  0.00  0.00    +0.052 C 
ATOM     23  C   UNL     1      34.292 -24.706 -12.786  0.00  0.00    +0.037 C 
ATOM     24  C   UNL     1      34.214 -23.245 -15.135  0.00  0.00    +0.054 C 
ATOM     25  C   UNL     1      33.070 -24.450 -13.407  0.00  0.00    +0.004 C 
ATOM     26  C   UNL     1      33.031 -23.714 -14.591  0.00  0.00    +0.015 C 
BRANCH  21  27
ATOM     27  O   UNL     1      36.667 -24.477 -12.741  0.00  0.00    -0.479 OA
BRANCH  27  28
ATOM     28  C   UNL     1      37.050 -25.840 -12.605  0.00  0.00    +0.166 C 
ATOM     29  C   UNL     1      38.471 -25.914 -12.067  0.00  0.00    +0.044 C 
ATOM     30  C   UNL     1      37.166 -26.496 -13.972  0.00  0.00    +0.044 C 
ATOM     31  C   UNL     1      39.356 -25.662 -13.287  0.00  0.00    +0.004 C 
ATOM     32  C   UNL     1      38.508 -26.006 -14.511  0.00  0.00    +0.004 C 
ENDBRANCH  27  28
ENDBRANCH  21  27
ENDBRANCH  18  24
ENDBRANCH   3  19
TORSDOF 5
ENDMDL
MODEL 8
REMARK VINA RESULT:     -10.4      2.330      4.329
REMARK  Name = 447734
REMARK  5 active torsions:
REMARK  status: ('A' for Active; 'I' for Inactive)
REMARK    1  A    between atoms: C_3  and  C_19
REMARK    2  A    between atoms: C_9  and  C_13
REMARK    3  A    between atoms: N_18  and  C_24
REMARK    4  A    between atoms: C_21  and  O_27
REMARK    5  A    between atoms: O_27  and  C_28
REMARK                            x       y       z     vdW  Elec       q    Type
REMARK                         _______ _______ _______ _____ _____    ______ ____
ROOT
ATOM      1  C   UNL     1      34.420 -20.563 -19.878  0.00  0.00    +0.000 C 
ATOM      2  C   UNL     1      35.749 -20.809 -19.458  0.00  0.00    +0.000 C 
ATOM      3  C   UNL     1      35.237 -18.894 -21.447  0.00  0.00    +0.054 C 
ATOM      4  C   UNL     1      34.182 -19.602 -20.873  0.00  0.00    +0.005 C 
ATOM      5  C   UNL     1      36.800 -20.087 -20.046  0.00  0.00    +0.000 C 
ATOM      6  C   UNL     1      36.544 -19.136 -21.034  0.00  0.00    +0.005 C 
ATOM      7  C   UNL     1      35.988 -21.771 -18.462  0.00  0.00    +0.003 C 
ATOM      8  C   UNL     1      33.369 -21.285 -19.289  0.00  0.00    +0.000 C 
ATOM      9  C   UNL     1      34.932 -22.480 -17.889  0.00  0.00    +0.031 C 
ATOM     10  C   UNL     1      33.625 -22.237 -18.301  0.00  0.00    +0.003 C 
ENDROOT
BRANCH   9  13
ATOM     11  N   UNL     1      36.417 -23.512 -16.188  0.00  0.00    -0.343 N 
ATOM     12  N   UNL     1      34.269 -24.360 -16.548  0.00  0.00    -0.285 NA
ATOM     13  C   UNL     1      35.196 -23.472 -16.859  0.00  0.00    +0.117 C 
ATOM     14  H   UNL     1      36.574 -24.193 -15.493  0.00  0.00    +0.144 HD
ATOM     15  H   UNL     1      37.121 -22.860 -16.408  0.00  0.00    +0.144 HD
ATOM     16  H   UNL     1      34.446 -25.033 -15.851  0.00  0.00    +0.188 HD
ENDBRANCH   9  13
BRANCH   3  19
ATOM     17  O   UNL     1      35.121 -18.214 -23.669  0.00  0.00    -0.270 OA
ATOM     18  N   UNL     1      34.540 -16.648 -22.021  0.00  0.00    -0.280 N 
ATOM     19  C   UNL     1      34.973 -17.901 -22.476  0.00  0.00    +0.249 C 
ATOM     20  H   UNL     1      34.471 -16.548 -21.045  0.00  0.00    +0.155 HD
BRANCH  18  24
ATOM     21  C   UNL     1      33.480 -13.218 -22.878  0.00  0.00    +0.140 C 
ATOM     22  C   UNL     1      33.828 -14.341 -22.128  0.00  0.00    +0.052 C 
ATOM     23  C   UNL     1      33.497 -13.278 -24.272  0.00  0.00    +0.037 C 
ATOM     24  C   UNL     1      34.188 -15.507 -22.783  0.00  0.00    +0.054 C 
ATOM     25  C   UNL     1      33.861 -14.461 -24.915  0.00  0.00    +0.004 C 
ATOM     26  C   UNL     1      34.209 -15.583 -24.165  0.00  0.00    +0.015 C 
BRANCH  21  27
ATOM     27  O   UNL     1      33.124 -12.064 -22.252  0.00  0.00    -0.479 OA
BRANCH  27  28
ATOM     28  C   UNL     1      31.757 -11.922 -21.886  0.00  0.00    +0.166 C 
ATOM     29  C   UNL     1      31.391 -10.445 -21.863  0.00  0.00    +0.044 C 
ATOM     30  C   UNL     1      31.547 -12.350 -20.442  0.00  0.00    +0.044 C 
ATOM     31  C   UNL     1      31.927  -9.939 -20.524  0.00  0.00    +0.004 C 
ATOM     32  C   UNL     1      32.056 -11.166 -19.622  0.00  0.00    +0.004 C 
ENDBRANCH  27  28
ENDBRANCH  21  27
ENDBRANCH  18  24
ENDBRANCH   3  19
TORSDOF 5
ENDMDL
MODEL 9
REMARK VINA RESULT:     -10.3      1.511      2.068
REMARK  Name = 447734
REMARK  5 active torsions:
REMARK  status: ('A' for Active; 'I' for Inactive)
REMARK    1  A    between atoms: C_3  and  C_19
REMARK    2  A    between atoms: C_9  and  C_13
REMARK    3  A    between atoms: N_18  and  C_24
REMARK    4  A    between atoms: C_21  and  O_27
REMARK    5  A    between atoms: O_27  and  C_28
REMARK                            x       y       z     vdW  Elec       q    Type
REMARK                         _______ _______ _______ _____ _____    ______ ____
ROOT
ATOM      1  C   UNL     1      36.136 -21.726 -17.983  0.00  0.00    +0.000 C 
ATOM      2  C   UNL     1      34.965 -22.459 -17.679  0.00  0.00    +0.000 C 
ATOM      3  C   UNL     1      34.992 -20.702 -19.870  0.00  0.00    +0.054 C 
ATOM      4  C   UNL     1      36.133 -20.852 -19.083  0.00  0.00    +0.005 C 
ATOM      5  C   UNL     1      33.824 -22.296 -18.482  0.00  0.00    +0.000 C 
ATOM      6  C   UNL     1      33.839 -21.423 -19.570  0.00  0.00    +0.005 C 
ATOM      7  C   UNL     1      34.968 -23.333 -16.579  0.00  0.00    +0.003 C 
ATOM      8  C   UNL     1      37.277 -21.889 -17.180  0.00  0.00    +0.000 C 
ATOM      9  C   UNL     1      36.109 -23.482 -15.791  0.00  0.00    +0.031 C 
ATOM     10  C   UNL     1      37.262 -22.761 -16.091  0.00  0.00    +0.003 C 
ENDROOT
BRANCH   9  13
ATOM     11  N   UNL     1      34.946 -25.096 -14.306  0.00  0.00    -0.343 N 
ATOM     12  N   UNL     1      37.189 -24.557 -13.932  0.00  0.00    -0.285 NA
ATOM     13  C   UNL     1      36.096 -24.392 -14.656  0.00  0.00    +0.117 C 
ATOM     14  H   UNL     1      34.959 -25.708 -13.534  0.00  0.00    +0.144 HD
ATOM     15  H   UNL     1      34.121 -24.984 -14.831  0.00  0.00    +0.144 HD
ATOM     16  H   UNL     1      37.182 -25.172 -13.164  0.00  0.00    +0.188 HD
ENDBRANCH   9  13
BRANCH   3  19
ATOM     17  O   UNL     1      35.021 -20.265 -22.155  0.00  0.00    -0.270 OA
ATOM     18  N   UNL     1      34.973 -18.427 -20.695  0.00  0.00    -0.280 N 
ATOM     19  C   UNL     1      35.005 -19.794 -21.005  0.00  0.00    +0.249 C 
ATOM     20  H   UNL     1      34.963 -18.206 -19.737  0.00  0.00    +0.155 HD
BRANCH  18  24
ATOM     21  C   UNL     1      34.413 -15.028 -22.021  0.00  0.00    +0.140 C 
ATOM     22  C   UNL     1      34.434 -16.114 -21.147  0.00  0.00    +0.052 C 
ATOM     23  C   UNL     1      34.911 -15.165 -23.316  0.00  0.00    +0.037 C 
ATOM     24  C   UNL     1      34.953 -17.323 -21.582  0.00  0.00    +0.054 C 
ATOM     25  C   UNL     1      35.429 -16.390 -23.739  0.00  0.00    +0.004 C 
ATOM     26  C   UNL     1      35.450 -17.476 -22.865  0.00  0.00    +0.015 C 
BRANCH  21  27
ATOM     27  O   UNL     1      33.908 -13.833 -21.610  0.00  0.00    -0.479 OA
BRANCH  27  28
ATOM     28  C   UNL     1      32.494 -13.681 -21.650  0.00  0.00    +0.166 C 
ATOM     29  C   UNL     1      32.150 -12.285 -22.146  0.00  0.00    +0.044 C 
ATOM     30  C   UNL     1      31.920 -13.696 -20.242  0.00  0.00    +0.044 C 
ATOM     31  C   UNL     1      32.333 -11.388 -20.922  0.00  0.00    +0.004 C 
ATOM     32  C   UNL     1      32.216 -12.300 -19.701  0.00  0.00    +0.004 C 
ENDBRANCH  27  28
ENDBRANCH  21  27
ENDBRANCH  18  24
ENDBRANCH   3  19
TORSDOF 5
ENDMDL
