MODEL 1
REMARK VINA RESULT:     -11.6      0.000      0.000
REMARK  Name = 23586145
REMARK  7 active torsions:
REMARK  status: ('A' for Active; 'I' for Inactive)
REMARK    1  A    between atoms: C_5  and  O_24
REMARK    2  A    between atoms: C_7  and  N_10
REMARK    3  A    between atoms: N_10  and  C_12
REMARK    4  A    between atoms: C_15  and  S_18
REMARK    5  A    between atoms: S_18  and  N_21
REMARK    6  A    between atoms: O_24  and  C_25
REMARK    7  A    between atoms: C_25  and  C_26
REMARK                            x       y       z     vdW  Elec       q    Type
REMARK                         _______ _______ _______ _____ _____    ______ ____
ROOT
ATOM      1  N   UNL     1      32.827 -23.418 -14.163  0.00  0.00    -0.299 NA
ATOM      2  N   UNL     1      31.809 -22.966 -16.295  0.00  0.00    -0.106 N 
ATOM      3  N   UNL     1      30.565 -22.736 -16.792  0.00  0.00    -0.139 NA
ATOM      4  N   UNL     1      30.454 -23.066 -14.541  0.00  0.00    -0.145 NA
ATOM      5  C   UNL     1      33.943 -23.457 -14.815  0.00  0.00    +0.291 C 
ATOM      6  C   UNL     1      34.151 -23.260 -16.267  0.00  0.00    +0.105 C 
ATOM      7  C   UNL     1      33.035 -23.014 -16.976  0.00  0.00    +0.142 C 
ATOM      8  C   UNL     1      31.715 -23.166 -14.912  0.00  0.00    +0.178 C 
ATOM      9  C   UNL     1      29.805 -22.808 -15.705  0.00  0.00    +0.230 C 
ENDROOT
BRANCH   7  10
ATOM     10  N   UNL     1      33.017 -22.805 -18.325  0.00  0.00    -0.299 N 
ATOM     11  H   UNL     1      32.409 -23.383 -18.841  0.00  0.00    +0.153 HD
BRANCH  10  12
ATOM     12  C   UNL     1      33.753 -21.876 -19.070  0.00  0.00    +0.049 C 
ATOM     13  C   UNL     1      33.099 -20.881 -19.807  0.00  0.00    +0.016 C 
ATOM     14  C   UNL     1      35.152 -21.931 -19.087  0.00  0.00    +0.016 C 
ATOM     15  C   UNL     1      35.226 -20.018 -20.561  0.00  0.00    +0.122 C 
ATOM     16  C   UNL     1      33.833 -19.956 -20.549  0.00  0.00    +0.021 C 
ATOM     17  C   UNL     1      35.886 -21.006 -19.829  0.00  0.00    +0.021 C 
BRANCH  15  18
ATOM     18  S   UNL     1      36.145 -18.860 -21.490  0.00  0.00    +0.057 S 
ATOM     19  O   UNL     1      37.534 -18.922 -21.058  0.00  0.00    -0.153 OA
ATOM     20  O   UNL     1      35.817 -19.032 -22.898  0.00  0.00    -0.153 OA
BRANCH  18  21
ATOM     21  N   UNL     1      35.462 -17.391 -20.944  0.00  0.00    -0.203 NA
ATOM     22  H   UNL     1      35.282 -17.453 -19.942  0.00  0.00    +0.144 HD
ATOM     23  H   UNL     1      34.587 -17.220 -21.437  0.00  0.00    +0.144 HD
ENDBRANCH  18  21
ENDBRANCH  15  18
ENDBRANCH  10  12
ENDBRANCH   7  10
BRANCH   5  24
ATOM     24  O   UNL     1      35.081 -23.696 -14.171  0.00  0.00    -0.451 OA
BRANCH  24  25
ATOM     25  C   UNL     1      36.259 -23.487 -14.928  0.00  0.00    +0.208 C 
BRANCH  25  26
ATOM     26  C   UNL     1      37.239 -24.617 -14.621  0.00  0.00    +0.044 C 
ATOM     27  C   UNL     1      38.671 -24.208 -14.993  0.00  0.00    +0.004 C 
ATOM     28  C   UNL     1      37.154 -25.023 -13.144  0.00  0.00    +0.004 C 
ATOM     29  C   UNL     1      39.679 -25.303 -14.647  0.00  0.00    +0.000 C 
ATOM     30  C   UNL     1      38.164 -26.116 -12.799  0.00  0.00    +0.000 C 
ATOM     31  C   UNL     1      39.584 -25.709 -13.179  0.00  0.00    +0.000 C 
ENDBRANCH  25  26
ENDBRANCH  24  25
ENDBRANCH   5  24
TORSDOF 7
ENDMDL
MODEL 2
REMARK VINA RESULT:     -11.4      4.134      7.230
REMARK  Name = 23586145
REMARK  7 active torsions:
REMARK  status: ('A' for Active; 'I' for Inactive)
REMARK    1  A    between atoms: C_5  and  O_24
REMARK    2  A    between atoms: C_7  and  N_10
REMARK    3  A    between atoms: N_10  and  C_12
REMARK    4  A    between atoms: C_15  and  S_18
REMARK    5  A    between atoms: S_18  and  N_21
REMARK    6  A    between atoms: O_24  and  C_25
REMARK    7  A    between atoms: C_25  and  C_26
REMARK                            x       y       z     vdW  Elec       q    Type
REMARK                         _______ _______ _______ _____ _____    ______ ____
ROOT
ATOM      1  N   UNL     1      37.295 -23.663 -13.280  0.00  0.00    -0.299 NA
ATOM      2  N   UNL     1      35.355 -24.421 -12.077  0.00  0.00    -0.106 N 
ATOM      3  N   UNL     1      34.989 -24.642 -10.787  0.00  0.00    -0.139 NA
ATOM      4  N   UNL     1      37.140 -23.895 -10.868  0.00  0.00    -0.145 NA
ATOM      5  C   UNL     1      36.579 -23.832 -14.344  0.00  0.00    +0.291 C 
ATOM      6  C   UNL     1      35.181 -24.307 -14.428  0.00  0.00    +0.105 C 
ATOM      7  C   UNL     1      34.602 -24.594 -13.248  0.00  0.00    +0.142 C 
ATOM      8  C   UNL     1      36.678 -23.963 -12.100  0.00  0.00    +0.178 C 
ATOM      9  C   UNL     1      36.089 -24.313 -10.117  0.00  0.00    +0.230 C 
ENDROOT
BRANCH   7  10
ATOM     10  N   UNL     1      33.320 -25.044 -13.114  0.00  0.00    -0.299 N 
ATOM     11  H   UNL     1      33.189 -25.782 -12.476  0.00  0.00    +0.153 HD
BRANCH  10  12
ATOM     12  C   UNL     1      32.168 -24.593 -13.769  0.00  0.00    +0.049 C 
ATOM     13  C   UNL     1      32.142 -23.327 -14.366  0.00  0.00    +0.016 C 
ATOM     14  C   UNL     1      31.028 -25.405 -13.835  0.00  0.00    +0.016 C 
ATOM     15  C   UNL     1      29.862 -23.693 -15.080  0.00  0.00    +0.122 C 
ATOM     16  C   UNL     1      30.993 -22.879 -15.019  0.00  0.00    +0.021 C 
ATOM     17  C   UNL     1      29.880 -24.957 -14.488  0.00  0.00    +0.021 C 
BRANCH  15  18
ATOM     18  S   UNL     1      28.425 -23.132 -15.897  0.00  0.00    +0.057 S 
ATOM     19  O   UNL     1      27.378 -22.940 -14.904  0.00  0.00    -0.153 OA
ATOM     20  O   UNL     1      28.794 -22.035 -16.780  0.00  0.00    -0.153 OA
BRANCH  18  21
ATOM     21  N   UNL     1      28.039 -24.497 -16.850  0.00  0.00    -0.203 NA
ATOM     22  H   UNL     1      27.129 -24.860 -16.568  0.00  0.00    +0.144 HD
ATOM     23  H   UNL     1      28.749 -25.216 -16.716  0.00  0.00    +0.144 HD
ENDBRANCH  18  21
ENDBRANCH  15  18
ENDBRANCH  10  12
ENDBRANCH   7  10
BRANCH   5  24
ATOM     24  O   UNL     1      37.094 -23.566 -15.541  0.00  0.00    -0.451 OA
BRANCH  24  25
ATOM     25  C   UNL     1      36.824 -22.269 -16.039  0.00  0.00    +0.208 C 
BRANCH  25  26
ATOM     26  C   UNL     1      36.178 -22.405 -17.417  0.00  0.00    +0.044 C 
ATOM     27  C   UNL     1      34.648 -22.435 -17.297  0.00  0.00    +0.004 C 
ATOM     28  C   UNL     1      36.632 -21.269 -18.343  0.00  0.00    +0.004 C 
ATOM     29  C   UNL     1      33.977 -22.518 -18.667  0.00  0.00    +0.000 C 
ATOM     30  C   UNL     1      35.957 -21.353 -19.711  0.00  0.00    +0.000 C 
ATOM     31  C   UNL     1      34.438 -21.392 -19.587  0.00  0.00    +0.000 C 
ENDBRANCH  25  26
ENDBRANCH  24  25
ENDBRANCH   5  24
TORSDOF 7
ENDMDL
MODEL 3
REMARK VINA RESULT:     -11.2      3.518      7.223
REMARK  Name = 23586145
REMARK  7 active torsions:
REMARK  status: ('A' for Active; 'I' for Inactive)
REMARK    1  A    between atoms: C_5  and  O_24
REMARK    2  A    between atoms: C_7  and  N_10
REMARK    3  A    between atoms: N_10  and  C_12
REMARK    4  A    between atoms: C_15  and  S_18
REMARK    5  A    between atoms: S_18  and  N_21
REMARK    6  A    between atoms: O_24  and  C_25
REMARK    7  A    between atoms: C_25  and  C_26
REMARK                            x       y       z     vdW  Elec       q    Type
REMARK                         _______ _______ _______ _____ _____    ______ ____
ROOT
ATOM      1  N   UNL     1      31.335 -23.500 -16.126  0.00  0.00    -0.299 NA
ATOM      2  N   UNL     1      32.190 -24.329 -14.036  0.00  0.00    -0.106 N 
ATOM      3  N   UNL     1      31.709 -24.925 -12.914  0.00  0.00    -0.139 NA
ATOM      4  N   UNL     1      30.005 -24.523 -14.371  0.00  0.00    -0.145 NA
ATOM      5  C   UNL     1      32.561 -23.183 -16.388  0.00  0.00    +0.291 C 
ATOM      6  C   UNL     1      33.752 -23.388 -15.534  0.00  0.00    +0.105 C 
ATOM      7  C   UNL     1      33.511 -23.974 -14.348  0.00  0.00    +0.142 C 
ATOM      8  C   UNL     1      31.126 -24.093 -14.915  0.00  0.00    +0.178 C 
ATOM      9  C   UNL     1      30.408 -25.014 -13.171  0.00  0.00    +0.230 C 
ENDROOT
BRANCH   7  10
ATOM     10  N   UNL     1      34.475 -24.250 -13.421  0.00  0.00    -0.299 N 
ATOM     11  H   UNL     1      34.196 -24.183 -12.480  0.00  0.00    +0.153 HD
BRANCH  10  12
ATOM     12  C   UNL     1      35.809 -24.612 -13.637  0.00  0.00    +0.049 C 
ATOM     13  C   UNL     1      36.848 -23.873 -13.058  0.00  0.00    +0.016 C 
ATOM     14  C   UNL     1      36.121 -25.720 -14.437  0.00  0.00    +0.016 C 
ATOM     15  C   UNL     1      38.479 -25.339 -14.071  0.00  0.00    +0.122 C 
ATOM     16  C   UNL     1      38.177 -24.236 -13.274  0.00  0.00    +0.021 C 
ATOM     17  C   UNL     1      37.451 -26.082 -14.653  0.00  0.00    +0.021 C 
BRANCH  15  18
ATOM     18  S   UNL     1      40.144 -25.793 -14.341  0.00  0.00    +0.057 S 
ATOM     19  O   UNL     1      40.998 -24.738 -13.814  0.00  0.00    -0.153 OA
ATOM     20  O   UNL     1      40.328 -27.165 -13.892  0.00  0.00    -0.153 OA
BRANCH  18  21
ATOM     21  N   UNL     1      40.216 -25.760 -16.048  0.00  0.00    -0.203 NA
ATOM     22  H   UNL     1      39.662 -26.529 -16.426  0.00  0.00    +0.144 HD
ATOM     23  H   UNL     1      41.185 -25.858 -16.349  0.00  0.00    +0.144 HD
ENDBRANCH  18  21
ENDBRANCH  15  18
ENDBRANCH  10  12
ENDBRANCH   7  10
BRANCH   5  24
ATOM     24  O   UNL     1      32.865 -22.600 -17.544  0.00  0.00    -0.451 OA
BRANCH  24  25
ATOM     25  C   UNL     1      34.197 -22.788 -17.984  0.00  0.00    +0.208 C 
BRANCH  25  26
ATOM     26  C   UNL     1      34.392 -22.011 -19.284  0.00  0.00    +0.044 C 
ATOM     27  C   UNL     1      33.267 -20.984 -19.475  0.00  0.00    +0.004 C 
ATOM     28  C   UNL     1      35.765 -21.327 -19.306  0.00  0.00    +0.004 C 
ATOM     29  C   UNL     1      33.468 -20.157 -20.743  0.00  0.00    +0.000 C 
ATOM     30  C   UNL     1      35.962 -20.499 -20.575  0.00  0.00    +0.000 C 
ATOM     31  C   UNL     1      34.838 -19.486 -20.765  0.00  0.00    +0.000 C 
ENDBRANCH  25  26
ENDBRANCH  24  25
ENDBRANCH   5  24
TORSDOF 7
ENDMDL
MODEL 4
REMARK VINA RESULT:     -11.0      5.428     10.925
REMARK  Name = 23586145
REMARK  7 active torsions:
REMARK  status: ('A' for Active; 'I' for Inactive)
REMARK    1  A    between atoms: C_5  and  O_24
REMARK    2  A    between atoms: C_7  and  N_10
REMARK    3  A    between atoms: N_10  and  C_12
REMARK    4  A    between atoms: C_15  and  S_18
REMARK    5  A    between atoms: S_18  and  N_21
REMARK    6  A    between atoms: O_24  and  C_25
REMARK    7  A    between atoms: C_25  and  C_26
REMARK                            x       y       z     vdW  Elec       q    Type
REMARK                         _______ _______ _______ _____ _____    ______ ____
ROOT
ATOM      1  N   UNL     1      33.873 -14.684 -22.537  0.00  0.00    -0.299 NA
ATOM      2  N   UNL     1      34.798 -16.778 -23.274  0.00  0.00    -0.106 N 
ATOM      3  N   UNL     1      35.096 -17.393 -24.448  0.00  0.00    -0.139 NA
ATOM      4  N   UNL     1      34.217 -15.331 -24.851  0.00  0.00    -0.145 NA
ATOM      5  C   UNL     1      34.039 -15.145 -21.339  0.00  0.00    +0.291 C 
ATOM      6  C   UNL     1      34.595 -16.458 -20.944  0.00  0.00    +0.105 C 
ATOM      7  C   UNL     1      34.966 -17.252 -21.964  0.00  0.00    +0.142 C 
ATOM      8  C   UNL     1      34.260 -15.515 -23.547  0.00  0.00    +0.178 C 
ATOM      9  C   UNL     1      34.730 -16.485 -25.347  0.00  0.00    +0.230 C 
ENDROOT
BRANCH   7  10
ATOM     10  N   UNL     1      35.500 -18.499 -21.807  0.00  0.00    -0.299 N 
ATOM     11  H   UNL     1      36.274 -18.709 -22.379  0.00  0.00    +0.153 HD
BRANCH  10  12
ATOM     12  C   UNL     1      35.090 -19.517 -20.939  0.00  0.00    +0.049 C 
ATOM     13  C   UNL     1      36.035 -20.262 -20.222  0.00  0.00    +0.016 C 
ATOM     14  C   UNL     1      33.728 -19.803 -20.778  0.00  0.00    +0.016 C 
ATOM     15  C   UNL     1      34.266 -21.556 -19.203  0.00  0.00    +0.122 C 
ATOM     16  C   UNL     1      35.624 -21.277 -19.358  0.00  0.00    +0.021 C 
ATOM     17  C   UNL     1      33.318 -20.818 -19.913  0.00  0.00    +0.021 C 
BRANCH  15  18
ATOM     18  S   UNL     1      33.753 -22.826 -18.121  0.00  0.00    +0.057 S 
ATOM     19  O   UNL     1      34.738 -22.948 -17.057  0.00  0.00    -0.153 OA
ATOM     20  O   UNL     1      32.352 -22.612 -17.789  0.00  0.00    -0.153 OA
BRANCH  18  21
ATOM     21  N   UNL     1      33.872 -24.191 -19.143  0.00  0.00    -0.203 NA
ATOM     22  H   UNL     1      33.002 -24.301 -19.664  0.00  0.00    +0.144 HD
ATOM     23  H   UNL     1      34.040 -25.023 -18.580  0.00  0.00    +0.144 HD
ENDBRANCH  18  21
ENDBRANCH  15  18
ENDBRANCH  10  12
ENDBRANCH   7  10
BRANCH   5  24
ATOM     24  O   UNL     1      33.691 -14.408 -20.289  0.00  0.00    -0.451 OA
BRANCH  24  25
ATOM     25  C   UNL     1      32.392 -13.851 -20.345  0.00  0.00    +0.208 C 
BRANCH  25  26
ATOM     26  C   UNL     1      32.518 -12.330 -20.398  0.00  0.00    +0.044 C 
ATOM     27  C   UNL     1      32.016 -11.792 -21.745  0.00  0.00    +0.004 C 
ATOM     28  C   UNL     1      31.759 -11.682 -19.234  0.00  0.00    +0.004 C 
ATOM     29  C   UNL     1      32.084 -10.267 -21.803  0.00  0.00    +0.000 C 
ATOM     30  C   UNL     1      31.827 -10.156 -19.296  0.00  0.00    +0.000 C 
ATOM     31  C   UNL     1      31.336  -9.626 -20.639  0.00  0.00    +0.000 C 
ENDBRANCH  25  26
ENDBRANCH  24  25
ENDBRANCH   5  24
TORSDOF 7
ENDMDL
MODEL 5
REMARK VINA RESULT:     -10.9      2.150      6.227
REMARK  Name = 23586145
REMARK  7 active torsions:
REMARK  status: ('A' for Active; 'I' for Inactive)
REMARK    1  A    between atoms: C_5  and  O_24
REMARK    2  A    between atoms: C_7  and  N_10
REMARK    3  A    between atoms: N_10  and  C_12
REMARK    4  A    between atoms: C_15  and  S_18
REMARK    5  A    between atoms: S_18  and  N_21
REMARK    6  A    between atoms: O_24  and  C_25
REMARK    7  A    between atoms: C_25  and  C_26
REMARK                            x       y       z     vdW  Elec       q    Type
REMARK                         _______ _______ _______ _____ _____    ______ ____
ROOT
ATOM      1  N   UNL     1      32.428 -23.272 -14.165  0.00  0.00    -0.299 NA
ATOM      2  N   UNL     1      34.136 -23.548 -15.835  0.00  0.00    -0.106 N 
ATOM      3  N   UNL     1      35.460 -23.851 -15.885  0.00  0.00    -0.139 NA
ATOM      4  N   UNL     1      34.746 -23.840 -13.722  0.00  0.00    -0.145 NA
ATOM      5  C   UNL     1      31.637 -23.018 -15.157  0.00  0.00    +0.291 C 
ATOM      6  C   UNL     1      31.972 -22.994 -16.598  0.00  0.00    +0.105 C 
ATOM      7  C   UNL     1      33.256 -23.269 -16.891  0.00  0.00    +0.142 C 
ATOM      8  C   UNL     1      33.722 -23.547 -14.498  0.00  0.00    +0.178 C 
ATOM      9  C   UNL     1      35.765 -24.013 -14.602  0.00  0.00    +0.230 C 
ENDROOT
BRANCH   7  10
ATOM     10  N   UNL     1      33.761 -23.297 -18.159  0.00  0.00    -0.299 N 
ATOM     11  H   UNL     1      33.789 -24.182 -18.591  0.00  0.00    +0.153 HD
BRANCH  10  12
ATOM     12  C   UNL     1      34.247 -22.231 -18.925  0.00  0.00    +0.049 C 
ATOM     13  C   UNL     1      35.625 -22.051 -19.096  0.00  0.00    +0.016 C 
ATOM     14  C   UNL     1      33.360 -21.331 -19.528  0.00  0.00    +0.016 C 
ATOM     15  C   UNL     1      35.218 -20.096 -20.456  0.00  0.00    +0.122 C 
ATOM     16  C   UNL     1      36.109 -20.988 -19.858  0.00  0.00    +0.021 C 
ATOM     17  C   UNL     1      33.843 -20.267 -20.291  0.00  0.00    +0.021 C 
BRANCH  15  18
ATOM     18  S   UNL     1      35.824 -18.765 -21.411  0.00  0.00    +0.057 S 
ATOM     19  O   UNL     1      35.594 -19.066 -22.816  0.00  0.00    -0.153 OA
ATOM     20  O   UNL     1      35.317 -17.522 -20.845  0.00  0.00    -0.153 OA
BRANCH  18  21
ATOM     21  N   UNL     1      37.499 -18.871 -21.089  0.00  0.00    -0.203 NA
ATOM     22  H   UNL     1      37.795 -19.845 -21.152  0.00  0.00    +0.144 HD
ATOM     23  H   UNL     1      37.688 -18.518 -20.152  0.00  0.00    +0.144 HD
ENDBRANCH  18  21
ENDBRANCH  15  18
ENDBRANCH  10  12
ENDBRANCH   7  10
BRANCH   5  24
ATOM     24  O   UNL     1      30.357 -22.737 -14.933  0.00  0.00    -0.451 OA
BRANCH  24  25
ATOM     25  C   UNL     1      29.500 -23.860 -14.842  0.00  0.00    +0.208 C 
BRANCH  25  26
ATOM     26  C   UNL     1      28.177 -23.515 -15.522  0.00  0.00    +0.044 C 
ATOM     27  C   UNL     1      27.443 -22.410 -14.750  0.00  0.00    +0.004 C 
ATOM     28  C   UNL     1      28.409 -23.100 -16.981  0.00  0.00    +0.004 C 
ATOM     29  C   UNL     1      26.139 -22.011 -15.439  0.00  0.00    +0.000 C 
ATOM     30  C   UNL     1      27.104 -22.699 -17.667  0.00  0.00    +0.000 C 
ATOM     31  C   UNL     1      26.373 -21.607 -16.892  0.00  0.00    +0.000 C 
ENDBRANCH  25  26
ENDBRANCH  24  25
ENDBRANCH   5  24
TORSDOF 7
ENDMDL
MODEL 6
REMARK VINA RESULT:     -10.7      3.638      7.602
REMARK  Name = 23586145
REMARK  7 active torsions:
REMARK  status: ('A' for Active; 'I' for Inactive)
REMARK    1  A    between atoms: C_5  and  O_24
REMARK    2  A    between atoms: C_7  and  N_10
REMARK    3  A    between atoms: N_10  and  C_12
REMARK    4  A    between atoms: C_15  and  S_18
REMARK    5  A    between atoms: S_18  and  N_21
REMARK    6  A    between atoms: O_24  and  C_25
REMARK    7  A    between atoms: C_25  and  C_26
REMARK                            x       y       z     vdW  Elec       q    Type
REMARK                         _______ _______ _______ _____ _____    ______ ____
ROOT
ATOM      1  N   UNL     1      37.653 -22.802 -16.067  0.00  0.00    -0.299 NA
ATOM      2  N   UNL     1      36.368 -23.949 -14.388  0.00  0.00    -0.106 N 
ATOM      3  N   UNL     1      36.598 -24.712 -13.287  0.00  0.00    -0.139 NA
ATOM      4  N   UNL     1      38.577 -24.085 -14.224  0.00  0.00    -0.145 NA
ATOM      5  C   UNL     1      36.510 -22.450 -16.560  0.00  0.00    +0.291 C 
ATOM      6  C   UNL     1      35.163 -22.787 -16.051  0.00  0.00    +0.105 C 
ATOM      7  C   UNL     1      35.143 -23.552 -14.945  0.00  0.00    +0.142 C 
ATOM      8  C   UNL     1      37.598 -23.577 -14.945  0.00  0.00    +0.178 C 
ATOM      9  C   UNL     1      37.925 -24.757 -13.241  0.00  0.00    +0.230 C 
ENDROOT
BRANCH   7  10
ATOM     10  N   UNL     1      34.002 -23.968 -14.323  0.00  0.00    -0.299 N 
ATOM     11  H   UNL     1      34.129 -24.487 -13.496  0.00  0.00    +0.153 HD
BRANCH  10  12
ATOM     12  C   UNL     1      32.674 -23.755 -14.710  0.00  0.00    +0.049 C 
ATOM     13  C   UNL     1      32.381 -23.186 -15.956  0.00  0.00    +0.016 C 
ATOM     14  C   UNL     1      31.621 -24.108 -13.856  0.00  0.00    +0.016 C 
ATOM     15  C   UNL     1      30.016 -23.327 -15.484  0.00  0.00    +0.122 C 
ATOM     16  C   UNL     1      31.058 -22.973 -16.341  0.00  0.00    +0.021 C 
ATOM     17  C   UNL     1      30.298 -23.895 -14.241  0.00  0.00    +0.021 C 
BRANCH  15  18
ATOM     18  S   UNL     1      28.359 -23.061 -15.966  0.00  0.00    +0.057 S 
ATOM     19  O   UNL     1      27.527 -23.063 -14.772  0.00  0.00    -0.153 OA
ATOM     20  O   UNL     1      28.319 -21.923 -16.874  0.00  0.00    -0.153 OA
BRANCH  18  21
ATOM     21  N   UNL     1      28.048 -24.485 -16.859  0.00  0.00    -0.203 NA
ATOM     22  H   UNL     1      27.370 -24.283 -17.593  0.00  0.00    +0.144 HD
ATOM     23  H   UNL     1      27.673 -25.200 -16.237  0.00  0.00    +0.144 HD
ENDBRANCH  18  21
ENDBRANCH  15  18
ENDBRANCH  10  12
ENDBRANCH   7  10
BRANCH   5  24
ATOM     24  O   UNL     1      36.462 -21.694 -17.653  0.00  0.00    -0.451 OA
BRANCH  24  25
ATOM     25  C   UNL     1      35.455 -22.043 -18.584  0.00  0.00    +0.208 C 
BRANCH  25  26
ATOM     26  C   UNL     1      35.665 -21.222 -19.854  0.00  0.00    +0.044 C 
ATOM     27  C   UNL     1      34.381 -20.468 -20.230  0.00  0.00    +0.004 C 
ATOM     28  C   UNL     1      36.838 -20.249 -19.684  0.00  0.00    +0.004 C 
ATOM     29  C   UNL     1      34.580 -19.598 -21.469  0.00  0.00    +0.000 C 
ATOM     30  C   UNL     1      37.034 -19.378 -20.924  0.00  0.00    +0.000 C 
ATOM     31  C   UNL     1      35.754 -18.639 -21.299  0.00  0.00    +0.000 C 
ENDBRANCH  25  26
ENDBRANCH  24  25
ENDBRANCH   5  24
TORSDOF 7
ENDMDL
MODEL 7
REMARK VINA RESULT:     -10.6      6.819     10.557
REMARK  Name = 23586145
REMARK  7 active torsions:
REMARK  status: ('A' for Active; 'I' for Inactive)
REMARK    1  A    between atoms: C_5  and  O_24
REMARK    2  A    between atoms: C_7  and  N_10
REMARK    3  A    between atoms: N_10  and  C_12
REMARK    4  A    between atoms: C_15  and  S_18
REMARK    5  A    between atoms: S_18  and  N_21
REMARK    6  A    between atoms: O_24  and  C_25
REMARK    7  A    between atoms: C_25  and  C_26
REMARK                            x       y       z     vdW  Elec       q    Type
REMARK                         _______ _______ _______ _____ _____    ______ ____
ROOT
ATOM      1  N   UNL     1      35.230 -16.829 -23.607  0.00  0.00    -0.299 NA
ATOM      2  N   UNL     1      33.670 -15.029 -23.940  0.00  0.00    -0.106 N 
ATOM      3  N   UNL     1      33.070 -14.392 -24.980  0.00  0.00    -0.139 NA
ATOM      4  N   UNL     1      34.438 -16.037 -25.761  0.00  0.00    -0.145 NA
ATOM      5  C   UNL     1      35.088 -16.587 -22.344  0.00  0.00    +0.291 C 
ATOM      6  C   UNL     1      34.238 -15.556 -21.710  0.00  0.00    +0.105 C 
ATOM      7  C   UNL     1      33.536 -14.789 -22.564  0.00  0.00    +0.142 C 
ATOM      8  C   UNL     1      34.505 -16.034 -24.445  0.00  0.00    +0.178 C 
ATOM      9  C   UNL     1      33.565 -15.034 -26.033  0.00  0.00    +0.230 C 
ENDROOT
BRANCH   7  10
ATOM     10  N   UNL     1      32.695 -13.786 -22.177  0.00  0.00    -0.299 N 
ATOM     11  H   UNL     1      31.887 -14.067 -21.690  0.00  0.00    +0.153 HD
BRANCH  10  12
ATOM     12  C   UNL     1      32.833 -12.408 -22.385  0.00  0.00    +0.049 C 
ATOM     13  C   UNL     1      33.770 -11.920 -23.303  0.00  0.00    +0.016 C 
ATOM     14  C   UNL     1      32.034 -11.502 -21.675  0.00  0.00    +0.016 C 
ATOM     15  C   UNL     1      33.107  -9.651 -22.799  0.00  0.00    +0.122 C 
ATOM     16  C   UNL     1      33.906 -10.547 -23.509  0.00  0.00    +0.021 C 
ATOM     17  C   UNL     1      32.170 -10.129 -21.881  0.00  0.00    +0.021 C 
BRANCH  15  18
ATOM     18  S   UNL     1      33.277  -7.933 -23.057  0.00  0.00    +0.057 S 
ATOM     19  O   UNL     1      34.575  -7.688 -23.670  0.00  0.00    -0.153 OA
ATOM     20  O   UNL     1      32.068  -7.440 -23.701  0.00  0.00    -0.153 OA
BRANCH  18  21
ATOM     21  N   UNL     1      33.311  -7.365 -21.446  0.00  0.00    -0.203 NA
ATOM     22  H   UNL     1      33.047  -8.121 -20.814  0.00  0.00    +0.144 HD
ATOM     23  H   UNL     1      32.655  -6.591 -21.345  0.00  0.00    +0.144 HD
ENDBRANCH  18  21
ENDBRANCH  15  18
ENDBRANCH  10  12
ENDBRANCH   7  10
BRANCH   5  24
ATOM     24  O   UNL     1      35.755 -17.310 -21.449  0.00  0.00    -0.451 OA
BRANCH  24  25
ATOM     25  C   UNL     1      35.871 -18.687 -21.752  0.00  0.00    +0.208 C 
BRANCH  25  26
ATOM     26  C   UNL     1      35.321 -19.490 -20.574  0.00  0.00    +0.044 C 
ATOM     27  C   UNL     1      33.916 -20.022 -20.891  0.00  0.00    +0.004 C 
ATOM     28  C   UNL     1      36.270 -20.638 -20.210  0.00  0.00    +0.004 C 
ATOM     29  C   UNL     1      33.364 -20.872 -19.748  0.00  0.00    +0.000 C 
ATOM     30  C   UNL     1      35.715 -21.488 -19.068  0.00  0.00    +0.000 C 
ATOM     31  C   UNL     1      34.316 -22.007 -19.383  0.00  0.00    +0.000 C 
ENDBRANCH  25  26
ENDBRANCH  24  25
ENDBRANCH   5  24
TORSDOF 7
ENDMDL
MODEL 8
REMARK VINA RESULT:     -10.5      3.776      7.636
REMARK  Name = 23586145
REMARK  7 active torsions:
REMARK  status: ('A' for Active; 'I' for Inactive)
REMARK    1  A    between atoms: C_5  and  O_24
REMARK    2  A    between atoms: C_7  and  N_10
REMARK    3  A    between atoms: N_10  and  C_12
REMARK    4  A    between atoms: C_15  and  S_18
REMARK    5  A    between atoms: S_18  and  N_21
REMARK    6  A    between atoms: O_24  and  C_25
REMARK    7  A    between atoms: C_25  and  C_26
REMARK                            x       y       z     vdW  Elec       q    Type
REMARK                         _______ _______ _______ _____ _____    ______ ____
ROOT
ATOM      1  N   UNL     1      33.192 -21.763 -19.203  0.00  0.00    -0.299 NA
ATOM      2  N   UNL     1      35.525 -21.560 -18.653  0.00  0.00    -0.106 N 
ATOM      3  N   UNL     1      36.633 -20.956 -19.159  0.00  0.00    -0.139 NA
ATOM      4  N   UNL     1      34.834 -20.516 -20.485  0.00  0.00    -0.145 NA
ATOM      5  C   UNL     1      33.106 -22.490 -18.136  0.00  0.00    +0.291 C 
ATOM      6  C   UNL     1      34.190 -22.849 -17.195  0.00  0.00    +0.105 C 
ATOM      7  C   UNL     1      35.401 -22.352 -17.502  0.00  0.00    +0.142 C 
ATOM      8  C   UNL     1      34.435 -21.275 -19.484  0.00  0.00    +0.178 C 
ATOM      9  C   UNL     1      36.160 -20.352 -20.244  0.00  0.00    +0.230 C 
ENDROOT
BRANCH   7  10
ATOM     10  N   UNL     1      36.527 -22.569 -16.760  0.00  0.00    -0.299 N 
ATOM     11  H   UNL     1      37.370 -22.251 -17.157  0.00  0.00    +0.153 HD
BRANCH  10  12
ATOM     12  C   UNL     1      36.637 -23.186 -15.509  0.00  0.00    +0.049 C 
ATOM     13  C   UNL     1      37.791 -23.905 -15.172  0.00  0.00    +0.016 C 
ATOM     14  C   UNL     1      35.594 -23.091 -14.578  0.00  0.00    +0.016 C 
ATOM     15  C   UNL     1      36.856 -24.421 -13.004  0.00  0.00    +0.122 C 
ATOM     16  C   UNL     1      37.900 -24.519 -13.924  0.00  0.00    +0.021 C 
ATOM     17  C   UNL     1      35.703 -23.706 -13.331  0.00  0.00    +0.021 C 
BRANCH  15  18
ATOM     18  S   UNL     1      36.993 -25.191 -11.443  0.00  0.00    +0.057 S 
ATOM     19  O   UNL     1      37.187 -26.618 -11.650  0.00  0.00    -0.153 OA
ATOM     20  O   UNL     1      37.947 -24.440 -10.639  0.00  0.00    -0.153 OA
BRANCH  18  21
ATOM     21  N   UNL     1      35.425 -24.932 -10.815  0.00  0.00    -0.203 NA
ATOM     22  H   UNL     1      35.454 -24.986  -9.797  0.00  0.00    +0.144 HD
ATOM     23  H   UNL     1      34.792 -25.645 -11.176  0.00  0.00    +0.144 HD
ENDBRANCH  18  21
ENDBRANCH  15  18
ENDBRANCH  10  12
ENDBRANCH   7  10
BRANCH   5  24
ATOM     24  O   UNL     1      31.936 -23.011 -17.779  0.00  0.00    -0.451 OA
BRANCH  24  25
ATOM     25  C   UNL     1      31.440 -22.578 -16.526  0.00  0.00    +0.208 C 
BRANCH  25  26
ATOM     26  C   UNL     1      31.424 -23.772 -15.573  0.00  0.00    +0.044 C 
ATOM     27  C   UNL     1      32.014 -23.384 -14.210  0.00  0.00    +0.004 C 
ATOM     28  C   UNL     1      30.000 -24.321 -15.416  0.00  0.00    +0.004 C 
ATOM     29  C   UNL     1      31.962 -24.548 -13.222  0.00  0.00    +0.000 C 
ATOM     30  C   UNL     1      29.950 -25.483 -14.425  0.00  0.00    +0.000 C 
ATOM     31  C   UNL     1      30.546 -25.097 -13.075  0.00  0.00    +0.000 C 
ENDBRANCH  25  26
ENDBRANCH  24  25
ENDBRANCH   5  24
TORSDOF 7
ENDMDL
MODEL 9
REMARK VINA RESULT:     -10.4      6.108     11.553
REMARK  Name = 23586145
REMARK  7 active torsions:
REMARK  status: ('A' for Active; 'I' for Inactive)
REMARK    1  A    between atoms: C_5  and  O_24
REMARK    2  A    between atoms: C_7  and  N_10
REMARK    3  A    between atoms: N_10  and  C_12
REMARK    4  A    between atoms: C_15  and  S_18
REMARK    5  A    between atoms: S_18  and  N_21
REMARK    6  A    between atoms: O_24  and  C_25
REMARK    7  A    between atoms: C_25  and  C_26
REMARK                            x       y       z     vdW  Elec       q    Type
REMARK                         _______ _______ _______ _____ _____    ______ ____
ROOT
ATOM      1  N   UNL     1      33.088 -13.637 -23.353  0.00  0.00    -0.299 NA
ATOM      2  N   UNL     1      34.350 -15.469 -24.267  0.00  0.00    -0.106 N 
ATOM      3  N   UNL     1      34.545 -16.057 -25.476  0.00  0.00    -0.139 NA
ATOM      4  N   UNL     1      33.097 -14.312 -25.685  0.00  0.00    -0.145 NA
ATOM      5  C   UNL     1      33.614 -13.969 -22.219  0.00  0.00    +0.291 C 
ATOM      6  C   UNL     1      34.562 -15.073 -21.950  0.00  0.00    +0.105 C 
ATOM      7  C   UNL     1      34.905 -15.807 -23.023  0.00  0.00    +0.142 C 
ATOM      8  C   UNL     1      33.458 -14.401 -24.421  0.00  0.00    +0.178 C 
ATOM      9  C   UNL     1      33.776 -15.327 -26.277  0.00  0.00    +0.230 C 
ENDROOT
BRANCH   7  10
ATOM     10  N   UNL     1      35.765 -16.866 -22.982  0.00  0.00    -0.299 N 
ATOM     11  H   UNL     1      36.499 -16.848 -23.638  0.00  0.00    +0.153 HD
BRANCH  10  12
ATOM     12  C   UNL     1      35.738 -17.976 -22.129  0.00  0.00    +0.049 C 
ATOM     13  C   UNL     1      34.544 -18.675 -21.915  0.00  0.00    +0.016 C 
ATOM     14  C   UNL     1      36.904 -18.399 -21.480  0.00  0.00    +0.016 C 
ATOM     15  C   UNL     1      35.683 -20.196 -20.422  0.00  0.00    +0.122 C 
ATOM     16  C   UNL     1      34.517 -19.781 -21.065  0.00  0.00    +0.021 C 
ATOM     17  C   UNL     1      36.878 -19.504 -20.630  0.00  0.00    +0.021 C 
BRANCH  15  18
ATOM     18  S   UNL     1      35.649 -21.579 -19.358  0.00  0.00    +0.057 S 
ATOM     19  O   UNL     1      35.893 -22.775 -20.151  0.00  0.00    -0.153 OA
ATOM     20  O   UNL     1      36.488 -21.295 -18.202  0.00  0.00    -0.153 OA
BRANCH  18  21
ATOM     21  N   UNL     1      34.013 -21.568 -18.863  0.00  0.00    -0.203 NA
ATOM     22  H   UNL     1      33.967 -21.551 -17.845  0.00  0.00    +0.144 HD
ATOM     23  H   UNL     1      33.548 -22.406 -19.210  0.00  0.00    +0.144 HD
ENDBRANCH  18  21
ENDBRANCH  15  18
ENDBRANCH  10  12
ENDBRANCH   7  10
BRANCH   5  24
ATOM     24  O   UNL     1      33.315 -13.283 -21.120  0.00  0.00    -0.451 OA
BRANCH  24  25
ATOM     25  C   UNL     1      31.943 -13.266 -20.775  0.00  0.00    +0.208 C 
BRANCH  25  26
ATOM     26  C   UNL     1      31.506 -11.813 -20.599  0.00  0.00    +0.044 C 
ATOM     27  C   UNL     1      31.931 -11.282 -19.223  0.00  0.00    +0.004 C 
ATOM     28  C   UNL     1      32.074 -10.936 -21.722  0.00  0.00    +0.004 C 
ATOM     29  C   UNL     1      31.550  -9.814 -19.043  0.00  0.00    +0.000 C 
ATOM     30  C   UNL     1      31.694  -9.468 -21.539  0.00  0.00    +0.000 C 
ATOM     31  C   UNL     1      32.110  -8.947 -20.167  0.00  0.00    +0.000 C 
ENDBRANCH  25  26
ENDBRANCH  24  25
ENDBRANCH   5  24
TORSDOF 7
ENDMDL
