MODEL 1
REMARK VINA RESULT:     -11.9      0.000      0.000
REMARK  Name = 446129
REMARK  7 active torsions:
REMARK  status: ('A' for Active; 'I' for Inactive)
REMARK    1  A    between atoms: C_1  and  O_2
REMARK    2  A    between atoms: C_1  and  C_4
REMARK    3  A    between atoms: C_1  and  C_18
REMARK    4  A    between atoms: C_4  and  N_5
REMARK    5  A    between atoms: C_18  and  O_19
REMARK    6  A    between atoms: O_19  and  C_23
REMARK    7  A    between atoms: C_20  and  C_26
REMARK                            x       y       z     vdW  Elec       q    Type
REMARK                         _______ _______ _______ _____ _____    ______ ____
ROOT
ATOM      1  C   UNL     1      35.743 -17.975 -21.950  0.00  0.00    +0.133 C 
ENDROOT
BRANCH   1   2
ATOM      2  O   UNL     1      37.123 -18.293 -22.144  0.00  0.00    -0.383 OA
ATOM      3  H   UNL     1      37.610 -17.488 -22.383  0.00  0.00    +0.210 HD
ENDBRANCH   1   2
BRANCH   1   4
ATOM      4  C   UNL     1      35.251 -17.211 -23.182  0.00  0.00    -0.043 C 
BRANCH   4   5
ATOM      5  N   UNL     1      34.960 -15.810 -22.881  0.00  0.00    +0.391 N 
ATOM      6  N   UNL     1      33.351 -13.601 -22.050  0.00  0.00    -0.298 N 
ATOM      7  C   UNL     1      34.586 -15.652 -21.470  0.00  0.00    -0.055 C 
ATOM      8  C   UNL     1      33.881 -15.312 -23.743  0.00  0.00    -0.055 C 
ATOM      9  C   UNL     1      34.333 -14.182 -21.129  0.00  0.00    +0.069 C 
ATOM     10  C   UNL     1      33.605 -13.830 -23.478  0.00  0.00    +0.069 C 
ATOM     11  H   UNL     1      35.803 -15.264 -23.061  0.00  0.00    -0.079 HD
ATOM     12  N   UNL     1      32.758 -11.313 -22.447  0.00  0.00    -0.229 NA
ATOM     13  C   UNL     1      32.655 -12.443 -21.683  0.00  0.00    +0.132 C 
ATOM     14  C   UNL     1      31.862 -12.478 -20.527  0.00  0.00    +0.034 C 
ATOM     15  C   UNL     1      31.166 -11.335 -20.150  0.00  0.00    +0.004 C 
ATOM     16  C   UNL     1      32.066 -10.221 -22.048  0.00  0.00    +0.100 C 
ATOM     17  C   UNL     1      31.264 -10.182 -20.919  0.00  0.00    +0.021 C 
ENDBRANCH   4   5
ENDBRANCH   1   4
BRANCH   1  18
ATOM     18  C   UNL     1      34.973 -19.271 -21.696  0.00  0.00    +0.232 C 
BRANCH  18  19
ATOM     19  O   UNL     1      35.809 -20.167 -20.970  0.00  0.00    -0.473 OA
BRANCH  19  23
ATOM     20  C   UNL     1      33.995 -22.391 -17.972  0.00  0.00    -0.022 C 
ATOM     21  C   UNL     1      35.386 -22.360 -18.073  0.00  0.00    -0.001 C 
ATOM     22  C   UNL     1      33.214 -21.676 -18.879  0.00  0.00    -0.001 C 
ATOM     23  C   UNL     1      35.211 -20.901 -19.982  0.00  0.00    +0.139 C 
ATOM     24  C   UNL     1      35.996 -21.613 -19.080  0.00  0.00    +0.037 C 
ATOM     25  C   UNL     1      33.824 -20.929 -19.888  0.00  0.00    +0.037 C 
BRANCH  20  26
ATOM     26  C   UNL     1      33.332 -23.206 -16.877  0.00  0.00    +0.022 C 
ATOM     27  C   UNL     1      34.118 -23.137 -15.555  0.00  0.00    +0.004 C 
ATOM     28  C   UNL     1      31.865 -22.795 -16.666  0.00  0.00    +0.004 C 
ATOM     29  C   UNL     1      33.447 -23.968 -14.462  0.00  0.00    +0.000 C 
ATOM     30  C   UNL     1      31.203 -23.627 -15.569  0.00  0.00    +0.000 C 
ATOM     31  C   UNL     1      31.989 -23.563 -14.263  0.00  0.00    +0.000 C 
ENDBRANCH  20  26
ENDBRANCH  19  23
ENDBRANCH  18  19
ENDBRANCH   1  18
TORSDOF 7
ENDMDL
MODEL 2
REMARK VINA RESULT:     -11.4      0.995      1.764
REMARK  Name = 446129
REMARK  7 active torsions:
REMARK  status: ('A' for Active; 'I' for Inactive)
REMARK    1  A    between atoms: C_1  and  O_2
REMARK    2  A    between atoms: C_1  and  C_4
REMARK    3  A    between atoms: C_1  and  C_18
REMARK    4  A    between atoms: C_4  and  N_5
REMARK    5  A    between atoms: C_18  and  O_19
REMARK    6  A    between atoms: O_19  and  C_23
REMARK    7  A    between atoms: C_20  and  C_26
REMARK                            x       y       z     vdW  Elec       q    Type
REMARK                         _______ _______ _______ _____ _____    ______ ____
ROOT
ATOM      1  C   UNL     1      36.685 -18.338 -21.597  0.00  0.00    +0.133 C 
ENDROOT
BRANCH   1   2
ATOM      2  O   UNL     1      37.997 -18.343 -22.166  0.00  0.00    -0.383 OA
ATOM      3  H   UNL     1      38.222 -17.448 -22.466  0.00  0.00    +0.210 HD
ENDBRANCH   1   2
BRANCH   1   4
ATOM      4  C   UNL     1      35.669 -18.392 -22.740  0.00  0.00    -0.043 C 
BRANCH   4   5
ATOM      5  N   UNL     1      34.772 -17.236 -22.734  0.00  0.00    +0.391 N 
ATOM      6  N   UNL     1      34.091 -14.463 -22.788  0.00  0.00    -0.298 N 
ATOM      7  C   UNL     1      34.926 -16.458 -23.969  0.00  0.00    -0.055 C 
ATOM      8  C   UNL     1      35.038 -16.384 -21.569  0.00  0.00    -0.055 C 
ATOM      9  C   UNL     1      33.952 -15.277 -23.999  0.00  0.00    +0.069 C 
ATOM     10  C   UNL     1      34.068 -15.202 -21.519  0.00  0.00    +0.069 C 
ATOM     11  H   UNL     1      33.812 -17.580 -22.678  0.00  0.00    -0.079 HD
ATOM     12  N   UNL     1      32.674 -12.746 -21.899  0.00  0.00    -0.229 NA
ATOM     13  C   UNL     1      33.639 -13.138 -22.785  0.00  0.00    +0.132 C 
ATOM     14  C   UNL     1      34.198 -12.240 -23.706  0.00  0.00    +0.034 C 
ATOM     15  C   UNL     1      33.759 -10.921 -23.716  0.00  0.00    +0.004 C 
ATOM     16  C   UNL     1      32.272 -11.456 -21.939  0.00  0.00    +0.100 C 
ATOM     17  C   UNL     1      32.779 -10.513 -22.819  0.00  0.00    +0.021 C 
ENDBRANCH   4   5
ENDBRANCH   1   4
BRANCH   1  18
ATOM     18  C   UNL     1      36.568 -19.515 -20.629  0.00  0.00    +0.232 C 
BRANCH  18  19
ATOM     19  O   UNL     1      35.377 -20.237 -20.925  0.00  0.00    -0.473 OA
BRANCH  19  23
ATOM     20  C   UNL     1      33.737 -22.476 -17.839  0.00  0.00    -0.022 C 
ATOM     21  C   UNL     1      35.119 -22.449 -18.023  0.00  0.00    -0.001 C 
ATOM     22  C   UNL     1      32.906 -21.750 -18.692  0.00  0.00    -0.001 C 
ATOM     23  C   UNL     1      34.836 -20.976 -19.908  0.00  0.00    +0.139 C 
ATOM     24  C   UNL     1      35.670 -21.697 -19.060  0.00  0.00    +0.037 C 
ATOM     25  C   UNL     1      33.457 -20.999 -19.730  0.00  0.00    +0.037 C 
BRANCH  20  26
ATOM     26  C   UNL     1      33.138 -23.295 -16.711  0.00  0.00    +0.022 C 
ATOM     27  C   UNL     1      33.992 -23.225 -15.433  0.00  0.00    +0.004 C 
ATOM     28  C   UNL     1      31.682 -22.892 -16.422  0.00  0.00    +0.004 C 
ATOM     29  C   UNL     1      33.385 -24.060 -14.308  0.00  0.00    +0.000 C 
ATOM     30  C   UNL     1      31.083 -23.729 -15.292  0.00  0.00    +0.000 C 
ATOM     31  C   UNL     1      31.938 -23.664 -14.030  0.00  0.00    +0.000 C 
ENDBRANCH  20  26
ENDBRANCH  19  23
ENDBRANCH  18  19
ENDBRANCH   1  18
TORSDOF 7
ENDMDL
MODEL 3
REMARK VINA RESULT:     -11.4      2.387      4.703
REMARK  Name = 446129
REMARK  7 active torsions:
REMARK  status: ('A' for Active; 'I' for Inactive)
REMARK    1  A    between atoms: C_1  and  O_2
REMARK    2  A    between atoms: C_1  and  C_4
REMARK    3  A    between atoms: C_1  and  C_18
REMARK    4  A    between atoms: C_4  and  N_5
REMARK    5  A    between atoms: C_18  and  O_19
REMARK    6  A    between atoms: O_19  and  C_23
REMARK    7  A    between atoms: C_20  and  C_26
REMARK                            x       y       z     vdW  Elec       q    Type
REMARK                         _______ _______ _______ _____ _____    ______ ____
ROOT
ATOM      1  C   UNL     1      33.695 -14.386 -24.726  0.00  0.00    +0.133 C 
ENDROOT
BRANCH   1   2
ATOM      2  O   UNL     1      32.499 -14.356 -25.509  0.00  0.00    -0.383 OA
ATOM      3  H   UNL     1      31.870 -15.010 -25.165  0.00  0.00    +0.210 HD
ENDBRANCH   1   2
BRANCH   1   4
ATOM      4  C   UNL     1      33.312 -14.156 -23.262  0.00  0.00    -0.043 C 
BRANCH   4   5
ATOM      5  N   UNL     1      33.443 -12.751 -22.873  0.00  0.00    +0.391 N 
ATOM      6  N   UNL     1      32.832  -9.962 -22.930  0.00  0.00    -0.298 N 
ATOM      7  C   UNL     1      32.184 -12.255 -22.304  0.00  0.00    -0.055 C 
ATOM      8  C   UNL     1      33.827 -11.931 -24.028  0.00  0.00    -0.055 C 
ATOM      9  C   UNL     1      32.325 -10.803 -21.841  0.00  0.00    +0.069 C 
ATOM     10  C   UNL     1      34.023 -10.468 -23.623  0.00  0.00    +0.069 C 
ATOM     11  H   UNL     1      34.174 -12.685 -22.164  0.00  0.00    -0.079 HD
ATOM     12  N   UNL     1      33.712  -7.733 -22.890  0.00  0.00    -0.229 NA
ATOM     13  C   UNL     1      32.636  -8.577 -22.888  0.00  0.00    +0.132 C 
ATOM     14  C   UNL     1      31.322  -8.089 -22.842  0.00  0.00    +0.034 C 
ATOM     15  C   UNL     1      31.111  -6.716 -22.798  0.00  0.00    +0.004 C 
ATOM     16  C   UNL     1      33.468  -6.403 -22.847  0.00  0.00    +0.100 C 
ATOM     17  C   UNL     1      32.198  -5.850 -22.801  0.00  0.00    +0.021 C 
ENDBRANCH   4   5
ENDBRANCH   1   4
BRANCH   1  18
ATOM     18  C   UNL     1      34.402 -15.719 -24.963  0.00  0.00    +0.232 C 
BRANCH  18  19
ATOM     19  O   UNL     1      35.366 -15.918 -23.934  0.00  0.00    -0.473 OA
BRANCH  19  23
ATOM     20  C   UNL     1      34.948 -19.342 -21.626  0.00  0.00    -0.022 C 
ATOM     21  C   UNL     1      35.208 -18.116 -21.013  0.00  0.00    -0.001 C 
ATOM     22  C   UNL     1      34.831 -19.417 -23.014  0.00  0.00    -0.001 C 
ATOM     23  C   UNL     1      35.229 -17.047 -23.172  0.00  0.00    +0.139 C 
ATOM     24  C   UNL     1      35.348 -16.965 -21.789  0.00  0.00    +0.037 C 
ATOM     25  C   UNL     1      34.972 -18.267 -23.789  0.00  0.00    +0.037 C 
BRANCH  20  26
ATOM     26  C   UNL     1      34.797 -20.594 -20.782  0.00  0.00    +0.022 C 
ATOM     27  C   UNL     1      35.993 -20.797 -19.835  0.00  0.00    +0.004 C 
ATOM     28  C   UNL     1      33.471 -20.602 -20.003  0.00  0.00    +0.004 C 
ATOM     29  C   UNL     1      35.835 -22.064 -18.997  0.00  0.00    +0.000 C 
ATOM     30  C   UNL     1      33.323 -21.871 -19.164  0.00  0.00    +0.000 C 
ATOM     31  C   UNL     1      34.514 -22.072 -18.233  0.00  0.00    +0.000 C 
ENDBRANCH  20  26
ENDBRANCH  19  23
ENDBRANCH  18  19
ENDBRANCH   1  18
TORSDOF 7
ENDMDL
MODEL 4
REMARK VINA RESULT:     -10.9      1.819      3.316
REMARK  Name = 446129
REMARK  7 active torsions:
REMARK  status: ('A' for Active; 'I' for Inactive)
REMARK    1  A    between atoms: C_1  and  O_2
REMARK    2  A    between atoms: C_1  and  C_4
REMARK    3  A    between atoms: C_1  and  C_18
REMARK    4  A    between atoms: C_4  and  N_5
REMARK    5  A    between atoms: C_18  and  O_19
REMARK    6  A    between atoms: O_19  and  C_23
REMARK    7  A    between atoms: C_20  and  C_26
REMARK                            x       y       z     vdW  Elec       q    Type
REMARK                         _______ _______ _______ _____ _____    ______ ____
ROOT
ATOM      1  C   UNL     1      35.085 -15.590 -23.567  0.00  0.00    +0.133 C 
ENDROOT
BRANCH   1   2
ATOM      2  O   UNL     1      35.273 -16.436 -24.704  0.00  0.00    -0.383 OA
ATOM      3  H   UNL     1      36.091 -16.186 -25.162  0.00  0.00    +0.210 HD
ENDBRANCH   1   2
BRANCH   1   4
ATOM      4  C   UNL     1      33.772 -14.826 -23.753  0.00  0.00    -0.043 C 
BRANCH   4   5
ATOM      5  N   UNL     1      33.868 -13.443 -23.286  0.00  0.00    +0.391 N 
ATOM      6  N   UNL     1      33.097 -10.701 -23.077  0.00  0.00    -0.298 N 
ATOM      7  C   UNL     1      32.662 -13.065 -22.540  0.00  0.00    -0.055 C 
ATOM      8  C   UNL     1      34.063 -12.530 -24.418  0.00  0.00    -0.055 C 
ATOM      9  C   UNL     1      32.775 -11.639 -21.997  0.00  0.00    +0.069 C 
ATOM     10  C   UNL     1      34.223 -11.085 -23.938  0.00  0.00    +0.069 C 
ATOM     11  H   UNL     1      34.675 -13.374 -22.665  0.00  0.00    -0.079 HD
ATOM     12  N   UNL     1      33.848  -8.426 -22.986  0.00  0.00    -0.229 NA
ATOM     13  C   UNL     1      32.829  -9.337 -22.916  0.00  0.00    +0.132 C 
ATOM     14  C   UNL     1      31.505  -8.939 -22.683  0.00  0.00    +0.034 C 
ATOM     15  C   UNL     1      31.223  -7.587 -22.520  0.00  0.00    +0.004 C 
ATOM     16  C   UNL     1      33.535  -7.121 -22.822  0.00  0.00    +0.100 C 
ATOM     17  C   UNL     1      32.251  -6.655 -22.589  0.00  0.00    +0.021 C 
ENDBRANCH   4   5
ENDBRANCH   1   4
BRANCH   1  18
ATOM     18  C   UNL     1      35.108 -16.452 -22.306  0.00  0.00    +0.232 C 
BRANCH  18  19
ATOM     19  O   UNL     1      35.854 -17.636 -22.571  0.00  0.00    -0.473 OA
BRANCH  19  23
ATOM     20  C   UNL     1      35.396 -20.773 -19.892  0.00  0.00    -0.022 C 
ATOM     21  C   UNL     1      34.287 -20.267 -20.570  0.00  0.00    -0.001 C 
ATOM     22  C   UNL     1      36.659 -20.223 -20.113  0.00  0.00    -0.001 C 
ATOM     23  C   UNL     1      35.703 -18.670 -21.687  0.00  0.00    +0.139 C 
ATOM     24  C   UNL     1      34.441 -19.214 -21.471  0.00  0.00    +0.037 C 
ATOM     25  C   UNL     1      36.812 -19.168 -21.013  0.00  0.00    +0.037 C 
BRANCH  20  26
ATOM     26  C   UNL     1      35.228 -21.919 -18.912  0.00  0.00    +0.022 C 
ATOM     27  C   UNL     1      36.100 -21.734 -17.658  0.00  0.00    +0.004 C 
ATOM     28  C   UNL     1      33.753 -22.133 -18.530  0.00  0.00    +0.004 C 
ATOM     29  C   UNL     1      35.931 -22.898 -16.682  0.00  0.00    +0.000 C 
ATOM     30  C   UNL     1      33.593 -23.295 -17.551  0.00  0.00    +0.000 C 
ATOM     31  C   UNL     1      34.466 -23.113 -16.313  0.00  0.00    +0.000 C 
ENDBRANCH  20  26
ENDBRANCH  19  23
ENDBRANCH  18  19
ENDBRANCH   1  18
TORSDOF 7
ENDMDL
MODEL 5
REMARK VINA RESULT:     -10.8      5.038     12.635
REMARK  Name = 446129
REMARK  7 active torsions:
REMARK  status: ('A' for Active; 'I' for Inactive)
REMARK    1  A    between atoms: C_1  and  O_2
REMARK    2  A    between atoms: C_1  and  C_4
REMARK    3  A    between atoms: C_1  and  C_18
REMARK    4  A    between atoms: C_4  and  N_5
REMARK    5  A    between atoms: C_18  and  O_19
REMARK    6  A    between atoms: O_19  and  C_23
REMARK    7  A    between atoms: C_20  and  C_26
REMARK                            x       y       z     vdW  Elec       q    Type
REMARK                         _______ _______ _______ _____ _____    ______ ____
ROOT
ATOM      1  C   UNL     1      31.455 -11.897 -20.390  0.00  0.00    +0.133 C 
ENDROOT
BRANCH   1   2
ATOM      2  O   UNL     1      30.092 -11.534 -20.625  0.00  0.00    -0.383 OA
ATOM      3  H   UNL     1      30.059 -10.693 -21.107  0.00  0.00    +0.210 HD
ENDBRANCH   1   2
BRANCH   1   4
ATOM      4  C   UNL     1      32.102 -12.218 -21.739  0.00  0.00    -0.043 C 
BRANCH   4   5
ATOM      5  N   UNL     1      33.154 -13.228 -21.618  0.00  0.00    +0.391 N 
ATOM      6  N   UNL     1      34.330 -15.815 -21.904  0.00  0.00    -0.298 N 
ATOM      7  C   UNL     1      33.550 -13.721 -22.942  0.00  0.00    -0.055 C 
ATOM      8  C   UNL     1      32.698 -14.347 -20.783  0.00  0.00    -0.055 C 
ATOM      9  C   UNL     1      34.689 -14.738 -22.832  0.00  0.00    +0.069 C 
ATOM     10  C   UNL     1      33.809 -15.385 -20.601  0.00  0.00    +0.069 C 
ATOM     11  H   UNL     1      33.962 -12.793 -21.172  0.00  0.00    -0.079 HD
ATOM     12  N   UNL     1      35.692 -17.504 -20.885  0.00  0.00    -0.229 NA
ATOM     13  C   UNL     1      35.001 -17.042 -21.971  0.00  0.00    +0.132 C 
ATOM     14  C   UNL     1      34.944 -17.770 -23.168  0.00  0.00    +0.034 C 
ATOM     15  C   UNL     1      35.606 -18.990 -23.251  0.00  0.00    +0.004 C 
ATOM     16  C   UNL     1      36.323 -18.695 -21.002  0.00  0.00    +0.100 C 
ATOM     17  C   UNL     1      36.310 -19.468 -22.151  0.00  0.00    +0.021 C 
ENDBRANCH   4   5
ENDBRANCH   1   4
BRANCH   1  18
ATOM     18  C   UNL     1      32.144 -10.754 -19.646  0.00  0.00    +0.232 C 
BRANCH  18  19
ATOM     19  O   UNL     1      31.414  -9.551 -19.873  0.00  0.00    -0.473 OA
BRANCH  19  23
ATOM     20  C   UNL     1      33.022  -6.886 -22.618  0.00  0.00    -0.022 C 
ATOM     21  C   UNL     1      33.450  -6.863 -21.291  0.00  0.00    -0.001 C 
ATOM     22  C   UNL     1      32.054  -7.804 -23.022  0.00  0.00    -0.001 C 
ATOM     23  C   UNL     1      31.944  -8.672 -20.778  0.00  0.00    +0.139 C 
ATOM     24  C   UNL     1      32.910  -7.758 -20.368  0.00  0.00    +0.037 C 
ATOM     25  C   UNL     1      31.513  -8.699 -22.100  0.00  0.00    +0.037 C 
BRANCH  20  26
ATOM     26  C   UNL     1      33.609  -5.911 -23.621  0.00  0.00    +0.022 C 
ATOM     27  C   UNL     1      34.719  -6.557 -24.469  0.00  0.00    +0.004 C 
ATOM     28  C   UNL     1      32.525  -5.288 -24.517  0.00  0.00    +0.004 C 
ATOM     29  C   UNL     1      35.309  -5.564 -25.469  0.00  0.00    +0.000 C 
ATOM     30  C   UNL     1      33.124  -4.300 -25.517  0.00  0.00    +0.000 C 
ATOM     31  C   UNL     1      34.229  -4.942 -26.349  0.00  0.00    +0.000 C 
ENDBRANCH  20  26
ENDBRANCH  19  23
ENDBRANCH  18  19
ENDBRANCH   1  18
TORSDOF 7
ENDMDL
MODEL 6
REMARK VINA RESULT:     -10.7      4.086     11.219
REMARK  Name = 446129
REMARK  7 active torsions:
REMARK  status: ('A' for Active; 'I' for Inactive)
REMARK    1  A    between atoms: C_1  and  O_2
REMARK    2  A    between atoms: C_1  and  C_4
REMARK    3  A    between atoms: C_1  and  C_18
REMARK    4  A    between atoms: C_4  and  N_5
REMARK    5  A    between atoms: C_18  and  O_19
REMARK    6  A    between atoms: O_19  and  C_23
REMARK    7  A    between atoms: C_20  and  C_26
REMARK                            x       y       z     vdW  Elec       q    Type
REMARK                         _______ _______ _______ _____ _____    ______ ____
ROOT
ATOM      1  C   UNL     1      33.791 -20.860 -19.565  0.00  0.00    +0.133 C 
ENDROOT
BRANCH   1   2
ATOM      2  O   UNL     1      32.437 -20.608 -19.950  0.00  0.00    -0.383 OA
ATOM      3  H   UNL     1      31.985 -20.122 -19.243  0.00  0.00    +0.210 HD
ENDBRANCH   1   2
BRANCH   1   4
ATOM      4  C   UNL     1      33.882 -22.301 -19.057  0.00  0.00    -0.043 C 
BRANCH   4   5
ATOM      5  N   UNL     1      34.360 -22.369 -17.676  0.00  0.00    +0.391 N 
ATOM      6  N   UNL     1      35.775 -23.480 -15.458  0.00  0.00    -0.298 N 
ATOM      7  C   UNL     1      35.826 -22.328 -17.635  0.00  0.00    -0.055 C 
ATOM      8  C   UNL     1      33.875 -23.591 -17.023  0.00  0.00    -0.055 C 
ATOM      9  C   UNL     1      36.337 -22.342 -16.193  0.00  0.00    +0.069 C 
ATOM     10  C   UNL     1      34.320 -23.646 -15.560  0.00  0.00    +0.069 C 
ATOM     11  H   UNL     1      33.993 -21.560 -17.173  0.00  0.00    -0.079 HD
ATOM     12  N   UNL     1      35.738 -23.944 -13.106  0.00  0.00    -0.229 NA
ATOM     13  C   UNL     1      36.410 -23.939 -14.298  0.00  0.00    +0.132 C 
ATOM     14  C   UNL     1      37.735 -24.387 -14.394  0.00  0.00    +0.034 C 
ATOM     15  C   UNL     1      38.379 -24.846 -13.251  0.00  0.00    +0.004 C 
ATOM     16  C   UNL     1      36.396 -24.397 -12.016  0.00  0.00    +0.100 C 
ATOM     17  C   UNL     1      37.704 -24.855 -12.036  0.00  0.00    +0.021 C 
ENDBRANCH   4   5
ENDBRANCH   1   4
BRANCH   1  18
ATOM     18  C   UNL     1      34.699 -20.583 -20.762  0.00  0.00    +0.232 C 
BRANCH  18  19
ATOM     19  O   UNL     1      35.435 -19.389 -20.515  0.00  0.00    -0.473 OA
BRANCH  19  23
ATOM     20  C   UNL     1      34.887 -16.272 -23.200  0.00  0.00    -0.022 C 
ATOM     21  C   UNL     1      35.085 -17.570 -23.670  0.00  0.00    -0.001 C 
ATOM     22  C   UNL     1      34.875 -16.022 -21.828  0.00  0.00    -0.001 C 
ATOM     23  C   UNL     1      35.255 -18.361 -21.401  0.00  0.00    +0.139 C 
ATOM     24  C   UNL     1      35.269 -18.618 -22.768  0.00  0.00    +0.037 C 
ATOM     25  C   UNL     1      35.060 -17.069 -20.926  0.00  0.00    +0.037 C 
BRANCH  20  26
ATOM     26  C   UNL     1      34.689 -15.133 -24.182  0.00  0.00    +0.022 C 
ATOM     27  C   UNL     1      33.907 -15.580 -25.430  0.00  0.00    +0.004 C 
ATOM     28  C   UNL     1      34.019 -13.917 -23.520  0.00  0.00    +0.004 C 
ATOM     29  C   UNL     1      33.720 -14.428 -26.416  0.00  0.00    +0.000 C 
ATOM     30  C   UNL     1      33.832 -12.771 -24.513  0.00  0.00    +0.000 C 
ATOM     31  C   UNL     1      33.064 -13.220 -25.752  0.00  0.00    +0.000 C 
ENDBRANCH  20  26
ENDBRANCH  19  23
ENDBRANCH  18  19
ENDBRANCH   1  18
TORSDOF 7
ENDMDL
MODEL 7
REMARK VINA RESULT:     -10.6      1.086      1.969
REMARK  Name = 446129
REMARK  7 active torsions:
REMARK  status: ('A' for Active; 'I' for Inactive)
REMARK    1  A    between atoms: C_1  and  O_2
REMARK    2  A    between atoms: C_1  and  C_4
REMARK    3  A    between atoms: C_1  and  C_18
REMARK    4  A    between atoms: C_4  and  N_5
REMARK    5  A    between atoms: C_18  and  O_19
REMARK    6  A    between atoms: O_19  and  C_23
REMARK    7  A    between atoms: C_20  and  C_26
REMARK                            x       y       z     vdW  Elec       q    Type
REMARK                         _______ _______ _______ _____ _____    ______ ____
ROOT
ATOM      1  C   UNL     1      35.783 -18.099 -22.000  0.00  0.00    +0.133 C 
ENDROOT
BRANCH   1   2
ATOM      2  O   UNL     1      37.031 -18.665 -22.405  0.00  0.00    -0.383 OA
ATOM      3  H   UNL     1      37.733 -18.003 -22.311  0.00  0.00    +0.210 HD
ENDBRANCH   1   2
BRANCH   1   4
ATOM      4  C   UNL     1      35.190 -17.347 -23.195  0.00  0.00    -0.043 C 
BRANCH   4   5
ATOM      5  N   UNL     1      34.939 -15.939 -22.889  0.00  0.00    +0.391 N 
ATOM      6  N   UNL     1      33.366 -13.671 -22.154  0.00  0.00    -0.298 N 
ATOM      7  C   UNL     1      34.449 -15.789 -21.514  0.00  0.00    -0.055 C 
ATOM      8  C   UNL     1      33.964 -15.375 -23.831  0.00  0.00    -0.055 C 
ATOM      9  C   UNL     1      34.236 -14.315 -21.164  0.00  0.00    +0.069 C 
ATOM     10  C   UNL     1      33.734 -13.886 -23.558  0.00  0.00    +0.069 C 
ATOM     11  H   UNL     1      35.819 -15.431 -22.984  0.00  0.00    -0.079 HD
ATOM     12  N   UNL     1      32.917 -11.350 -22.550  0.00  0.00    -0.229 NA
ATOM     13  C   UNL     1      32.695 -12.488 -21.824  0.00  0.00    +0.132 C 
ATOM     14  C   UNL     1      31.803 -12.505 -20.742  0.00  0.00    +0.034 C 
ATOM     15  C   UNL     1      31.129 -11.337 -20.402  0.00  0.00    +0.004 C 
ATOM     16  C   UNL     1      32.244 -10.234 -22.190  0.00  0.00    +0.100 C 
ATOM     17  C   UNL     1      31.348 -10.176 -21.134  0.00  0.00    +0.021 C 
ENDBRANCH   4   5
ENDBRANCH   1   4
BRANCH   1  18
ATOM     18  C   UNL     1      34.881 -19.219 -21.485  0.00  0.00    +0.232 C 
BRANCH  18  19
ATOM     19  O   UNL     1      35.670 -20.387 -21.279  0.00  0.00    -0.473 OA
BRANCH  19  23
ATOM     20  C   UNL     1      35.537 -22.086 -17.494  0.00  0.00    -0.022 C 
ATOM     21  C   UNL     1      34.371 -21.978 -18.251  0.00  0.00    -0.001 C 
ATOM     22  C   UNL     1      36.748 -21.622 -18.009  0.00  0.00    -0.001 C 
ATOM     23  C   UNL     1      35.626 -20.947 -20.030  0.00  0.00    +0.139 C 
ATOM     24  C   UNL     1      34.415 -21.407 -19.523  0.00  0.00    +0.037 C 
ATOM     25  C   UNL     1      36.792 -21.050 -19.280  0.00  0.00    +0.037 C 
BRANCH  20  26
ATOM     26  C   UNL     1      35.488 -22.706 -16.110  0.00  0.00    +0.022 C 
ATOM     27  C   UNL     1      34.404 -23.793 -16.006  0.00  0.00    +0.004 C 
ATOM     28  C   UNL     1      36.860 -23.254 -15.680  0.00  0.00    +0.004 C 
ATOM     29  C   UNL     1      34.357 -24.404 -14.607  0.00  0.00    +0.000 C 
ATOM     30  C   UNL     1      36.803 -23.868 -14.281  0.00  0.00    +0.000 C 
ATOM     31  C   UNL     1      35.721 -24.939 -14.180  0.00  0.00    +0.000 C 
ENDBRANCH  20  26
ENDBRANCH  19  23
ENDBRANCH  18  19
ENDBRANCH   1  18
TORSDOF 7
ENDMDL
MODEL 8
REMARK VINA RESULT:     -10.6      5.290      8.704
REMARK  Name = 446129
REMARK  7 active torsions:
REMARK  status: ('A' for Active; 'I' for Inactive)
REMARK    1  A    between atoms: C_1  and  O_2
REMARK    2  A    between atoms: C_1  and  C_4
REMARK    3  A    between atoms: C_1  and  C_18
REMARK    4  A    between atoms: C_4  and  N_5
REMARK    5  A    between atoms: C_18  and  O_19
REMARK    6  A    between atoms: O_19  and  C_23
REMARK    7  A    between atoms: C_20  and  C_26
REMARK                            x       y       z     vdW  Elec       q    Type
REMARK                         _______ _______ _______ _____ _____    ______ ____
ROOT
ATOM      1  C   UNL     1      31.181 -10.385 -19.643  0.00  0.00    +0.133 C 
ENDROOT
BRANCH   1   2
ATOM      2  O   UNL     1      31.513 -10.930 -18.364  0.00  0.00    -0.383 OA
ATOM      3  H   UNL     1      31.965 -10.256 -17.833  0.00  0.00    +0.210 HD
ENDBRANCH   1   2
BRANCH   1   4
ATOM      4  C   UNL     1      32.337  -9.489 -20.095  0.00  0.00    -0.043 C 
BRANCH   4   5
ATOM      5  N   UNL     1      31.886  -8.412 -20.977  0.00  0.00    +0.391 N 
ATOM      6  N   UNL     1      32.192  -6.225 -22.788  0.00  0.00    -0.298 N 
ATOM      7  C   UNL     1      32.345  -8.644 -22.351  0.00  0.00    -0.055 C 
ATOM      8  C   UNL     1      32.380  -7.115 -20.497  0.00  0.00    -0.055 C 
ATOM      9  C   UNL     1      31.833  -7.553 -23.294  0.00  0.00    +0.069 C 
ATOM     10  C   UNL     1      31.868  -5.973 -21.378  0.00  0.00    +0.069 C 
ATOM     11  H   UNL     1      30.866  -8.400 -20.967  0.00  0.00    -0.079 HD
ATOM     12  N   UNL     1      31.408  -4.053 -23.433  0.00  0.00    -0.229 NA
ATOM     13  C   UNL     1      32.218  -5.132 -23.662  0.00  0.00    +0.132 C 
ATOM     14  C   UNL     1      33.086  -5.177 -24.762  0.00  0.00    +0.034 C 
ATOM     15  C   UNL     1      33.122  -4.099 -25.640  0.00  0.00    +0.004 C 
ATOM     16  C   UNL     1      31.471  -3.024 -24.308  0.00  0.00    +0.100 C 
ATOM     17  C   UNL     1      32.303  -2.999 -25.415  0.00  0.00    +0.021 C 
ENDBRANCH   4   5
ENDBRANCH   1   4
BRANCH   1  18
ATOM     18  C   UNL     1      30.896 -11.536 -20.607  0.00  0.00    +0.232 C 
BRANCH  18  19
ATOM     19  O   UNL     1      31.874 -11.523 -21.642  0.00  0.00    -0.473 OA
BRANCH  19  23
ATOM     20  C   UNL     1      34.159 -14.958 -22.095  0.00  0.00    -0.022 C 
ATOM     21  C   UNL     1      33.321 -14.819 -20.989  0.00  0.00    -0.001 C 
ATOM     22  C   UNL     1      34.230 -13.942 -23.048  0.00  0.00    -0.001 C 
ATOM     23  C   UNL     1      32.628 -12.655 -21.791  0.00  0.00    +0.139 C 
ATOM     24  C   UNL     1      32.553 -13.665 -20.836  0.00  0.00    +0.037 C 
ATOM     25  C   UNL     1      33.463 -12.787 -22.895  0.00  0.00    +0.037 C 
BRANCH  20  26
ATOM     26  C   UNL     1      34.995 -16.213 -22.260  0.00  0.00    +0.022 C 
ATOM     27  C   UNL     1      34.903 -17.131 -21.027  0.00  0.00    +0.004 C 
ATOM     28  C   UNL     1      34.632 -16.979 -23.543  0.00  0.00    +0.004 C 
ATOM     29  C   UNL     1      35.755 -18.387 -21.200  0.00  0.00    +0.000 C 
ATOM     30  C   UNL     1      35.485 -18.236 -23.706  0.00  0.00    +0.000 C 
ATOM     31  C   UNL     1      35.398 -19.138 -22.479  0.00  0.00    +0.000 C 
ENDBRANCH  20  26
ENDBRANCH  19  23
ENDBRANCH  18  19
ENDBRANCH   1  18
TORSDOF 7
ENDMDL
MODEL 9
REMARK VINA RESULT:     -10.4      4.322     11.308
REMARK  Name = 446129
REMARK  7 active torsions:
REMARK  status: ('A' for Active; 'I' for Inactive)
REMARK    1  A    between atoms: C_1  and  O_2
REMARK    2  A    between atoms: C_1  and  C_4
REMARK    3  A    between atoms: C_1  and  C_18
REMARK    4  A    between atoms: C_4  and  N_5
REMARK    5  A    between atoms: C_18  and  O_19
REMARK    6  A    between atoms: O_19  and  C_23
REMARK    7  A    between atoms: C_20  and  C_26
REMARK                            x       y       z     vdW  Elec       q    Type
REMARK                         _______ _______ _______ _____ _____    ______ ____
ROOT
ATOM      1  C   UNL     1      34.709 -21.810 -19.033  0.00  0.00    +0.133 C 
ENDROOT
BRANCH   1   2
ATOM      2  O   UNL     1      34.754 -23.002 -19.822  0.00  0.00    -0.383 OA
ATOM      3  H   UNL     1      33.894 -23.140 -20.248  0.00  0.00    +0.210 HD
ENDBRANCH   1   2
BRANCH   1   4
ATOM      4  C   UNL     1      36.092 -21.597 -18.413  0.00  0.00    -0.043 C 
BRANCH   4   5
ATOM      5  N   UNL     1      36.358 -22.535 -17.323  0.00  0.00    +0.391 N 
ATOM      6  N   UNL     1      36.520 -23.395 -14.604  0.00  0.00    -0.298 N 
ATOM      7  C   UNL     1      35.136 -22.784 -16.549  0.00  0.00    -0.055 C 
ATOM      8  C   UNL     1      37.411 -22.015 -16.442  0.00  0.00    -0.055 C 
ATOM      9  C   UNL     1      35.387 -23.808 -15.439  0.00  0.00    +0.069 C 
ATOM     10  C   UNL     1      37.738 -23.014 -15.329  0.00  0.00    +0.069 C 
ATOM     11  H   UNL     1      36.675 -23.415 -17.731  0.00  0.00    -0.079 HD
ATOM     12  N   UNL     1      37.782 -24.626 -12.980  0.00  0.00    -0.229 NA
ATOM     13  C   UNL     1      36.659 -23.919 -13.314  0.00  0.00    +0.132 C 
ATOM     14  C   UNL     1      35.628 -23.701 -12.389  0.00  0.00    +0.034 C 
ATOM     15  C   UNL     1      35.751 -24.217 -11.103  0.00  0.00    +0.004 C 
ATOM     16  C   UNL     1      37.867 -25.111 -11.721  0.00  0.00    +0.100 C 
ATOM     17  C   UNL     1      36.889 -24.935 -10.755  0.00  0.00    +0.021 C 
ENDBRANCH   4   5
ENDBRANCH   1   4
BRANCH   1  18
ATOM     18  C   UNL     1      34.261 -20.651 -19.923  0.00  0.00    +0.232 C 
BRANCH  18  19
ATOM     19  O   UNL     1      35.239 -20.445 -20.938  0.00  0.00    -0.473 OA
BRANCH  19  23
ATOM     20  C   UNL     1      34.904 -16.966 -23.175  0.00  0.00    -0.022 C 
ATOM     21  C   UNL     1      35.052 -16.892 -21.790  0.00  0.00    -0.001 C 
ATOM     22  C   UNL     1      34.868 -18.208 -23.808  0.00  0.00    -0.001 C 
ATOM     23  C   UNL     1      35.128 -19.298 -21.675  0.00  0.00    +0.139 C 
ATOM     24  C   UNL     1      35.165 -18.062 -21.038  0.00  0.00    +0.037 C 
ATOM     25  C   UNL     1      34.980 -19.377 -23.056  0.00  0.00    +0.037 C 
BRANCH  20  26
ATOM     26  C   UNL     1      34.781 -15.693 -23.993  0.00  0.00    +0.022 C 
ATOM     27  C   UNL     1      33.980 -15.918 -25.287  0.00  0.00    +0.004 C 
ATOM     28  C   UNL     1      34.183 -14.540 -23.169  0.00  0.00    +0.004 C 
ATOM     29  C   UNL     1      33.869 -14.634 -26.107  0.00  0.00    +0.000 C 
ATOM     30  C   UNL     1      34.072 -13.260 -23.997  0.00  0.00    +0.000 C 
ATOM     31  C   UNL     1      33.284 -13.489 -25.284  0.00  0.00    +0.000 C 
ENDBRANCH  20  26
ENDBRANCH  19  23
ENDBRANCH  18  19
ENDBRANCH   1  18
TORSDOF 7
ENDMDL
