MODEL 1
REMARK VINA RESULT:     -12.1      0.000      0.000
REMARK  Name = 5326929
REMARK  3 active torsions:
REMARK  status: ('A' for Active; 'I' for Inactive)
REMARK    1  A    between atoms: C_7  and  C_21
REMARK    2  A    between atoms: C_21  and  C_22
REMARK    3  A    between atoms: C_22  and  C_23
REMARK                            x       y       z     vdW  Elec       q    Type
REMARK                         _______ _______ _______ _____ _____    ______ ____
ROOT
ATOM      1  O   UNL     1      34.495 -24.384 -11.904  0.00  0.00    -0.209 OA
ATOM      2  N   UNL     1      35.502 -24.006 -15.762  0.00  0.00    -0.275 N 
ATOM      3  N   UNL     1      30.215 -23.003 -14.620  0.00  0.00    -0.315 N 
ATOM      4  N   UNL     1      30.805 -22.800 -16.753  0.00  0.00    -0.316 N 
ATOM      5  N   UNL     1      36.117 -24.495 -13.516  0.00  0.00    -0.302 NA
ATOM      6  N   UNL     1      37.670 -24.568 -15.269  0.00  0.00    -0.320 N 
ATOM      7  C   UNL     1      33.227 -23.399 -16.396  0.00  0.00    +0.007 C 
ATOM      8  C   UNL     1      34.168 -23.762 -15.420  0.00  0.00    +0.060 C 
ATOM      9  C   UNL     1      31.898 -23.163 -16.000  0.00  0.00    +0.056 C 
ATOM     10  C   UNL     1      31.554 -23.296 -14.659  0.00  0.00    +0.060 C 
ATOM     11  C   UNL     1      33.782 -23.886 -14.076  0.00  0.00    +0.109 C 
ATOM     12  C   UNL     1      32.462 -23.656 -13.662  0.00  0.00    +0.029 C 
ATOM     13  C   UNL     1      34.823 -24.274 -13.081  0.00  0.00    +0.208 C 
ATOM     14  C   UNL     1      29.814 -22.713 -15.895  0.00  0.00    +0.182 C 
ATOM     15  C   UNL     1      36.403 -24.361 -14.785  0.00  0.00    +0.248 C 
ATOM     16  H   UNL     1      35.794 -23.926 -16.698  0.00  0.00    +0.156 HD
ATOM     17  H   UNL     1      29.644 -23.001 -13.818  0.00  0.00    +0.148 HD
ATOM     18  H   UNL     1      30.772 -22.641 -17.724  0.00  0.00    +0.148 HD
ATOM     19  H   UNL     1      37.853 -24.458 -16.231  0.00  0.00    +0.146 HD
ATOM     20  H   UNL     1      38.395 -24.826 -14.657  0.00  0.00    +0.146 HD
ENDROOT
BRANCH   7  21
ATOM     21  C   UNL     1      33.631 -23.264 -17.830  0.00  0.00    +0.034 C 
BRANCH  21  22
ATOM     22  C   UNL     1      33.017 -22.042 -18.538  0.00  0.00    +0.031 C 
BRANCH  22  23
ATOM     23  C   UNL     1      34.020 -21.256 -19.347  0.00  0.00    -0.022 C 
ATOM     24  C   UNL     1      33.570 -20.320 -20.266  0.00  0.00    -0.005 C 
ATOM     25  C   UNL     1      35.374 -21.482 -19.156  0.00  0.00    -0.005 C 
ATOM     26  C   UNL     1      35.863 -19.813 -20.832  0.00  0.00    -0.022 C 
ATOM     27  C   UNL     1      34.498 -19.595 -21.013  0.00  0.00    -0.005 C 
ATOM     28  C   UNL     1      36.302 -20.756 -19.903  0.00  0.00    -0.005 C 
ATOM     29  C   UNL     1      36.854 -19.036 -21.629  0.00  0.00    +0.031 C 
ENDBRANCH  22  23
ENDBRANCH  21  22
ENDBRANCH   7  21
TORSDOF 3
ENDMDL
MODEL 2
REMARK VINA RESULT:     -11.6      1.935      4.384
REMARK  Name = 5326929
REMARK  3 active torsions:
REMARK  status: ('A' for Active; 'I' for Inactive)
REMARK    1  A    between atoms: C_7  and  C_21
REMARK    2  A    between atoms: C_21  and  C_22
REMARK    3  A    between atoms: C_22  and  C_23
REMARK                            x       y       z     vdW  Elec       q    Type
REMARK                         _______ _______ _______ _____ _____    ______ ____
ROOT
ATOM      1  O   UNL     1      28.590 -25.619 -13.813  0.00  0.00    -0.209 OA
ATOM      2  N   UNL     1      29.902 -23.050 -16.591  0.00  0.00    -0.275 N 
ATOM      3  N   UNL     1      33.781 -25.045 -13.239  0.00  0.00    -0.315 N 
ATOM      4  N   UNL     1      34.478 -23.618 -14.793  0.00  0.00    -0.316 N 
ATOM      5  N   UNL     1      28.110 -24.248 -15.583  0.00  0.00    -0.302 NA
ATOM      6  N   UNL     1      27.770 -22.810 -17.401  0.00  0.00    -0.320 N 
ATOM      7  C   UNL     1      32.205 -23.231 -15.810  0.00  0.00    +0.007 C 
ATOM      8  C   UNL     1      30.850 -23.585 -15.714  0.00  0.00    +0.060 C 
ATOM      9  C   UNL     1      33.118 -23.799 -14.904  0.00  0.00    +0.056 C 
ATOM     10  C   UNL     1      32.657 -24.690 -13.941  0.00  0.00    +0.060 C 
ATOM     11  C   UNL     1      30.423 -24.489 -14.728  0.00  0.00    +0.109 C 
ATOM     12  C   UNL     1      31.319 -25.065 -13.815  0.00  0.00    +0.029 C 
ATOM     13  C   UNL     1      28.972 -24.829 -14.671  0.00  0.00    +0.208 C 
ATOM     14  C   UNL     1      34.842 -24.378 -13.786  0.00  0.00    +0.182 C 
ATOM     15  C   UNL     1      28.581 -23.415 -16.473  0.00  0.00    +0.248 C 
ATOM     16  H   UNL     1      30.179 -22.414 -17.290  0.00  0.00    +0.156 HD
ATOM     17  H   UNL     1      33.817 -25.667 -12.478  0.00  0.00    +0.148 HD
ATOM     18  H   UNL     1      35.053 -23.042 -15.347  0.00  0.00    +0.148 HD
ATOM     19  H   UNL     1      28.155 -22.187 -18.060  0.00  0.00    +0.146 HD
ATOM     20  H   UNL     1      26.804 -22.999 -17.409  0.00  0.00    +0.146 HD
ENDROOT
BRANCH   7  21
ATOM     21  C   UNL     1      32.667 -22.270 -16.859  0.00  0.00    +0.034 C 
BRANCH  21  22
ATOM     22  C   UNL     1      33.454 -22.931 -18.006  0.00  0.00    +0.031 C 
BRANCH  22  23
ATOM     23  C   UNL     1      34.104 -21.934 -18.935  0.00  0.00    -0.022 C 
ATOM     24  C   UNL     1      33.306 -21.091 -19.694  0.00  0.00    -0.005 C 
ATOM     25  C   UNL     1      35.486 -21.879 -19.013  0.00  0.00    -0.005 C 
ATOM     26  C   UNL     1      35.298 -20.104 -20.641  0.00  0.00    -0.022 C 
ATOM     27  C   UNL     1      33.908 -20.170 -20.552  0.00  0.00    -0.005 C 
ATOM     28  C   UNL     1      36.087 -20.958 -19.871  0.00  0.00    -0.005 C 
ATOM     29  C   UNL     1      35.940 -19.119 -21.557  0.00  0.00    +0.031 C 
ENDBRANCH  22  23
ENDBRANCH  21  22
ENDBRANCH   7  21
TORSDOF 3
ENDMDL
MODEL 3
REMARK VINA RESULT:     -11.6      1.127      4.033
REMARK  Name = 5326929
REMARK  3 active torsions:
REMARK  status: ('A' for Active; 'I' for Inactive)
REMARK    1  A    between atoms: C_7  and  C_21
REMARK    2  A    between atoms: C_21  and  C_22
REMARK    3  A    between atoms: C_22  and  C_23
REMARK                            x       y       z     vdW  Elec       q    Type
REMARK                         _______ _______ _______ _____ _____    ______ ____
ROOT
ATOM      1  O   UNL     1      30.820 -24.182 -12.460  0.00  0.00    -0.209 OA
ATOM      2  N   UNL     1      31.336 -23.059 -16.269  0.00  0.00    -0.275 N 
ATOM      3  N   UNL     1      35.909 -24.675 -13.673  0.00  0.00    -0.315 N 
ATOM      4  N   UNL     1      36.162 -24.047 -15.789  0.00  0.00    -0.316 N 
ATOM      5  N   UNL     1      29.898 -23.403 -14.405  0.00  0.00    -0.302 NA
ATOM      6  N   UNL     1      29.095 -22.612 -16.459  0.00  0.00    -0.320 N 
ATOM      7  C   UNL     1      33.733 -23.502 -16.177  0.00  0.00    +0.007 C 
ATOM      8  C   UNL     1      32.469 -23.479 -15.565  0.00  0.00    +0.060 C 
ATOM      9  C   UNL     1      34.840 -23.933 -15.425  0.00  0.00    +0.056 C 
ATOM     10  C   UNL     1      34.655 -24.322 -14.103  0.00  0.00    +0.060 C 
ATOM     11  C   UNL     1      32.323 -23.879 -14.228  0.00  0.00    +0.109 C 
ATOM     12  C   UNL     1      33.415 -24.311 -13.461  0.00  0.00    +0.029 C 
ATOM     13  C   UNL     1      30.958 -23.833 -13.628  0.00  0.00    +0.208 C 
ATOM     14  C   UNL     1      36.774 -24.493 -14.716  0.00  0.00    +0.182 C 
ATOM     15  C   UNL     1      30.111 -23.046 -15.645  0.00  0.00    +0.248 C 
ATOM     16  H   UNL     1      31.416 -22.774 -17.208  0.00  0.00    +0.156 HD
ATOM     17  H   UNL     1      36.144 -25.001 -12.774  0.00  0.00    +0.148 HD
ATOM     18  H   UNL     1      36.563 -23.839 -16.664  0.00  0.00    +0.148 HD
ATOM     19  H   UNL     1      29.288 -22.349 -17.389  0.00  0.00    +0.146 HD
ATOM     20  H   UNL     1      28.175 -22.562 -16.115  0.00  0.00    +0.146 HD
ENDROOT
BRANCH   7  21
ATOM     21  C   UNL     1      33.896 -23.078 -17.602  0.00  0.00    +0.034 C 
BRANCH  21  22
ATOM     22  C   UNL     1      35.230 -22.365 -17.891  0.00  0.00    +0.031 C 
BRANCH  22  23
ATOM     23  C   UNL     1      35.164 -21.434 -19.076  0.00  0.00    -0.022 C 
ATOM     24  C   UNL     1      36.340 -20.949 -19.628  0.00  0.00    -0.005 C 
ATOM     25  C   UNL     1      33.928 -21.079 -19.594  0.00  0.00    -0.005 C 
ATOM     26  C   UNL     1      35.041 -19.722 -21.254  0.00  0.00    -0.022 C 
ATOM     27  C   UNL     1      36.277 -20.088 -20.723  0.00  0.00    -0.005 C 
ATOM     28  C   UNL     1      33.865 -20.218 -20.689  0.00  0.00    -0.005 C 
ATOM     29  C   UNL     1      34.974 -18.803 -22.425  0.00  0.00    +0.031 C 
ENDBRANCH  22  23
ENDBRANCH  21  22
ENDBRANCH   7  21
TORSDOF 3
ENDMDL
MODEL 4
REMARK VINA RESULT:     -11.5      1.554      2.146
REMARK  Name = 5326929
REMARK  3 active torsions:
REMARK  status: ('A' for Active; 'I' for Inactive)
REMARK    1  A    between atoms: C_7  and  C_21
REMARK    2  A    between atoms: C_21  and  C_22
REMARK    3  A    between atoms: C_22  and  C_23
REMARK                            x       y       z     vdW  Elec       q    Type
REMARK                         _______ _______ _______ _____ _____    ______ ____
ROOT
ATOM      1  O   UNL     1      37.046 -24.176 -12.481  0.00  0.00    -0.209 OA
ATOM      2  N   UNL     1      35.697 -22.465 -15.842  0.00  0.00    -0.275 N 
ATOM      3  N   UNL     1      31.938 -25.294 -12.992  0.00  0.00    -0.315 N 
ATOM      4  N   UNL     1      31.219 -24.331 -14.861  0.00  0.00    -0.316 N 
ATOM      5  N   UNL     1      37.485 -22.902 -14.333  0.00  0.00    -0.302 NA
ATOM      6  N   UNL     1      37.784 -21.614 -16.267  0.00  0.00    -0.320 N 
ATOM      7  C   UNL     1      33.441 -23.320 -15.487  0.00  0.00    +0.007 C 
ATOM      8  C   UNL     1      34.780 -23.196 -15.082  0.00  0.00    +0.060 C 
ATOM      9  C   UNL     1      32.558 -24.065 -14.686  0.00  0.00    +0.056 C 
ATOM     10  C   UNL     1      33.032 -24.657 -13.520  0.00  0.00    +0.060 C 
ATOM     11  C   UNL     1      35.220 -23.808 -13.898  0.00  0.00    +0.109 C 
ATOM     12  C   UNL     1      34.355 -24.557 -13.086  0.00  0.00    +0.029 C 
ATOM     13  C   UNL     1      36.652 -23.644 -13.515  0.00  0.00    +0.208 C 
ATOM     14  C   UNL     1      30.880 -25.069 -13.830  0.00  0.00    +0.182 C 
ATOM     15  C   UNL     1      37.003 -22.360 -15.421  0.00  0.00    +0.248 C 
ATOM     16  H   UNL     1      35.411 -22.028 -16.676  0.00  0.00    +0.156 HD
ATOM     17  H   UNL     1      31.917 -25.818 -12.160  0.00  0.00    +0.148 HD
ATOM     18  H   UNL     1      30.642 -24.033 -15.600  0.00  0.00    +0.148 HD
ATOM     19  H   UNL     1      37.392 -21.219 -17.080  0.00  0.00    +0.146 HD
ATOM     20  H   UNL     1      38.736 -21.474 -16.063  0.00  0.00    +0.146 HD
ENDROOT
BRANCH   7  21
ATOM     21  C   UNL     1      32.965 -22.669 -16.747  0.00  0.00    +0.034 C 
BRANCH  21  22
ATOM     22  C   UNL     1      33.654 -23.195 -18.019  0.00  0.00    +0.031 C 
BRANCH  22  23
ATOM     23  C   UNL     1      34.099 -22.097 -18.953  0.00  0.00    -0.022 C 
ATOM     24  C   UNL     1      35.452 -21.925 -19.206  0.00  0.00    -0.005 C 
ATOM     25  C   UNL     1      33.148 -21.280 -19.544  0.00  0.00    -0.005 C 
ATOM     26  C   UNL     1      34.916 -20.078 -20.670  0.00  0.00    -0.022 C 
ATOM     27  C   UNL     1      35.862 -20.909 -20.070  0.00  0.00    -0.005 C 
ATOM     28  C   UNL     1      33.559 -20.264 -20.407  0.00  0.00    -0.005 C 
ATOM     29  C   UNL     1      35.355 -18.994 -21.594  0.00  0.00    +0.031 C 
ENDBRANCH  22  23
ENDBRANCH  21  22
ENDBRANCH   7  21
TORSDOF 3
ENDMDL
MODEL 5
REMARK VINA RESULT:     -11.0      1.235      3.979
REMARK  Name = 5326929
REMARK  3 active torsions:
REMARK  status: ('A' for Active; 'I' for Inactive)
REMARK    1  A    between atoms: C_7  and  C_21
REMARK    2  A    between atoms: C_21  and  C_22
REMARK    3  A    between atoms: C_22  and  C_23
REMARK                            x       y       z     vdW  Elec       q    Type
REMARK                         _______ _______ _______ _____ _____    ______ ____
ROOT
ATOM      1  O   UNL     1      31.737 -25.311 -12.874  0.00  0.00    -0.209 OA
ATOM      2  N   UNL     1      32.697 -22.986 -15.990  0.00  0.00    -0.275 N 
ATOM      3  N   UNL     1      36.971 -25.173 -13.305  0.00  0.00    -0.315 N 
ATOM      4  N   UNL     1      37.472 -23.879 -15.041  0.00  0.00    -0.316 N 
ATOM      5  N   UNL     1      31.040 -23.977 -14.600  0.00  0.00    -0.302 NA
ATOM      6  N   UNL     1      30.476 -22.593 -16.404  0.00  0.00    -0.320 N 
ATOM      7  C   UNL     1      35.085 -23.337 -15.640  0.00  0.00    +0.007 C 
ATOM      8  C   UNL     1      33.749 -23.565 -15.274  0.00  0.00    +0.060 C 
ATOM      9  C   UNL     1      36.106 -23.944 -14.888  0.00  0.00    +0.056 C 
ATOM     10  C   UNL     1      35.767 -24.750 -13.807  0.00  0.00    +0.060 C 
ATOM     11  C   UNL     1      33.446 -24.386 -14.176  0.00  0.00    +0.109 C 
ATOM     12  C   UNL     1      34.451 -25.000 -13.413  0.00  0.00    +0.029 C 
ATOM     13  C   UNL     1      32.010 -24.594 -13.832  0.00  0.00    +0.208 C 
ATOM     14  C   UNL     1      37.959 -24.626 -14.077  0.00  0.00    +0.182 C 
ATOM     15  C   UNL     1      31.398 -23.227 -15.609  0.00  0.00    +0.248 C 
ATOM     16  H   UNL     1      32.886 -22.406 -16.763  0.00  0.00    +0.156 HD
ATOM     17  H   UNL     1      37.102 -25.764 -12.530  0.00  0.00    +0.148 HD
ATOM     18  H   UNL     1      37.975 -23.380 -15.724  0.00  0.00    +0.148 HD
ATOM     19  H   UNL     1      30.777 -22.033 -17.157  0.00  0.00    +0.146 HD
ATOM     20  H   UNL     1      29.515 -22.695 -16.222  0.00  0.00    +0.146 HD
ENDROOT
BRANCH   7  21
ATOM     21  C   UNL     1      35.415 -22.464 -16.810  0.00  0.00    +0.034 C 
BRANCH  21  22
ATOM     22  C   UNL     1      34.605 -22.791 -18.079  0.00  0.00    +0.031 C 
BRANCH  22  23
ATOM     23  C   UNL     1      34.706 -21.725 -19.141  0.00  0.00    -0.022 C 
ATOM     24  C   UNL     1      33.548 -21.130 -19.621  0.00  0.00    -0.005 C 
ATOM     25  C   UNL     1      35.953 -21.357 -19.619  0.00  0.00    -0.005 C 
ATOM     26  C   UNL     1      34.891 -19.765 -21.094  0.00  0.00    -0.022 C 
ATOM     27  C   UNL     1      33.642 -20.145 -20.603  0.00  0.00    -0.005 C 
ATOM     28  C   UNL     1      36.047 -20.371 -20.602  0.00  0.00    -0.005 C 
ATOM     29  C   UNL     1      34.992 -18.711 -22.143  0.00  0.00    +0.031 C 
ENDBRANCH  22  23
ENDBRANCH  21  22
ENDBRANCH   7  21
TORSDOF 3
ENDMDL
MODEL 6
REMARK VINA RESULT:     -10.5      1.549      3.749
REMARK  Name = 5326929
REMARK  3 active torsions:
REMARK  status: ('A' for Active; 'I' for Inactive)
REMARK    1  A    between atoms: C_7  and  C_21
REMARK    2  A    between atoms: C_21  and  C_22
REMARK    3  A    between atoms: C_22  and  C_23
REMARK                            x       y       z     vdW  Elec       q    Type
REMARK                         _______ _______ _______ _____ _____    ______ ____
ROOT
ATOM      1  O   UNL     1      34.298 -24.971 -11.741  0.00  0.00    -0.209 OA
ATOM      2  N   UNL     1      32.235 -23.925 -15.011  0.00  0.00    -0.275 N 
ATOM      3  N   UNL     1      37.623 -22.833 -15.203  0.00  0.00    -0.315 N 
ATOM      4  N   UNL     1      36.451 -22.266 -17.003  0.00  0.00    -0.316 N 
ATOM      5  N   UNL     1      32.285 -24.871 -12.828  0.00  0.00    -0.302 NA
ATOM      6  N   UNL     1      30.299 -24.705 -14.059  0.00  0.00    -0.320 N 
ATOM      7  C   UNL     1      34.232 -23.067 -16.115  0.00  0.00    +0.007 C 
ATOM      8  C   UNL     1      33.609 -23.668 -15.010  0.00  0.00    +0.060 C 
ATOM      9  C   UNL     1      35.618 -22.831 -16.065  0.00  0.00    +0.056 C 
ATOM     10  C   UNL     1      36.329 -23.196 -14.927  0.00  0.00    +0.060 C 
ATOM     11  C   UNL     1      34.362 -24.023 -13.879  0.00  0.00    +0.109 C 
ATOM     12  C   UNL     1      35.744 -23.794 -13.810  0.00  0.00    +0.029 C 
ATOM     13  C   UNL     1      33.648 -24.657 -12.734  0.00  0.00    +0.208 C 
ATOM     14  C   UNL     1      37.643 -22.282 -16.454  0.00  0.00    +0.182 C 
ATOM     15  C   UNL     1      31.651 -24.515 -13.914  0.00  0.00    +0.248 C 
ATOM     16  H   UNL     1      31.688 -23.684 -15.792  0.00  0.00    +0.156 HD
ATOM     17  H   UNL     1      38.398 -22.948 -14.607  0.00  0.00    +0.148 HD
ATOM     18  H   UNL     1      36.205 -21.922 -17.892  0.00  0.00    +0.148 HD
ATOM     19  H   UNL     1      29.849 -24.425 -14.890  0.00  0.00    +0.146 HD
ATOM     20  H   UNL     1      29.779 -25.119 -13.334  0.00  0.00    +0.146 HD
ENDROOT
BRANCH   7  21
ATOM     21  C   UNL     1      33.437 -22.688 -17.324  0.00  0.00    +0.034 C 
BRANCH  21  22
ATOM     22  C   UNL     1      34.155 -22.972 -18.657  0.00  0.00    +0.031 C 
BRANCH  22  23
ATOM     23  C   UNL     1      34.407 -21.729 -19.474  0.00  0.00    -0.022 C 
ATOM     24  C   UNL     1      35.706 -21.404 -19.836  0.00  0.00    -0.005 C 
ATOM     25  C   UNL     1      33.336 -20.934 -19.850  0.00  0.00    -0.005 C 
ATOM     26  C   UNL     1      34.870 -19.445 -20.976  0.00  0.00    -0.022 C 
ATOM     27  C   UNL     1      35.938 -20.255 -20.592  0.00  0.00    -0.005 C 
ATOM     28  C   UNL     1      33.568 -19.785 -20.606  0.00  0.00    -0.005 C 
ATOM     29  C   UNL     1      35.118 -18.217 -21.785  0.00  0.00    +0.031 C 
ENDBRANCH  22  23
ENDBRANCH  21  22
ENDBRANCH   7  21
TORSDOF 3
ENDMDL
MODEL 7
REMARK VINA RESULT:     -10.3      2.987      6.331
REMARK  Name = 5326929
REMARK  3 active torsions:
REMARK  status: ('A' for Active; 'I' for Inactive)
REMARK    1  A    between atoms: C_7  and  C_21
REMARK    2  A    between atoms: C_21  and  C_22
REMARK    3  A    between atoms: C_22  and  C_23
REMARK                            x       y       z     vdW  Elec       q    Type
REMARK                         _______ _______ _______ _____ _____    ______ ____
ROOT
ATOM      1  O   UNL     1      37.627 -21.533 -16.974  0.00  0.00    -0.209 OA
ATOM      2  N   UNL     1      34.167 -23.503 -16.541  0.00  0.00    -0.275 N 
ATOM      3  N   UNL     1      37.595 -23.834 -12.251  0.00  0.00    -0.315 N 
ATOM      4  N   UNL     1      35.665 -24.916 -12.040  0.00  0.00    -0.316 N 
ATOM      5  N   UNL     1      35.603 -22.137 -17.858  0.00  0.00    -0.302 NA
ATOM      6  N   UNL     1      33.503 -22.831 -18.630  0.00  0.00    -0.320 N 
ATOM      7  C   UNL     1      34.774 -24.274 -14.309  0.00  0.00    +0.007 C 
ATOM      8  C   UNL     1      35.073 -23.557 -15.478  0.00  0.00    +0.060 C 
ATOM      9  C   UNL     1      35.720 -24.296 -13.268  0.00  0.00    +0.056 C 
ATOM     10  C   UNL     1      36.919 -23.610 -13.424  0.00  0.00    +0.060 C 
ATOM     11  C   UNL     1      36.296 -22.877 -15.598  0.00  0.00    +0.109 C 
ATOM     12  C   UNL     1      37.252 -22.888 -14.571  0.00  0.00    +0.029 C 
ATOM     13  C   UNL     1      36.561 -22.131 -16.861  0.00  0.00    +0.208 C 
ATOM     14  C   UNL     1      36.804 -24.619 -11.458  0.00  0.00    +0.182 C 
ATOM     15  C   UNL     1      34.487 -22.793 -17.675  0.00  0.00    +0.248 C 
ATOM     16  H   UNL     1      33.305 -23.973 -16.479  0.00  0.00    +0.156 HD
ATOM     17  H   UNL     1      38.488 -23.491 -12.021  0.00  0.00    +0.148 HD
ATOM     18  H   UNL     1      34.932 -25.464 -11.678  0.00  0.00    +0.148 HD
ATOM     19  H   UNL     1      32.672 -23.334 -18.463  0.00  0.00    +0.146 HD
ATOM     20  H   UNL     1      33.626 -22.356 -19.483  0.00  0.00    +0.146 HD
ENDROOT
BRANCH   7  21
ATOM     21  C   UNL     1      33.473 -25.001 -14.174  0.00  0.00    +0.034 C 
BRANCH  21  22
ATOM     22  C   UNL     1      32.368 -24.176 -13.488  0.00  0.00    +0.031 C 
BRANCH  22  23
ATOM     23  C   UNL     1      31.170 -23.933 -14.372  0.00  0.00    -0.022 C 
ATOM     24  C   UNL     1      30.075 -24.780 -14.283  0.00  0.00    -0.005 C 
ATOM     25  C   UNL     1      31.183 -22.867 -15.258  0.00  0.00    -0.005 C 
ATOM     26  C   UNL     1      28.969 -23.487 -15.998  0.00  0.00    -0.022 C 
ATOM     27  C   UNL     1      28.969 -24.555 -15.102  0.00  0.00    -0.005 C 
ATOM     28  C   UNL     1      30.077 -22.642 -16.076  0.00  0.00    -0.005 C 
ATOM     29  C   UNL     1      27.785 -23.246 -16.871  0.00  0.00    +0.031 C 
ENDBRANCH  22  23
ENDBRANCH  21  22
ENDBRANCH   7  21
TORSDOF 3
ENDMDL
MODEL 8
REMARK VINA RESULT:     -10.3      2.223      5.097
REMARK  Name = 5326929
REMARK  3 active torsions:
REMARK  status: ('A' for Active; 'I' for Inactive)
REMARK    1  A    between atoms: C_7  and  C_21
REMARK    2  A    between atoms: C_21  and  C_22
REMARK    3  A    between atoms: C_22  and  C_23
REMARK                            x       y       z     vdW  Elec       q    Type
REMARK                         _______ _______ _______ _____ _____    ______ ____
ROOT
ATOM      1  O   UNL     1      35.909 -25.672 -10.523  0.00  0.00    -0.209 OA
ATOM      2  N   UNL     1      35.072 -23.446 -13.746  0.00  0.00    -0.275 N 
ATOM      3  N   UNL     1      40.098 -25.682 -13.694  0.00  0.00    -0.315 N 
ATOM      4  N   UNL     1      39.603 -24.442 -15.471  0.00  0.00    -0.316 N 
ATOM      5  N   UNL     1      34.409 -24.362 -11.651  0.00  0.00    -0.302 NA
ATOM      6  N   UNL     1      32.979 -23.005 -12.918  0.00  0.00    -0.320 N 
ATOM      7  C   UNL     1      37.272 -23.852 -14.717  0.00  0.00    +0.007 C 
ATOM      8  C   UNL     1      36.338 -24.037 -13.685  0.00  0.00    +0.060 C 
ATOM      9  C   UNL     1      38.531 -24.468 -14.608  0.00  0.00    +0.056 C 
ATOM     10  C   UNL     1      38.817 -25.239 -13.487  0.00  0.00    +0.060 C 
ATOM     11  C   UNL     1      36.663 -24.823 -12.568  0.00  0.00    +0.109 C 
ATOM     12  C   UNL     1      37.915 -25.445 -12.441  0.00  0.00    +0.029 C 
ATOM     13  C   UNL     1      35.634 -24.985 -11.502  0.00  0.00    +0.208 C 
ATOM     14  C   UNL     1      40.524 -25.179 -14.893  0.00  0.00    +0.182 C 
ATOM     15  C   UNL     1      34.177 -23.645 -12.720  0.00  0.00    +0.248 C 
ATOM     16  H   UNL     1      34.823 -22.890 -14.518  0.00  0.00    +0.156 HD
ATOM     17  H   UNL     1      40.619 -26.258 -13.090  0.00  0.00    +0.148 HD
ATOM     18  H   UNL     1      39.666 -23.973 -16.334  0.00  0.00    +0.148 HD
ATOM     19  H   UNL     1      32.835 -22.471 -13.734  0.00  0.00    +0.146 HD
ATOM     20  H   UNL     1      32.264 -23.078 -12.246  0.00  0.00    +0.146 HD
ENDROOT
BRANCH   7  21
ATOM     21  C   UNL     1      36.932 -23.016 -15.910  0.00  0.00    +0.034 C 
BRANCH  21  22
ATOM     22  C   UNL     1      35.523 -23.278 -16.473  0.00  0.00    +0.031 C 
BRANCH  22  23
ATOM     23  C   UNL     1      35.199 -22.439 -17.684  0.00  0.00    -0.022 C 
ATOM     24  C   UNL     1      36.225 -21.800 -18.364  0.00  0.00    -0.005 C 
ATOM     25  C   UNL     1      33.882 -22.322 -18.098  0.00  0.00    -0.005 C 
ATOM     26  C   UNL     1      34.604 -20.897 -19.911  0.00  0.00    -0.022 C 
ATOM     27  C   UNL     1      35.925 -21.025 -19.484  0.00  0.00    -0.005 C 
ATOM     28  C   UNL     1      33.582 -21.547 -19.218  0.00  0.00    -0.005 C 
ATOM     29  C   UNL     1      34.284 -20.070 -21.108  0.00  0.00    +0.031 C 
ENDBRANCH  22  23
ENDBRANCH  21  22
ENDBRANCH   7  21
TORSDOF 3
ENDMDL
MODEL 9
REMARK VINA RESULT:     -10.1      2.677      6.400
REMARK  Name = 5326929
REMARK  3 active torsions:
REMARK  status: ('A' for Active; 'I' for Inactive)
REMARK    1  A    between atoms: C_7  and  C_21
REMARK    2  A    between atoms: C_21  and  C_22
REMARK    3  A    between atoms: C_22  and  C_23
REMARK                            x       y       z     vdW  Elec       q    Type
REMARK                         _______ _______ _______ _____ _____    ______ ____
ROOT
ATOM      1  O   UNL     1      29.258 -22.667 -16.785  0.00  0.00    -0.209 OA
ATOM      2  N   UNL     1      31.980 -23.956 -14.145  0.00  0.00    -0.275 N 
ATOM      3  N   UNL     1      34.044 -21.929 -18.824  0.00  0.00    -0.315 N 
ATOM      4  N   UNL     1      35.530 -22.651 -17.338  0.00  0.00    -0.316 N 
ATOM      5  N   UNL     1      29.704 -23.602 -14.743  0.00  0.00    -0.302 NA
ATOM      6  N   UNL     1      30.311 -24.548 -12.688  0.00  0.00    -0.320 N 
ATOM      7  C   UNL     1      33.831 -23.363 -15.617  0.00  0.00    +0.007 C 
ATOM      8  C   UNL     1      32.454 -23.432 -15.351  0.00  0.00    +0.060 C 
ATOM      9  C   UNL     1      34.257 -22.826 -16.845  0.00  0.00    +0.056 C 
ATOM     10  C   UNL     1      33.307 -22.380 -17.759  0.00  0.00    +0.060 C 
ATOM     11  C   UNL     1      31.526 -22.971 -16.298  0.00  0.00    +0.109 C 
ATOM     12  C   UNL     1      31.932 -22.433 -17.529  0.00  0.00    +0.029 C 
ATOM     13  C   UNL     1      30.076 -23.068 -15.963  0.00  0.00    +0.208 C 
ATOM     14  C   UNL     1      35.366 -22.113 -18.524  0.00  0.00    +0.182 C 
ATOM     15  C   UNL     1      30.625 -24.011 -13.911  0.00  0.00    +0.248 C 
ATOM     16  H   UNL     1      32.613 -24.285 -13.467  0.00  0.00    +0.156 HD
ATOM     17  H   UNL     1      33.687 -21.543 -19.655  0.00  0.00    +0.148 HD
ATOM     18  H   UNL     1      36.379 -22.881 -16.896  0.00  0.00    +0.148 HD
ATOM     19  H   UNL     1      31.029 -24.847 -12.082  0.00  0.00    +0.146 HD
ATOM     20  H   UNL     1      29.370 -24.636 -12.415  0.00  0.00    +0.146 HD
ENDROOT
BRANCH   7  21
ATOM     21  C   UNL     1      34.826 -23.851 -14.612  0.00  0.00    +0.034 C 
BRANCH  21  22
ATOM     22  C   UNL     1      35.254 -25.316 -14.820  0.00  0.00    +0.031 C 
BRANCH  22  23
ATOM     23  C   UNL     1      36.729 -25.543 -14.596  0.00  0.00    -0.022 C 
ATOM     24  C   UNL     1      37.612 -24.485 -14.753  0.00  0.00    -0.005 C 
ATOM     25  C   UNL     1      37.176 -26.805 -14.238  0.00  0.00    -0.005 C 
ATOM     26  C   UNL     1      39.439 -25.961 -14.186  0.00  0.00    -0.022 C 
ATOM     27  C   UNL     1      38.975 -24.696 -14.546  0.00  0.00    -0.005 C 
ATOM     28  C   UNL     1      38.539 -27.016 -14.031  0.00  0.00    -0.005 C 
ATOM     29  C   UNL     1      40.896 -26.186 -13.964  0.00  0.00    +0.031 C 
ENDBRANCH  22  23
ENDBRANCH  21  22
ENDBRANCH   7  21
TORSDOF 3
ENDMDL
