MODEL 1
REMARK VINA RESULT:     -12.4      0.000      0.000
REMARK  Name = 447736
REMARK  4 active torsions:
REMARK  status: ('A' for Active; 'I' for Inactive)
REMARK    1  A    between atoms: N_2  and  C_13
REMARK    2  A    between atoms: C_3  and  C_20
REMARK    3  A    between atoms: C_6  and  C_17
REMARK    4  A    between atoms: C_28  and  C_32
REMARK                            x       y       z     vdW  Elec       q    Type
REMARK                         _______ _______ _______ _____ _____    ______ ____
ROOT
ATOM      1  O   UNL     1      32.849 -20.995 -20.273  0.00  0.00    -0.270 OA
ATOM      2  N   UNL     1      35.026 -20.121 -20.425  0.00  0.00    -0.280 N 
ATOM      3  C   UNL     1      34.005 -20.907 -19.874  0.00  0.00    +0.249 C 
ATOM      4  H   UNL     1      35.900 -20.171 -19.974  0.00  0.00    +0.155 HD
ENDROOT
BRANCH   2  13
ATOM      5  N   UNL     1      34.416 -14.770 -23.482  0.00  0.00    +0.388 N 
ATOM      6  C   UNL     1      34.792 -15.512 -22.262  0.00  0.00    -0.039 C 
ATOM      7  C   UNL     1      34.823 -17.023 -22.452  0.00  0.00    -0.045 C 
ATOM      8  C   UNL     1      34.853 -17.575 -23.749  0.00  0.00    -0.030 C 
ATOM      9  C   UNL     1      34.792 -16.685 -24.964  0.00  0.00    +0.003 C 
ATOM     10  C   UNL     1      35.177 -15.244 -24.637  0.00  0.00    -0.076 C 
ATOM     11  C   UNL     1      34.902 -17.893 -21.351  0.00  0.00    +0.008 C 
ATOM     12  C   UNL     1      34.897 -18.966 -23.920  0.00  0.00    -0.003 C 
ATOM     13  C   UNL     1      34.957 -19.276 -21.533  0.00  0.00    +0.050 C 
ATOM     14  C   UNL     1      34.948 -19.813 -22.816  0.00  0.00    +0.014 C 
ATOM     15  H   UNL     1      34.608 -13.778 -23.341  0.00  0.00    -0.084 HD
ATOM     16  H   UNL     1      33.424 -14.921 -23.662  0.00  0.00    -0.084 HD
BRANCH   6  17
ATOM     17  C   UNL     1      33.826 -15.060 -21.159  0.00  0.00    -0.015 C 
ATOM     18  C   UNL     1      34.590 -14.362 -20.039  0.00  0.00    -0.002 C 
ATOM     19  C   UNL     1      32.754 -14.143 -21.737  0.00  0.00    -0.002 C 
ENDBRANCH   6  17
ENDBRANCH   2  13
BRANCH   3  20
ATOM     20  C   UNL     1      34.383 -21.685 -18.665  0.00  0.00    +0.054 C 
ATOM     21  C   UNL     1      36.058 -22.349 -17.072  0.00  0.00    +0.000 C 
ATOM     22  C   UNL     1      35.684 -21.619 -18.213  0.00  0.00    +0.005 C 
ATOM     23  C   UNL     1      35.090 -23.141 -16.409  0.00  0.00    +0.000 C 
ATOM     24  C   UNL     1      33.423 -22.446 -18.039  0.00  0.00    +0.005 C 
ATOM     25  C   UNL     1      33.776 -23.178 -16.906  0.00  0.00    +0.000 C 
ATOM     26  C   UNL     1      35.463 -23.870 -15.269  0.00  0.00    +0.003 C 
ATOM     27  C   UNL     1      37.370 -22.311 -16.576  0.00  0.00    +0.000 C 
ATOM     28  C   UNL     1      36.772 -23.820 -14.789  0.00  0.00    +0.031 C 
ATOM     29  C   UNL     1      37.724 -23.042 -15.442  0.00  0.00    +0.003 C 
BRANCH  28  32
ATOM     30  N   UNL     1      36.432 -25.719 -13.225  0.00  0.00    -0.343 N 
ATOM     31  N   UNL     1      38.172 -24.199 -12.873  0.00  0.00    -0.285 NA
ATOM     32  C   UNL     1      37.143 -24.583 -13.608  0.00  0.00    +0.117 C 
ATOM     33  H   UNL     1      36.702 -26.221 -12.422  0.00  0.00    +0.144 HD
ATOM     34  H   UNL     1      35.662 -26.020 -13.758  0.00  0.00    +0.144 HD
ATOM     35  H   UNL     1      38.425 -24.714 -12.073  0.00  0.00    +0.188 HD
ENDBRANCH  28  32
ENDBRANCH   3  20
TORSDOF 4
ENDMDL
MODEL 2
REMARK VINA RESULT:     -11.8      1.518      2.335
REMARK  Name = 447736
REMARK  4 active torsions:
REMARK  status: ('A' for Active; 'I' for Inactive)
REMARK    1  A    between atoms: N_2  and  C_13
REMARK    2  A    between atoms: C_3  and  C_20
REMARK    3  A    between atoms: C_6  and  C_17
REMARK    4  A    between atoms: C_28  and  C_32
REMARK                            x       y       z     vdW  Elec       q    Type
REMARK                         _______ _______ _______ _____ _____    ______ ____
ROOT
ATOM      1  O   UNL     1      36.813 -21.322 -20.522  0.00  0.00    -0.270 OA
ATOM      2  N   UNL     1      34.897 -19.989 -20.234  0.00  0.00    -0.280 N 
ATOM      3  C   UNL     1      35.832 -20.970 -19.876  0.00  0.00    +0.249 C 
ATOM      4  H   UNL     1      34.166 -19.834 -19.593  0.00  0.00    +0.155 HD
ENDROOT
BRANCH   2  13
ATOM      5  N   UNL     1      34.482 -14.806 -23.598  0.00  0.00    +0.388 N 
ATOM      6  C   UNL     1      34.810 -15.486 -22.329  0.00  0.00    -0.039 C 
ATOM      7  C   UNL     1      34.812 -17.006 -22.434  0.00  0.00    -0.045 C 
ATOM      8  C   UNL     1      34.863 -17.630 -23.698  0.00  0.00    -0.030 C 
ATOM      9  C   UNL     1      34.852 -16.807 -24.961  0.00  0.00    +0.003 C 
ATOM     10  C   UNL     1      35.260 -15.359 -24.704  0.00  0.00    -0.076 C 
ATOM     11  C   UNL     1      34.844 -17.814 -21.286  0.00  0.00    +0.008 C 
ATOM     12  C   UNL     1      34.881 -19.029 -23.791  0.00  0.00    -0.003 C 
ATOM     13  C   UNL     1      34.874 -19.206 -21.389  0.00  0.00    +0.050 C 
ATOM     14  C   UNL     1      34.886 -19.814 -22.640  0.00  0.00    +0.014 C 
ATOM     15  H   UNL     1      34.691 -13.812 -23.507  0.00  0.00    -0.084 HD
ATOM     16  H   UNL     1      33.491 -14.946 -23.795  0.00  0.00    -0.084 HD
BRANCH   6  17
ATOM     17  C   UNL     1      33.827 -14.953 -21.279  0.00  0.00    -0.015 C 
ATOM     18  C   UNL     1      34.579 -14.223 -20.171  0.00  0.00    -0.002 C 
ATOM     19  C   UNL     1      32.799 -14.036 -21.932  0.00  0.00    -0.002 C 
ENDBRANCH   6  17
ENDBRANCH   2  13
BRANCH   3  20
ATOM     20  C   UNL     1      35.568 -21.658 -18.585  0.00  0.00    +0.054 C 
ATOM     21  C   UNL     1      34.015 -22.720 -17.086  0.00  0.00    +0.000 C 
ATOM     22  C   UNL     1      34.282 -22.069 -18.303  0.00  0.00    +0.005 C 
ATOM     23  C   UNL     1      35.074 -22.942 -16.173  0.00  0.00    +0.000 C 
ATOM     24  C   UNL     1      36.614 -21.861 -17.716  0.00  0.00    +0.005 C 
ATOM     25  C   UNL     1      36.368 -22.506 -16.503  0.00  0.00    +0.000 C 
ATOM     26  C   UNL     1      34.807 -23.592 -14.958  0.00  0.00    +0.003 C 
ATOM     27  C   UNL     1      32.722 -23.156 -16.757  0.00  0.00    +0.000 C 
ATOM     28  C   UNL     1      33.516 -24.019 -14.647  0.00  0.00    +0.031 C 
ATOM     29  C   UNL     1      32.475 -23.801 -15.545  0.00  0.00    +0.003 C 
BRANCH  28  32
ATOM     30  N   UNL     1      32.066 -25.380 -13.160  0.00  0.00    -0.343 N 
ATOM     31  N   UNL     1      34.159 -24.650 -12.419  0.00  0.00    -0.285 NA
ATOM     32  C   UNL     1      33.257 -24.690 -13.383  0.00  0.00    +0.117 C 
ATOM     33  H   UNL     1      31.912 -25.829 -12.297  0.00  0.00    +0.144 HD
ATOM     34  H   UNL     1      31.381 -25.419 -13.865  0.00  0.00    +0.144 HD
ATOM     35  H   UNL     1      33.985 -25.105 -11.563  0.00  0.00    +0.188 HD
ENDBRANCH  28  32
ENDBRANCH   3  20
TORSDOF 4
ENDMDL
MODEL 3
REMARK VINA RESULT:     -11.8      6.357     10.690
REMARK  Name = 447736
REMARK  4 active torsions:
REMARK  status: ('A' for Active; 'I' for Inactive)
REMARK    1  A    between atoms: N_2  and  C_13
REMARK    2  A    between atoms: C_3  and  C_20
REMARK    3  A    between atoms: C_6  and  C_17
REMARK    4  A    between atoms: C_28  and  C_32
REMARK                            x       y       z     vdW  Elec       q    Type
REMARK                         _______ _______ _______ _____ _____    ______ ____
ROOT
ATOM      1  O   UNL     1      30.712 -11.274 -21.450  0.00  0.00    -0.270 OA
ATOM      2  N   UNL     1      32.764 -10.222 -21.908  0.00  0.00    -0.280 N 
ATOM      3  C   UNL     1      31.918 -11.313 -21.666  0.00  0.00    +0.249 C 
ATOM      4  H   UNL     1      33.712 -10.436 -22.063  0.00  0.00    +0.155 HD
ENDROOT
BRANCH   2  13
ATOM      5  N   UNL     1      32.450  -4.506 -24.271  0.00  0.00    +0.388 N 
ATOM      6  C   UNL     1      32.565  -5.966 -24.461  0.00  0.00    -0.039 C 
ATOM      7  C   UNL     1      32.339  -6.767 -23.186  0.00  0.00    -0.045 C 
ATOM      8  C   UNL     1      31.724  -6.165 -22.069  0.00  0.00    -0.030 C 
ATOM      9  C   UNL     1      31.338  -4.708 -22.098  0.00  0.00    +0.003 C 
ATOM     10  C   UNL     1      31.241  -4.170 -23.523  0.00  0.00    -0.076 C 
ATOM     11  C   UNL     1      32.662  -8.132 -23.119  0.00  0.00    +0.008 C 
ATOM     12  C   UNL     1      31.503  -6.910 -20.901  0.00  0.00    -0.003 C 
ATOM     13  C   UNL     1      32.427  -8.868 -21.955  0.00  0.00    +0.050 C 
ATOM     14  C   UNL     1      31.854  -8.256 -20.845  0.00  0.00    +0.014 C 
ATOM     15  H   UNL     1      32.414  -4.053 -25.184  0.00  0.00    -0.084 HD
ATOM     16  H   UNL     1      33.260  -4.182 -23.743  0.00  0.00    -0.084 HD
BRANCH   6  17
ATOM     17  C   UNL     1      33.936  -6.218 -25.101  0.00  0.00    -0.015 C 
ATOM     18  C   UNL     1      34.250  -5.135 -26.128  0.00  0.00    -0.002 C 
ATOM     19  C   UNL     1      35.018  -6.277 -24.028  0.00  0.00    -0.002 C 
ENDBRANCH   6  17
ENDBRANCH   2  13
BRANCH   3  20
ATOM     20  C   UNL     1      32.583 -12.642 -21.651  0.00  0.00    +0.054 C 
ATOM     21  C   UNL     1      33.743 -14.388 -22.829  0.00  0.00    +0.000 C 
ATOM     22  C   UNL     1      33.112 -13.133 -22.826  0.00  0.00    +0.005 C 
ATOM     23  C   UNL     1      33.824 -15.126 -21.623  0.00  0.00    +0.000 C 
ATOM     24  C   UNL     1      32.647 -13.338 -20.466  0.00  0.00    +0.005 C 
ATOM     25  C   UNL     1      33.270 -14.586 -20.450  0.00  0.00    +0.000 C 
ATOM     26  C   UNL     1      34.454 -16.380 -21.626  0.00  0.00    +0.003 C 
ATOM     27  C   UNL     1      34.297 -14.927 -24.001  0.00  0.00    +0.000 C 
ATOM     28  C   UNL     1      34.999 -16.900 -22.800  0.00  0.00    +0.031 C 
ATOM     29  C   UNL     1      34.920 -16.175 -23.985  0.00  0.00    +0.003 C 
BRANCH  28  32
ATOM     30  N   UNL     1      34.993 -19.343 -23.244  0.00  0.00    -0.343 N 
ATOM     31  N   UNL     1      36.883 -18.316 -22.330  0.00  0.00    -0.285 NA
ATOM     32  C   UNL     1      35.648 -18.201 -22.786  0.00  0.00    +0.117 C 
ATOM     33  H   UNL     1      35.452 -20.215 -23.227  0.00  0.00    +0.144 HD
ATOM     34  H   UNL     1      34.072 -19.279 -23.585  0.00  0.00    +0.144 HD
ATOM     35  H   UNL     1      37.324 -19.196 -22.321  0.00  0.00    +0.188 HD
ENDBRANCH  28  32
ENDBRANCH   3  20
TORSDOF 4
ENDMDL
MODEL 4
REMARK VINA RESULT:     -11.8      1.656      2.820
REMARK  Name = 447736
REMARK  4 active torsions:
REMARK  status: ('A' for Active; 'I' for Inactive)
REMARK    1  A    between atoms: N_2  and  C_13
REMARK    2  A    between atoms: C_3  and  C_20
REMARK    3  A    between atoms: C_6  and  C_17
REMARK    4  A    between atoms: C_28  and  C_32
REMARK                            x       y       z     vdW  Elec       q    Type
REMARK                         _______ _______ _______ _____ _____    ______ ____
ROOT
ATOM      1  O   UNL     1      34.877 -20.054 -22.456  0.00  0.00    -0.270 OA
ATOM      2  N   UNL     1      34.961 -18.167 -21.056  0.00  0.00    -0.280 N 
ATOM      3  C   UNL     1      35.000 -19.536 -21.352  0.00  0.00    +0.249 C 
ATOM      4  H   UNL     1      35.078 -17.926 -20.109  0.00  0.00    +0.155 HD
ENDROOT
BRANCH   2  13
ATOM      5  N   UNL     1      33.069 -12.575 -22.927  0.00  0.00    +0.388 N 
ATOM      6  C   UNL     1      33.489 -13.489 -21.846  0.00  0.00    -0.039 C 
ATOM      7  C   UNL     1      34.042 -14.816 -22.350  0.00  0.00    -0.045 C 
ATOM      8  C   UNL     1      34.436 -14.955 -23.697  0.00  0.00    -0.030 C 
ATOM      9  C   UNL     1      34.260 -13.817 -24.670  0.00  0.00    +0.003 C 
ATOM     10  C   UNL     1      34.099 -12.476 -23.959  0.00  0.00    -0.076 C 
ATOM     11  C   UNL     1      34.244 -15.898 -21.477  0.00  0.00    +0.008 C 
ATOM     12  C   UNL     1      34.959 -16.173 -24.154  0.00  0.00    -0.003 C 
ATOM     13  C   UNL     1      34.777 -17.103 -21.940  0.00  0.00    +0.050 C 
ATOM     14  C   UNL     1      35.128 -17.243 -23.278  0.00  0.00    +0.014 C 
ATOM     15  H   UNL     1      32.901 -11.649 -22.534  0.00  0.00    -0.084 HD
ATOM     16  H   UNL     1      32.217 -12.942 -23.351  0.00  0.00    -0.084 HD
BRANCH   6  17
ATOM     17  C   UNL     1      32.282 -13.650 -20.914  0.00  0.00    -0.015 C 
ATOM     18  C   UNL     1      32.547 -14.746 -19.888  0.00  0.00    -0.002 C 
ATOM     19  C   UNL     1      31.963 -12.328 -20.226  0.00  0.00    -0.002 C 
ENDBRANCH   6  17
ENDBRANCH   2  13
BRANCH   3  20
ATOM     20  C   UNL     1      35.184 -20.434 -20.182  0.00  0.00    +0.054 C 
ATOM     21  C   UNL     1      34.230 -21.875 -18.508  0.00  0.00    +0.000 C 
ATOM     22  C   UNL     1      34.073 -21.024 -19.616  0.00  0.00    +0.005 C 
ATOM     23  C   UNL     1      35.528 -22.109 -17.994  0.00  0.00    +0.000 C 
ATOM     24  C   UNL     1      36.455 -20.645 -19.701  0.00  0.00    +0.005 C 
ATOM     25  C   UNL     1      36.631 -21.486 -18.602  0.00  0.00    +0.000 C 
ATOM     26  C   UNL     1      35.685 -22.959 -16.888  0.00  0.00    +0.003 C 
ATOM     27  C   UNL     1      33.128 -22.497 -17.901  0.00  0.00    +0.000 C 
ATOM     28  C   UNL     1      34.579 -23.570 -16.297  0.00  0.00    +0.031 C 
ATOM     29  C   UNL     1      33.302 -23.339 -16.803  0.00  0.00    +0.003 C 
BRANCH  28  32
ATOM     30  N   UNL     1      33.920 -24.368 -14.040  0.00  0.00    -0.343 N 
ATOM     31  N   UNL     1      35.733 -25.338 -15.150  0.00  0.00    -0.285 NA
ATOM     32  C   UNL     1      34.758 -24.447 -15.151  0.00  0.00    +0.117 C 
ATOM     33  H   UNL     1      34.058 -24.973 -13.274  0.00  0.00    +0.144 HD
ATOM     34  H   UNL     1      33.189 -23.709 -14.020  0.00  0.00    +0.144 HD
ATOM     35  H   UNL     1      35.856 -25.933 -14.375  0.00  0.00    +0.188 HD
ENDBRANCH  28  32
ENDBRANCH   3  20
TORSDOF 4
ENDMDL
MODEL 5
REMARK VINA RESULT:     -11.6      6.137     10.591
REMARK  Name = 447736
REMARK  4 active torsions:
REMARK  status: ('A' for Active; 'I' for Inactive)
REMARK    1  A    between atoms: N_2  and  C_13
REMARK    2  A    between atoms: C_3  and  C_20
REMARK    3  A    between atoms: C_6  and  C_17
REMARK    4  A    between atoms: C_28  and  C_32
REMARK                            x       y       z     vdW  Elec       q    Type
REMARK                         _______ _______ _______ _____ _____    ______ ____
ROOT
ATOM      1  O   UNL     1      31.262 -11.499 -21.502  0.00  0.00    -0.270 OA
ATOM      2  N   UNL     1      33.008 -10.320 -22.546  0.00  0.00    -0.280 N 
ATOM      3  C   UNL     1      32.321 -11.465 -22.120  0.00  0.00    +0.249 C 
ATOM      4  H   UNL     1      33.850 -10.477 -23.033  0.00  0.00    +0.155 HD
ENDROOT
BRANCH   2  13
ATOM      5  N   UNL     1      32.295  -4.355 -24.050  0.00  0.00    +0.388 N 
ATOM      6  C   UNL     1      32.407  -5.772 -24.450  0.00  0.00    -0.039 C 
ATOM      7  C   UNL     1      32.364  -6.743 -23.277  0.00  0.00    -0.045 C 
ATOM      8  C   UNL     1      31.891  -6.315 -22.020  0.00  0.00    -0.030 C 
ATOM      9  C   UNL     1      31.482  -4.881 -21.800  0.00  0.00    +0.003 C 
ATOM     10  C   UNL     1      31.189  -4.162 -23.114  0.00  0.00    -0.076 C 
ATOM     11  C   UNL     1      32.714  -8.093 -23.438  0.00  0.00    +0.008 C 
ATOM     12  C   UNL     1      31.838  -7.215 -20.946  0.00  0.00    -0.003 C 
ATOM     13  C   UNL     1      32.646  -8.984 -22.365  0.00  0.00    +0.050 C 
ATOM     14  C   UNL     1      32.215  -8.545 -21.119  0.00  0.00    +0.014 C 
ATOM     15  H   UNL     1      32.132  -3.786 -24.881  0.00  0.00    -0.084 HD
ATOM     16  H   UNL     1      33.162  -4.077 -23.591  0.00  0.00    -0.084 HD
BRANCH   6  17
ATOM     17  C   UNL     1      33.687  -5.891 -25.288  0.00  0.00    -0.015 C 
ATOM     18  C   UNL     1      33.822  -4.693 -26.222  0.00  0.00    -0.002 C 
ATOM     19  C   UNL     1      34.905  -6.011 -24.380  0.00  0.00    -0.002 C 
ENDBRANCH   6  17
ENDBRANCH   2  13
BRANCH   3  20
ATOM     20  C   UNL     1      32.979 -12.758 -22.440  0.00  0.00    +0.054 C 
ATOM     21  C   UNL     1      33.963 -14.821 -21.690  0.00  0.00    +0.000 C 
ATOM     22  C   UNL     1      33.338 -13.595 -21.404  0.00  0.00    +0.005 C 
ATOM     23  C   UNL     1      34.212 -15.173 -23.038  0.00  0.00    +0.000 C 
ATOM     24  C   UNL     1      33.211 -13.076 -23.758  0.00  0.00    +0.005 C 
ATOM     25  C   UNL     1      33.830 -14.289 -24.061  0.00  0.00    +0.000 C 
ATOM     26  C   UNL     1      34.837 -16.398 -23.324  0.00  0.00    +0.003 C 
ATOM     27  C   UNL     1      34.344 -15.704 -20.668  0.00  0.00    +0.000 C 
ATOM     28  C   UNL     1      35.209 -17.264 -22.296  0.00  0.00    +0.031 C 
ATOM     29  C   UNL     1      34.963 -16.917 -20.970  0.00  0.00    +0.003 C 
BRANCH  28  32
ATOM     30  N   UNL     1      35.150 -19.578 -23.193  0.00  0.00    -0.343 N 
ATOM     31  N   UNL     1      37.137 -18.697 -22.333  0.00  0.00    -0.285 NA
ATOM     32  C   UNL     1      35.855 -18.528 -22.608  0.00  0.00    +0.117 C 
ATOM     33  H   UNL     1      35.608 -20.426 -23.397  0.00  0.00    +0.144 HD
ATOM     34  H   UNL     1      34.194 -19.472 -23.403  0.00  0.00    +0.144 HD
ATOM     35  H   UNL     1      37.576 -19.553 -22.544  0.00  0.00    +0.188 HD
ENDBRANCH  28  32
ENDBRANCH   3  20
TORSDOF 4
ENDMDL
MODEL 6
REMARK VINA RESULT:     -11.1      5.975     10.464
REMARK  Name = 447736
REMARK  4 active torsions:
REMARK  status: ('A' for Active; 'I' for Inactive)
REMARK    1  A    between atoms: N_2  and  C_13
REMARK    2  A    between atoms: C_3  and  C_20
REMARK    3  A    between atoms: C_6  and  C_17
REMARK    4  A    between atoms: C_28  and  C_32
REMARK                            x       y       z     vdW  Elec       q    Type
REMARK                         _______ _______ _______ _____ _____    ______ ____
ROOT
ATOM      1  O   UNL     1      34.411 -10.657 -24.371  0.00  0.00    -0.270 OA
ATOM      2  N   UNL     1      32.926 -10.907 -22.566  0.00  0.00    -0.280 N 
ATOM      3  C   UNL     1      33.810 -11.351 -23.558  0.00  0.00    +0.249 C 
ATOM      4  H   UNL     1      32.529 -11.605 -21.997  0.00  0.00    +0.155 HD
ENDROOT
BRANCH   2  13
ATOM      5  N   UNL     1      32.150  -4.849 -23.594  0.00  0.00    +0.388 N 
ATOM      6  C   UNL     1      32.296  -6.226 -24.106  0.00  0.00    -0.039 C 
ATOM      7  C   UNL     1      32.240  -7.291 -23.018  0.00  0.00    -0.045 C 
ATOM      8  C   UNL     1      31.730  -6.975 -21.742  0.00  0.00    -0.030 C 
ATOM      9  C   UNL     1      31.291  -5.570 -21.416  0.00  0.00    +0.003 C 
ATOM     10  C   UNL     1      31.019  -4.750 -22.674  0.00  0.00    -0.076 C 
ATOM     11  C   UNL     1      32.617  -8.618 -23.280  0.00  0.00    +0.008 C 
ATOM     12  C   UNL     1      31.665  -7.961 -20.747  0.00  0.00    -0.003 C 
ATOM     13  C   UNL     1      32.538  -9.596 -22.286  0.00  0.00    +0.050 C 
ATOM     14  C   UNL     1      32.069  -9.267 -21.019  0.00  0.00    +0.014 C 
ATOM     15  H   UNL     1      31.998  -4.216 -24.379  0.00  0.00    -0.084 HD
ATOM     16  H   UNL     1      33.001  -4.597 -23.091  0.00  0.00    -0.084 HD
BRANCH   6  17
ATOM     17  C   UNL     1      33.597  -6.257 -24.918  0.00  0.00    -0.015 C 
ATOM     18  C   UNL     1      33.665  -5.057 -25.856  0.00  0.00    -0.002 C 
ATOM     19  C   UNL     1      34.803  -6.286 -23.985  0.00  0.00    -0.002 C 
ENDBRANCH   6  17
ENDBRANCH   2  13
BRANCH   3  20
ATOM     20  C   UNL     1      34.001 -12.823 -23.627  0.00  0.00    +0.054 C 
ATOM     21  C   UNL     1      34.514 -14.897 -22.522  0.00  0.00    +0.000 C 
ATOM     22  C   UNL     1      34.329 -13.505 -22.474  0.00  0.00    +0.005 C 
ATOM     23  C   UNL     1      34.360 -15.573 -23.756  0.00  0.00    +0.000 C 
ATOM     24  C   UNL     1      33.845 -13.456 -24.838  0.00  0.00    +0.005 C 
ATOM     25  C   UNL     1      34.025 -14.838 -24.905  0.00  0.00    +0.000 C 
ATOM     26  C   UNL     1      34.544 -16.964 -23.804  0.00  0.00    +0.003 C 
ATOM     27  C   UNL     1      34.848 -15.631 -21.374  0.00  0.00    +0.000 C 
ATOM     28  C   UNL     1      34.876 -17.679 -22.653  0.00  0.00    +0.031 C 
ATOM     29  C   UNL     1      35.028 -17.013 -21.440  0.00  0.00    +0.003 C 
BRANCH  28  32
ATOM     30  N   UNL     1      34.920 -19.815 -23.919  0.00  0.00    -0.343 N 
ATOM     31  N   UNL     1      35.378 -19.793 -21.627  0.00  0.00    -0.285 NA
ATOM     32  C   UNL     1      35.065 -19.119 -22.720  0.00  0.00    +0.117 C 
ATOM     33  H   UNL     1      35.054 -20.790 -23.942  0.00  0.00    +0.144 HD
ATOM     34  H   UNL     1      34.685 -19.330 -24.743  0.00  0.00    +0.144 HD
ATOM     35  H   UNL     1      35.506 -20.768 -21.671  0.00  0.00    +0.188 HD
ENDBRANCH  28  32
ENDBRANCH   3  20
TORSDOF 4
ENDMDL
MODEL 7
REMARK VINA RESULT:     -11.0      2.270     10.348
REMARK  Name = 447736
REMARK  4 active torsions:
REMARK  status: ('A' for Active; 'I' for Inactive)
REMARK    1  A    between atoms: N_2  and  C_13
REMARK    2  A    between atoms: C_3  and  C_20
REMARK    3  A    between atoms: C_6  and  C_17
REMARK    4  A    between atoms: C_28  and  C_32
REMARK                            x       y       z     vdW  Elec       q    Type
REMARK                         _______ _______ _______ _____ _____    ______ ____
ROOT
ATOM      1  O   UNL     1      33.784 -23.901 -17.700  0.00  0.00    -0.270 OA
ATOM      2  N   UNL     1      35.007 -22.383 -16.385  0.00  0.00    -0.280 N 
ATOM      3  C   UNL     1      34.325 -22.813 -17.531  0.00  0.00    +0.249 C 
ATOM      4  H   UNL     1      35.382 -21.473 -16.422  0.00  0.00    +0.155 HD
ENDROOT
BRANCH   2  13
ATOM      5  N   UNL     1      38.154 -25.723 -12.227  0.00  0.00    +0.388 N 
ATOM      6  C   UNL     1      38.134 -24.749 -13.336  0.00  0.00    -0.039 C 
ATOM      7  C   UNL     1      36.736 -24.266 -13.700  0.00  0.00    -0.045 C 
ATOM      8  C   UNL     1      35.663 -24.464 -12.806  0.00  0.00    -0.030 C 
ATOM      9  C   UNL     1      35.868 -25.208 -11.512  0.00  0.00    +0.003 C 
ATOM     10  C   UNL     1      37.339 -25.256 -11.107  0.00  0.00    -0.076 C 
ATOM     11  C   UNL     1      36.499 -23.549 -14.884  0.00  0.00    +0.008 C 
ATOM     12  C   UNL     1      34.379 -24.004 -13.137  0.00  0.00    -0.003 C 
ATOM     13  C   UNL     1      35.220 -23.086 -15.198  0.00  0.00    +0.050 C 
ATOM     14  C   UNL     1      34.160 -23.318 -14.329  0.00  0.00    +0.014 C 
ATOM     15  H   UNL     1      39.115 -25.847 -11.909  0.00  0.00    -0.084 HD
ATOM     16  H   UNL     1      37.770 -26.606 -12.562  0.00  0.00    -0.084 HD
BRANCH   6  17
ATOM     17  C   UNL     1      38.872 -25.407 -14.509  0.00  0.00    -0.015 C 
ATOM     18  C   UNL     1      40.362 -25.514 -14.205  0.00  0.00    -0.002 C 
ATOM     19  C   UNL     1      38.278 -26.779 -14.806  0.00  0.00    -0.002 C 
ENDBRANCH   6  17
ENDBRANCH   2  13
BRANCH   3  20
ATOM     20  C   UNL     1      34.290 -21.840 -18.654  0.00  0.00    +0.054 C 
ATOM     21  C   UNL     1      35.466 -20.403 -20.183  0.00  0.00    +0.000 C 
ATOM     22  C   UNL     1      35.481 -21.326 -19.123  0.00  0.00    +0.005 C 
ATOM     23  C   UNL     1      34.227 -20.019 -20.749  0.00  0.00    +0.000 C 
ATOM     24  C   UNL     1      33.073 -21.482 -19.185  0.00  0.00    +0.005 C 
ATOM     25  C   UNL     1      33.039 -20.567 -20.238  0.00  0.00    +0.000 C 
ATOM     26  C   UNL     1      34.212 -19.097 -21.808  0.00  0.00    +0.003 C 
ATOM     27  C   UNL     1      36.653 -19.855 -20.694  0.00  0.00    +0.000 C 
ATOM     28  C   UNL     1      35.401 -18.562 -22.303  0.00  0.00    +0.031 C 
ATOM     29  C   UNL     1      36.620 -18.941 -21.746  0.00  0.00    +0.003 C 
BRANCH  28  32
ATOM     30  N   UNL     1      34.867 -17.959 -24.652  0.00  0.00    -0.343 N 
ATOM     31  N   UNL     1      35.825 -16.381 -23.218  0.00  0.00    -0.285 NA
ATOM     32  C   UNL     1      35.369 -17.608 -23.400  0.00  0.00    +0.117 C 
ATOM     33  H   UNL     1      34.853 -17.296 -25.380  0.00  0.00    +0.144 HD
ATOM     34  H   UNL     1      34.524 -18.868 -24.807  0.00  0.00    +0.144 HD
ATOM     35  H   UNL     1      35.803 -15.734 -23.960  0.00  0.00    +0.188 HD
ENDBRANCH  28  32
ENDBRANCH   3  20
TORSDOF 4
ENDMDL
MODEL 8
REMARK VINA RESULT:     -10.9      1.883     10.070
REMARK  Name = 447736
REMARK  4 active torsions:
REMARK  status: ('A' for Active; 'I' for Inactive)
REMARK    1  A    between atoms: N_2  and  C_13
REMARK    2  A    between atoms: C_3  and  C_20
REMARK    3  A    between atoms: C_6  and  C_17
REMARK    4  A    between atoms: C_28  and  C_32
REMARK                            x       y       z     vdW  Elec       q    Type
REMARK                         _______ _______ _______ _____ _____    ______ ____
ROOT
ATOM      1  O   UNL     1      37.555 -19.535 -19.828  0.00  0.00    -0.270 OA
ATOM      2  N   UNL     1      35.512 -20.669 -19.568  0.00  0.00    -0.280 N 
ATOM      3  C   UNL     1      36.406 -19.779 -20.180  0.00  0.00    +0.249 C 
ATOM      4  H   UNL     1      34.623 -20.742 -19.985  0.00  0.00    +0.155 HD
ENDROOT
BRANCH   2  13
ATOM      5  N   UNL     1      34.000 -24.271 -14.763  0.00  0.00    +0.388 N 
ATOM      6  C   UNL     1      33.697 -23.730 -16.103  0.00  0.00    -0.039 C 
ATOM      7  C   UNL     1      34.850 -22.951 -16.722  0.00  0.00    -0.045 C 
ATOM      8  C   UNL     1      36.155 -23.082 -16.203  0.00  0.00    -0.030 C 
ATOM      9  C   UNL     1      36.417 -23.943 -14.993  0.00  0.00    +0.003 C 
ATOM     10  C   UNL     1      35.295 -24.949 -14.754  0.00  0.00    -0.076 C 
ATOM     11  C   UNL     1      34.659 -22.153 -17.862  0.00  0.00    +0.008 C 
ATOM     12  C   UNL     1      37.217 -22.375 -16.784  0.00  0.00    -0.003 C 
ATOM     13  C   UNL     1      35.726 -21.463 -18.441  0.00  0.00    +0.050 C 
ATOM     14  C   UNL     1      37.003 -21.568 -17.899  0.00  0.00    +0.014 C 
ATOM     15  H   UNL     1      33.273 -24.937 -14.500  0.00  0.00    -0.084 HD
ATOM     16  H   UNL     1      34.034 -23.497 -14.100  0.00  0.00    -0.084 HD
BRANCH   6  17
ATOM     17  C   UNL     1      32.413 -22.902 -15.961  0.00  0.00    -0.015 C 
ATOM     18  C   UNL     1      31.231 -23.648 -16.571  0.00  0.00    -0.002 C 
ATOM     19  C   UNL     1      32.152 -22.577 -14.495  0.00  0.00    -0.002 C 
ENDBRANCH   6  17
ENDBRANCH   2  13
BRANCH   3  20
ATOM     20  C   UNL     1      35.871 -19.050 -21.359  0.00  0.00    +0.054 C 
ATOM     21  C   UNL     1      35.135 -16.990 -22.358  0.00  0.00    +0.000 C 
ATOM     22  C   UNL     1      35.642 -17.694 -21.253  0.00  0.00    +0.005 C 
ATOM     23  C   UNL     1      34.868 -17.687 -23.561  0.00  0.00    +0.000 C 
ATOM     24  C   UNL     1      35.620 -19.751 -22.515  0.00  0.00    +0.005 C 
ATOM     25  C   UNL     1      35.116 -19.069 -23.622  0.00  0.00    +0.000 C 
ATOM     26  C   UNL     1      34.362 -16.984 -24.665  0.00  0.00    +0.003 C 
ATOM     27  C   UNL     1      34.888 -15.609 -22.297  0.00  0.00    +0.000 C 
ATOM     28  C   UNL     1      34.123 -15.612 -24.586  0.00  0.00    +0.031 C 
ATOM     29  C   UNL     1      34.385 -14.926 -23.403  0.00  0.00    +0.003 C 
BRANCH  28  32
ATOM     30  N   UNL     1      32.396 -14.194 -25.670  0.00  0.00    -0.343 N 
ATOM     31  N   UNL     1      34.262 -14.911 -26.880  0.00  0.00    -0.285 NA
ATOM     32  C   UNL     1      33.597 -14.898 -25.739  0.00  0.00    +0.117 C 
ATOM     33  H   UNL     1      32.058 -13.717 -26.462  0.00  0.00    +0.144 HD
ATOM     34  H   UNL     1      31.885 -14.174 -24.829  0.00  0.00    +0.144 HD
ATOM     35  H   UNL     1      33.907 -14.428 -27.662  0.00  0.00    +0.188 HD
ENDBRANCH  28  32
ENDBRANCH   3  20
TORSDOF 4
ENDMDL
MODEL 9
REMARK VINA RESULT:     -10.4      2.131     10.185
REMARK  Name = 447736
REMARK  4 active torsions:
REMARK  status: ('A' for Active; 'I' for Inactive)
REMARK    1  A    between atoms: N_2  and  C_13
REMARK    2  A    between atoms: C_3  and  C_20
REMARK    3  A    between atoms: C_6  and  C_17
REMARK    4  A    between atoms: C_28  and  C_32
REMARK                            x       y       z     vdW  Elec       q    Type
REMARK                         _______ _______ _______ _____ _____    ______ ____
ROOT
ATOM      1  O   UNL     1      34.514 -23.315 -17.725  0.00  0.00    -0.270 OA
ATOM      2  N   UNL     1      36.537 -22.244 -17.187  0.00  0.00    -0.280 N 
ATOM      3  C   UNL     1      35.346 -22.431 -17.901  0.00  0.00    +0.249 C 
ATOM      4  H   UNL     1      37.091 -21.478 -17.463  0.00  0.00    +0.155 HD
ENDROOT
BRANCH   2  13
ATOM      5  N   UNL     1      36.337 -25.567 -11.965  0.00  0.00    +0.388 N 
ATOM      6  C   UNL     1      35.677 -25.055 -13.183  0.00  0.00    -0.039 C 
ATOM      7  C   UNL     1      36.634 -24.376 -14.155  0.00  0.00    -0.045 C 
ATOM      8  C   UNL     1      38.025 -24.575 -14.037  0.00  0.00    -0.030 C 
ATOM      9  C   UNL     1      38.589 -25.408 -12.915  0.00  0.00    +0.003 C 
ATOM     10  C   UNL     1      37.538 -26.329 -12.302  0.00  0.00    -0.076 C 
ATOM     11  C   UNL     1      36.154 -23.608 -15.228  0.00  0.00    +0.008 C 
ATOM     12  C   UNL     1      38.901 -23.960 -14.943  0.00  0.00    -0.003 C 
ATOM     13  C   UNL     1      37.035 -23.010 -16.132  0.00  0.00    +0.050 C 
ATOM     14  C   UNL     1      38.408 -23.181 -15.986  0.00  0.00    +0.014 C 
ATOM     15  H   UNL     1      35.687 -26.173 -11.464  0.00  0.00    -0.084 HD
ATOM     16  H   UNL     1      36.607 -24.774 -11.383  0.00  0.00    -0.084 HD
BRANCH   6  17
ATOM     17  C   UNL     1      34.540 -24.139 -12.712  0.00  0.00    -0.015 C 
ATOM     18  C   UNL     1      33.190 -24.711 -13.133  0.00  0.00    -0.002 C 
ATOM     19  C   UNL     1      34.601 -23.951 -11.201  0.00  0.00    -0.002 C 
ENDBRANCH   6  17
ENDBRANCH   2  13
BRANCH   3  20
ATOM     20  C   UNL     1      35.102 -21.458 -18.998  0.00  0.00    +0.054 C 
ATOM     21  C   UNL     1      35.967 -19.874 -20.588  0.00  0.00    +0.000 C 
ATOM     22  C   UNL     1      36.180 -20.798 -19.551  0.00  0.00    +0.005 C 
ATOM     23  C   UNL     1      34.648 -19.638 -21.045  0.00  0.00    +0.000 C 
ATOM     24  C   UNL     1      33.812 -21.247 -19.423  0.00  0.00    +0.005 C 
ATOM     25  C   UNL     1      33.581 -20.333 -20.452  0.00  0.00    +0.000 C 
ATOM     26  C   UNL     1      34.435 -18.715 -22.081  0.00  0.00    +0.003 C 
ATOM     27  C   UNL     1      37.033 -19.180 -21.180  0.00  0.00    +0.000 C 
ATOM     28  C   UNL     1      35.507 -18.034 -22.659  0.00  0.00    +0.031 C 
ATOM     29  C   UNL     1      36.804 -18.266 -22.209  0.00  0.00    +0.003 C 
BRANCH  28  32
ATOM     30  N   UNL     1      34.586 -17.445 -24.888  0.00  0.00    -0.343 N 
ATOM     31  N   UNL     1      35.709 -15.839 -23.616  0.00  0.00    -0.285 NA
ATOM     32  C   UNL     1      35.270 -17.080 -23.730  0.00  0.00    +0.117 C 
ATOM     33  H   UNL     1      34.435 -16.783 -25.601  0.00  0.00    +0.144 HD
ATOM     34  H   UNL     1      34.253 -18.366 -24.993  0.00  0.00    +0.144 HD
ATOM     35  H   UNL     1      35.549 -15.192 -24.340  0.00  0.00    +0.188 HD
ENDBRANCH  28  32
ENDBRANCH   3  20
TORSDOF 4
ENDMDL
