MODEL 1
REMARK VINA RESULT:     -12.1      0.000      0.000
REMARK  Name = 3822
REMARK  5 active torsions:
REMARK  status: ('A' for Active; 'I' for Inactive)
REMARK    1  A    between atoms: N_1  and  C_17
REMARK    2  A    between atoms: C_2  and  C_9
REMARK    3  A    between atoms: C_9  and  C_11
REMARK    4  A    between atoms: C_17  and  C_18
REMARK    5  A    between atoms: C_18  and  N_21
REMARK                            x       y       z     vdW  Elec       q    Type
REMARK                         _______ _______ _______ _____ _____    ______ ____
ROOT
ATOM      1  N   UNL     1      36.214 -20.388 -20.317  0.00  0.00    +0.388 N 
ATOM      2  C   UNL     1      35.883 -18.435 -22.485  0.00  0.00    +0.058 C 
ATOM      3  C   UNL     1      37.229 -18.686 -21.805  0.00  0.00    -0.015 C 
ATOM      4  C   UNL     1      34.922 -19.604 -22.275  0.00  0.00    -0.015 C 
ATOM      5  C   UNL     1      37.086 -19.207 -20.372  0.00  0.00    -0.077 C 
ATOM      6  C   UNL     1      34.872 -20.073 -20.819  0.00  0.00    -0.077 C 
ATOM      7  H   UNL     1      36.617 -21.108 -20.918  0.00  0.00    -0.080 HD
ENDROOT
BRANCH   2   9
ATOM      8  O   UNL     1      35.225 -16.887 -20.803  0.00  0.00    -0.291 OA
ATOM      9  C   UNL     1      35.260 -17.157 -22.001  0.00  0.00    +0.172 C 
BRANCH   9  11
ATOM     10  F   UNL     1      33.087 -13.615 -25.730  0.00  0.00    -0.204 F 
ATOM     11  C   UNL     1      34.681 -16.212 -22.997  0.00  0.00    +0.035 C 
ATOM     12  C   UNL     1      34.785 -16.515 -24.335  0.00  0.00    +0.005 C 
ATOM     13  C   UNL     1      34.060 -15.070 -22.540  0.00  0.00    +0.005 C 
ATOM     14  C   UNL     1      34.242 -15.629 -25.267  0.00  0.00    +0.030 C 
ATOM     15  C   UNL     1      33.517 -14.185 -23.471  0.00  0.00    +0.030 C 
ATOM     16  C   UNL     1      33.608 -14.464 -24.835  0.00  0.00    +0.140 C 
ENDBRANCH   9  11
ENDBRANCH   2   9
BRANCH   1  17
ATOM     17  C   UNL     1      36.141 -20.906 -18.950  0.00  0.00    -0.052 C 
BRANCH  17  18
ATOM     18  C   UNL     1      35.531 -22.299 -18.945  0.00  0.00    +0.091 C 
BRANCH  18  21
ATOM     19  O   UNL     1      32.771 -22.488 -18.766  0.00  0.00    -0.267 OA
ATOM     20  O   UNL     1      36.855 -22.697 -16.500  0.00  0.00    -0.246 OA
ATOM     21  N   UNL     1      34.854 -22.567 -17.706  0.00  0.00    -0.251 N 
ATOM     22  N   UNL     1      34.907 -23.005 -15.364  0.00  0.00    -0.306 N 
ATOM     23  C   UNL     1      33.438 -22.637 -17.745  0.00  0.00    +0.265 A 
ATOM     24  C   UNL     1      35.622 -22.752 -16.524  0.00  0.00    +0.330 A 
ATOM     25  C   UNL     1      32.754 -22.910 -16.466  0.00  0.00    +0.072 A 
ATOM     26  C   UNL     1      33.513 -23.086 -15.313  0.00  0.00    +0.065 A 
ATOM     27  C   UNL     1      31.360 -22.993 -16.407  0.00  0.00    +0.006 C 
ATOM     28  C   UNL     1      32.884 -23.344 -14.092  0.00  0.00    +0.017 C 
ATOM     29  C   UNL     1      30.732 -23.251 -15.187  0.00  0.00    +0.000 C 
ATOM     30  C   UNL     1      31.493 -23.427 -14.032  0.00  0.00    +0.001 C 
ATOM     31  H   UNL     1      35.410 -23.136 -14.529  0.00  0.00    +0.170 HD
ENDBRANCH  18  21
ENDBRANCH  17  18
ENDBRANCH   1  17
TORSDOF 5
ENDMDL
MODEL 2
REMARK VINA RESULT:     -12.1      0.762      1.852
REMARK  Name = 3822
REMARK  5 active torsions:
REMARK  status: ('A' for Active; 'I' for Inactive)
REMARK    1  A    between atoms: N_1  and  C_17
REMARK    2  A    between atoms: C_2  and  C_9
REMARK    3  A    between atoms: C_9  and  C_11
REMARK    4  A    between atoms: C_17  and  C_18
REMARK    5  A    between atoms: C_18  and  N_21
REMARK                            x       y       z     vdW  Elec       q    Type
REMARK                         _______ _______ _______ _____ _____    ______ ____
ROOT
ATOM      1  N   UNL     1      36.048 -20.225 -20.546  0.00  0.00    +0.388 N 
ATOM      2  C   UNL     1      35.776 -18.303 -22.751  0.00  0.00    +0.058 C 
ATOM      3  C   UNL     1      37.117 -18.599 -22.080  0.00  0.00    -0.015 C 
ATOM      4  C   UNL     1      34.769 -19.426 -22.507  0.00  0.00    -0.015 C 
ATOM      5  C   UNL     1      36.968 -19.084 -20.635  0.00  0.00    -0.077 C 
ATOM      6  C   UNL     1      34.714 -19.862 -21.040  0.00  0.00    -0.077 C 
ATOM      7  H   UNL     1      36.412 -20.973 -21.136  0.00  0.00    -0.080 HD
ENDROOT
BRANCH   2   9
ATOM      8  O   UNL     1      35.251 -16.673 -21.101  0.00  0.00    -0.291 OA
ATOM      9  C   UNL     1      35.215 -16.991 -22.287  0.00  0.00    +0.172 C 
BRANCH   9  11
ATOM     10  F   UNL     1      32.940 -13.537 -26.039  0.00  0.00    -0.204 F 
ATOM     11  C   UNL     1      34.608 -16.069 -23.289  0.00  0.00    +0.035 C 
ATOM     12  C   UNL     1      34.731 -16.371 -24.627  0.00  0.00    +0.005 C 
ATOM     13  C   UNL     1      33.945 -14.948 -22.839  0.00  0.00    +0.005 C 
ATOM     14  C   UNL     1      34.163 -15.508 -25.564  0.00  0.00    +0.030 C 
ATOM     15  C   UNL     1      33.377 -14.085 -23.776  0.00  0.00    +0.030 C 
ATOM     16  C   UNL     1      33.486 -14.365 -25.139  0.00  0.00    +0.140 C 
ENDBRANCH   9  11
ENDBRANCH   2   9
BRANCH   1  17
ATOM     17  C   UNL     1      35.967 -20.710 -19.168  0.00  0.00    -0.052 C 
BRANCH  17  18
ATOM     18  C   UNL     1      35.608 -22.188 -19.149  0.00  0.00    +0.091 C 
BRANCH  18  21
ATOM     19  O   UNL     1      36.244 -22.913 -16.549  0.00  0.00    -0.267 OA
ATOM     20  O   UNL     1      32.847 -22.038 -19.641  0.00  0.00    -0.246 OA
ATOM     21  N   UNL     1      34.606 -22.468 -18.158  0.00  0.00    -0.251 N 
ATOM     22  N   UNL     1      32.319 -22.647 -17.513  0.00  0.00    -0.306 N 
ATOM     23  C   UNL     1      35.058 -22.831 -16.865  0.00  0.00    +0.265 A 
ATOM     24  C   UNL     1      33.233 -22.362 -18.514  0.00  0.00    +0.330 A 
ATOM     25  C   UNL     1      34.019 -23.117 -15.856  0.00  0.00    +0.072 A 
ATOM     26  C   UNL     1      32.678 -23.016 -16.214  0.00  0.00    +0.065 A 
ATOM     27  C   UNL     1      34.371 -23.486 -14.555  0.00  0.00    +0.006 C 
ATOM     28  C   UNL     1      31.679 -23.284 -15.274  0.00  0.00    +0.017 C 
ATOM     29  C   UNL     1      33.373 -23.754 -13.616  0.00  0.00    +0.000 C 
ATOM     30  C   UNL     1      32.029 -23.652 -13.975  0.00  0.00    +0.001 C 
ATOM     31  H   UNL     1      31.360 -22.584 -17.729  0.00  0.00    +0.170 HD
ENDBRANCH  18  21
ENDBRANCH  17  18
ENDBRANCH   1  17
TORSDOF 5
ENDMDL
MODEL 3
REMARK VINA RESULT:     -11.4      1.267      2.328
REMARK  Name = 3822
REMARK  5 active torsions:
REMARK  status: ('A' for Active; 'I' for Inactive)
REMARK    1  A    between atoms: N_1  and  C_17
REMARK    2  A    between atoms: C_2  and  C_9
REMARK    3  A    between atoms: C_9  and  C_11
REMARK    4  A    between atoms: C_17  and  C_18
REMARK    5  A    between atoms: C_18  and  N_21
REMARK                            x       y       z     vdW  Elec       q    Type
REMARK                         _______ _______ _______ _____ _____    ______ ____
ROOT
ATOM      1  N   UNL     1      35.278 -20.253 -20.936  0.00  0.00    +0.388 N 
ATOM      2  C   UNL     1      35.812 -18.103 -22.864  0.00  0.00    +0.058 C 
ATOM      3  C   UNL     1      36.852 -18.569 -21.844  0.00  0.00    -0.015 C 
ATOM      4  C   UNL     1      34.735 -19.163 -23.088  0.00  0.00    -0.015 C 
ATOM      5  C   UNL     1      36.224 -19.184 -20.590  0.00  0.00    -0.077 C 
ATOM      6  C   UNL     1      34.192 -19.740 -21.778  0.00  0.00    -0.077 C 
ATOM      7  H   UNL     1      35.782 -20.964 -21.466  0.00  0.00    -0.080 HD
ENDROOT
BRANCH   2   9
ATOM      8  O   UNL     1      35.187 -16.453 -21.270  0.00  0.00    -0.291 OA
ATOM      9  C   UNL     1      35.185 -16.805 -22.447  0.00  0.00    +0.172 C 
BRANCH   9  11
ATOM     10  F   UNL     1      32.823 -13.561 -26.330  0.00  0.00    -0.204 F 
ATOM     11  C   UNL     1      34.555 -15.939 -23.483  0.00  0.00    +0.035 C 
ATOM     12  C   UNL     1      34.702 -16.281 -24.809  0.00  0.00    +0.005 C 
ATOM     13  C   UNL     1      33.848 -14.829 -23.076  0.00  0.00    +0.005 C 
ATOM     14  C   UNL     1      34.111 -15.470 -25.779  0.00  0.00    +0.030 C 
ATOM     15  C   UNL     1      33.258 -14.019 -24.046  0.00  0.00    +0.030 C 
ATOM     16  C   UNL     1      33.389 -14.339 -25.398  0.00  0.00    +0.140 C 
ENDBRANCH   9  11
ENDBRANCH   2   9
BRANCH   1  17
ATOM     17  C   UNL     1      34.737 -20.868 -19.723  0.00  0.00    -0.052 C 
BRANCH  17  18
ATOM     18  C   UNL     1      35.747 -21.838 -19.127  0.00  0.00    +0.091 C 
BRANCH  18  21
ATOM     19  O   UNL     1      37.338 -22.002 -16.863  0.00  0.00    -0.267 OA
ATOM     20  O   UNL     1      33.142 -22.822 -18.756  0.00  0.00    -0.246 OA
ATOM     21  N   UNL     1      35.272 -22.388 -17.887  0.00  0.00    -0.251 N 
ATOM     22  N   UNL     1      33.539 -23.377 -16.584  0.00  0.00    -0.306 N 
ATOM     23  C   UNL     1      36.183 -22.418 -16.802  0.00  0.00    +0.265 A 
ATOM     24  C   UNL     1      33.932 -22.859 -17.808  0.00  0.00    +0.330 A 
ATOM     25  C   UNL     1      35.684 -22.986 -15.535  0.00  0.00    +0.072 A 
ATOM     26  C   UNL     1      34.373 -23.450 -15.466  0.00  0.00    +0.065 A 
ATOM     27  C   UNL     1      36.513 -23.061 -14.411  0.00  0.00    +0.006 C 
ATOM     28  C   UNL     1      33.882 -23.992 -14.275  0.00  0.00    +0.017 C 
ATOM     29  C   UNL     1      36.022 -23.604 -13.222  0.00  0.00    +0.000 C 
ATOM     30  C   UNL     1      34.709 -24.067 -13.154  0.00  0.00    +0.001 C 
ATOM     31  H   UNL     1      32.618 -23.713 -16.498  0.00  0.00    +0.170 HD
ENDBRANCH  18  21
ENDBRANCH  17  18
ENDBRANCH   1  17
TORSDOF 5
ENDMDL
MODEL 4
REMARK VINA RESULT:     -11.0      6.328     10.211
REMARK  Name = 3822
REMARK  5 active torsions:
REMARK  status: ('A' for Active; 'I' for Inactive)
REMARK    1  A    between atoms: N_1  and  C_17
REMARK    2  A    between atoms: C_2  and  C_9
REMARK    3  A    between atoms: C_9  and  C_11
REMARK    4  A    between atoms: C_17  and  C_18
REMARK    5  A    between atoms: C_18  and  N_21
REMARK                            x       y       z     vdW  Elec       q    Type
REMARK                         _______ _______ _______ _____ _____    ______ ____
ROOT
ATOM      1  N   UNL     1      31.707 -10.949 -21.426  0.00  0.00    +0.388 N 
ATOM      2  C   UNL     1      31.664  -8.017 -21.278  0.00  0.00    +0.058 C 
ATOM      3  C   UNL     1      31.414  -8.777 -22.581  0.00  0.00    -0.015 C 
ATOM      4  C   UNL     1      31.436  -8.906 -20.058  0.00  0.00    -0.015 C 
ATOM      5  C   UNL     1      32.080 -10.156 -22.604  0.00  0.00    -0.077 C 
ATOM      6  C   UNL     1      32.114 -10.273 -20.188  0.00  0.00    -0.077 C 
ATOM      7  H   UNL     1      30.692 -11.046 -21.416  0.00  0.00    -0.080 HD
ENDROOT
BRANCH   2   9
ATOM      8  O   UNL     1      33.699  -7.414 -20.205  0.00  0.00    -0.291 OA
ATOM      9  C   UNL     1      33.047  -7.434 -21.246  0.00  0.00    +0.172 C 
BRANCH   9  11
ATOM     10  F   UNL     1      35.218  -5.345 -25.947  0.00  0.00    -0.204 F 
ATOM     11  C   UNL     1      33.627  -6.877 -22.501  0.00  0.00    +0.035 C 
ATOM     12  C   UNL     1      34.878  -7.295 -22.895  0.00  0.00    +0.005 C 
ATOM     13  C   UNL     1      32.889  -5.963 -23.221  0.00  0.00    +0.005 C 
ATOM     14  C   UNL     1      35.420  -6.773 -24.069  0.00  0.00    +0.030 C 
ATOM     15  C   UNL     1      33.431  -5.441 -24.395  0.00  0.00    +0.030 C 
ATOM     16  C   UNL     1      34.697  -5.846 -24.820  0.00  0.00    +0.140 C 
ENDBRANCH   9  11
ENDBRANCH   2   9
BRANCH   1  17
ATOM     17  C   UNL     1      32.304 -12.284 -21.499  0.00  0.00    -0.052 C 
BRANCH  17  18
ATOM     18  C   UNL     1      33.441 -12.299 -22.509  0.00  0.00    +0.091 C 
BRANCH  18  21
ATOM     19  O   UNL     1      34.335 -14.098 -20.598  0.00  0.00    -0.267 OA
ATOM     20  O   UNL     1      33.352 -13.358 -25.109  0.00  0.00    -0.246 OA
ATOM     21  N   UNL     1      33.829 -13.644 -22.836  0.00  0.00    -0.251 N 
ATOM     22  N   UNL     1      34.136 -15.385 -24.433  0.00  0.00    -0.306 N 
ATOM     23  C   UNL     1      34.271 -14.466 -21.769  0.00  0.00    +0.265 A 
ATOM     24  C   UNL     1      33.746 -14.079 -24.187  0.00  0.00    +0.330 A 
ATOM     25  C   UNL     1      34.668 -15.845 -22.118  0.00  0.00    +0.072 A 
ATOM     26  C   UNL     1      34.588 -16.262 -23.443  0.00  0.00    +0.065 A 
ATOM     27  C   UNL     1      35.121 -16.727 -21.132  0.00  0.00    +0.006 C 
ATOM     28  C   UNL     1      34.961 -17.562 -23.793  0.00  0.00    +0.017 C 
ATOM     29  C   UNL     1      35.494 -18.026 -21.482  0.00  0.00    +0.000 C 
ATOM     30  C   UNL     1      35.413 -18.443 -22.811  0.00  0.00    +0.001 C 
ATOM     31  H   UNL     1      34.091 -15.716 -25.359  0.00  0.00    +0.170 HD
ENDBRANCH  18  21
ENDBRANCH  17  18
ENDBRANCH   1  17
TORSDOF 5
ENDMDL
MODEL 5
REMARK VINA RESULT:     -10.5      5.813      9.422
REMARK  Name = 3822
REMARK  5 active torsions:
REMARK  status: ('A' for Active; 'I' for Inactive)
REMARK    1  A    between atoms: N_1  and  C_17
REMARK    2  A    between atoms: C_2  and  C_9
REMARK    3  A    between atoms: C_9  and  C_11
REMARK    4  A    between atoms: C_17  and  C_18
REMARK    5  A    between atoms: C_18  and  N_21
REMARK                            x       y       z     vdW  Elec       q    Type
REMARK                         _______ _______ _______ _____ _____    ______ ____
ROOT
ATOM      1  N   UNL     1      31.932 -12.419 -20.696  0.00  0.00    +0.388 N 
ATOM      2  C   UNL     1      31.072  -9.611 -20.667  0.00  0.00    +0.058 C 
ATOM      3  C   UNL     1      31.231 -10.408 -21.962  0.00  0.00    -0.015 C 
ATOM      4  C   UNL     1      30.919 -10.532 -19.458  0.00  0.00    -0.015 C 
ATOM      5  C   UNL     1      32.243 -11.551 -21.839  0.00  0.00    -0.077 C 
ATOM      6  C   UNL     1      31.955 -11.660 -19.440  0.00  0.00    -0.077 C 
ATOM      7  H   UNL     1      30.991 -12.790 -20.826  0.00  0.00    -0.080 HD
ENDROOT
BRANCH   2   9
ATOM      8  O   UNL     1      32.885  -8.700 -19.427  0.00  0.00    -0.291 OA
ATOM      9  C   UNL     1      32.225  -8.671 -20.462  0.00  0.00    +0.172 C 
BRANCH   9  11
ATOM     10  F   UNL     1      33.496  -5.016 -24.487  0.00  0.00    -0.204 F 
ATOM     11  C   UNL     1      32.564  -7.696 -21.537  0.00  0.00    +0.035 C 
ATOM     12  C   UNL     1      31.602  -6.798 -21.943  0.00  0.00    +0.005 C 
ATOM     13  C   UNL     1      33.828  -7.727 -22.083  0.00  0.00    +0.005 C 
ATOM     14  C   UNL     1      31.920  -5.885 -22.949  0.00  0.00    +0.030 C 
ATOM     15  C   UNL     1      34.146  -6.814 -23.089  0.00  0.00    +0.030 C 
ATOM     16  C   UNL     1      33.192  -5.893 -23.522  0.00  0.00    +0.140 C 
ENDBRANCH   9  11
ENDBRANCH   2   9
BRANCH   1  17
ATOM     17  C   UNL     1      32.873 -13.538 -20.634  0.00  0.00    -0.052 C 
BRANCH  17  18
ATOM     18  C   UNL     1      33.894 -13.433 -21.757  0.00  0.00    +0.091 C 
BRANCH  18  21
ATOM     19  O   UNL     1      34.660 -15.599 -20.206  0.00  0.00    -0.267 OA
ATOM     20  O   UNL     1      33.723 -14.007 -24.501  0.00  0.00    -0.246 OA
ATOM     21  N   UNL     1      34.183 -14.723 -22.321  0.00  0.00    -0.251 N 
ATOM     22  N   UNL     1      34.359 -16.172 -24.204  0.00  0.00    -0.306 N 
ATOM     23  C   UNL     1      34.567 -15.750 -21.422  0.00  0.00    +0.265 A 
ATOM     24  C   UNL     1      34.065 -14.905 -23.726  0.00  0.00    +0.330 A 
ATOM     25  C   UNL     1      34.862 -17.069 -22.014  0.00  0.00    +0.072 A 
ATOM     26  C   UNL     1      34.749 -17.239 -23.390  0.00  0.00    +0.065 A 
ATOM     27  C   UNL     1      35.253 -18.141 -21.206  0.00  0.00    +0.006 C 
ATOM     28  C   UNL     1      35.025 -18.481 -23.969  0.00  0.00    +0.017 C 
ATOM     29  C   UNL     1      35.529 -19.382 -21.784  0.00  0.00    +0.000 C 
ATOM     30  C   UNL     1      35.415 -19.551 -23.164  0.00  0.00    +0.001 C 
ATOM     31  H   UNL     1      34.288 -16.330 -25.173  0.00  0.00    +0.170 HD
ENDBRANCH  18  21
ENDBRANCH  17  18
ENDBRANCH   1  17
TORSDOF 5
ENDMDL
MODEL 6
REMARK VINA RESULT:     -10.5      3.967      9.170
REMARK  Name = 3822
REMARK  5 active torsions:
REMARK  status: ('A' for Active; 'I' for Inactive)
REMARK    1  A    between atoms: N_1  and  C_17
REMARK    2  A    between atoms: C_2  and  C_9
REMARK    3  A    between atoms: C_9  and  C_11
REMARK    4  A    between atoms: C_17  and  C_18
REMARK    5  A    between atoms: C_18  and  N_21
REMARK                            x       y       z     vdW  Elec       q    Type
REMARK                         _______ _______ _______ _____ _____    ______ ____
ROOT
ATOM      1  N   UNL     1      33.352 -23.275 -14.038  0.00  0.00    +0.388 N 
ATOM      2  C   UNL     1      30.753 -24.452 -13.338  0.00  0.00    +0.058 C 
ATOM      3  C   UNL     1      32.072 -25.200 -13.145  0.00  0.00    -0.015 C 
ATOM      4  C   UNL     1      30.975 -22.944 -13.439  0.00  0.00    -0.015 C 
ATOM      5  C   UNL     1      33.171 -24.731 -14.103  0.00  0.00    -0.077 C 
ATOM      6  C   UNL     1      32.112 -22.576 -14.396  0.00  0.00    -0.077 C 
ATOM      7  H   UNL     1      33.589 -23.028 -13.077  0.00  0.00    -0.080 HD
ENDROOT
BRANCH   2   9
ATOM      8  O   UNL     1      30.219 -26.080 -14.987  0.00  0.00    -0.291 OA
ATOM      9  C   UNL     1      30.018 -24.951 -14.548  0.00  0.00    +0.172 C 
BRANCH   9  11
ATOM     10  F   UNL     1      26.321 -21.596 -17.049  0.00  0.00    -0.204 F 
ATOM     11  C   UNL     1      29.031 -24.055 -15.216  0.00  0.00    +0.035 C 
ATOM     12  C   UNL     1      28.850 -24.168 -16.576  0.00  0.00    +0.005 C 
ATOM     13  C   UNL     1      28.336 -23.149 -14.446  0.00  0.00    +0.005 C 
ATOM     14  C   UNL     1      27.927 -23.330 -17.201  0.00  0.00    +0.030 C 
ATOM     15  C   UNL     1      27.412 -22.310 -15.071  0.00  0.00    +0.030 C 
ATOM     16  C   UNL     1      27.208 -22.401 -16.448  0.00  0.00    +0.140 C 
ENDBRANCH   9  11
ENDBRANCH   2   9
BRANCH   1  17
ATOM     17  C   UNL     1      34.446 -22.857 -14.915  0.00  0.00    -0.052 C 
BRANCH  17  18
ATOM     18  C   UNL     1      34.422 -23.657 -16.209  0.00  0.00    +0.091 C 
BRANCH  18  21
ATOM     19  O   UNL     1      36.593 -22.437 -17.427  0.00  0.00    -0.267 OA
ATOM     20  O   UNL     1      31.960 -23.065 -17.425  0.00  0.00    -0.246 OA
ATOM     21  N   UNL     1      34.284 -22.795 -17.351  0.00  0.00    -0.251 N 
ATOM     22  N   UNL     1      32.926 -21.721 -18.988  0.00  0.00    -0.306 N 
ATOM     23  C   UNL     1      35.470 -22.230 -17.881  0.00  0.00    +0.265 A 
ATOM     24  C   UNL     1      32.988 -22.562 -17.888  0.00  0.00    +0.330 A 
ATOM     25  C   UNL     1      35.315 -21.346 -19.053  0.00  0.00    +0.072 A 
ATOM     26  C   UNL     1      34.043 -21.118 -19.571  0.00  0.00    +0.065 A 
ATOM     27  C   UNL     1      36.429 -20.740 -19.642  0.00  0.00    +0.006 C 
ATOM     28  C   UNL     1      33.876 -20.284 -20.679  0.00  0.00    +0.017 C 
ATOM     29  C   UNL     1      36.261 -19.906 -20.749  0.00  0.00    +0.000 C 
ATOM     30  C   UNL     1      34.986 -19.679 -21.267  0.00  0.00    +0.001 C 
ATOM     31  H   UNL     1      32.042 -21.539 -19.382  0.00  0.00    +0.170 HD
ENDBRANCH  18  21
ENDBRANCH  17  18
ENDBRANCH   1  17
TORSDOF 5
ENDMDL
MODEL 7
REMARK VINA RESULT:     -10.4      6.888     10.954
REMARK  Name = 3822
REMARK  5 active torsions:
REMARK  status: ('A' for Active; 'I' for Inactive)
REMARK    1  A    between atoms: N_1  and  C_17
REMARK    2  A    between atoms: C_2  and  C_9
REMARK    3  A    between atoms: C_9  and  C_11
REMARK    4  A    between atoms: C_17  and  C_18
REMARK    5  A    between atoms: C_18  and  N_21
REMARK                            x       y       z     vdW  Elec       q    Type
REMARK                         _______ _______ _______ _____ _____    ______ ____
ROOT
ATOM      1  N   UNL     1      34.176 -10.089 -23.198  0.00  0.00    +0.388 N 
ATOM      2  C   UNL     1      33.266  -7.359 -22.608  0.00  0.00    +0.058 C 
ATOM      3  C   UNL     1      32.733  -8.582 -21.861  0.00  0.00    -0.015 C 
ATOM      4  C   UNL     1      34.606  -7.654 -23.280  0.00  0.00    -0.015 C 
ATOM      5  C   UNL     1      32.816  -9.869 -22.687  0.00  0.00    -0.077 C 
ATOM      6  C   UNL     1      34.600  -8.975 -24.054  0.00  0.00    -0.077 C 
ATOM      7  H   UNL     1      34.811 -10.136 -22.401  0.00  0.00    -0.080 HD
ENDROOT
BRANCH   2   9
ATOM      8  O   UNL     1      31.264  -7.513 -23.882  0.00  0.00    -0.291 OA
ATOM      9  C   UNL     1      32.274  -6.865 -23.620  0.00  0.00    +0.172 C 
BRANCH   9  11
ATOM     10  F   UNL     1      33.228  -2.010 -26.207  0.00  0.00    -0.204 F 
ATOM     11  C   UNL     1      32.529  -5.569 -24.311  0.00  0.00    +0.035 C 
ATOM     12  C   UNL     1      33.315  -5.565 -25.441  0.00  0.00    +0.005 C 
ATOM     13  C   UNL     1      31.967  -4.423 -23.793  0.00  0.00    +0.005 C 
ATOM     14  C   UNL     1      33.553  -4.352 -26.088  0.00  0.00    +0.030 C 
ATOM     15  C   UNL     1      32.206  -3.210 -24.439  0.00  0.00    +0.030 C 
ATOM     16  C   UNL     1      32.999  -3.174 -25.586  0.00  0.00    +0.140 C 
ENDBRANCH   9  11
ENDBRANCH   2   9
BRANCH   1  17
ATOM     17  C   UNL     1      34.248 -11.353 -23.931  0.00  0.00    -0.052 C 
BRANCH  17  18
ATOM     18  C   UNL     1      33.205 -12.328 -23.406  0.00  0.00    +0.091 C 
BRANCH  18  21
ATOM     19  O   UNL     1      33.986 -13.764 -21.166  0.00  0.00    -0.267 OA
ATOM     20  O   UNL     1      33.402 -13.775 -25.805  0.00  0.00    -0.246 OA
ATOM     21  N   UNL     1      33.675 -13.685 -23.482  0.00  0.00    -0.251 N 
ATOM     22  N   UNL     1      34.199 -15.630 -24.754  0.00  0.00    -0.306 N 
ATOM     23  C   UNL     1      34.047 -14.309 -22.266  0.00  0.00    +0.265 A 
ATOM     24  C   UNL     1      33.736 -14.324 -24.751  0.00  0.00    +0.330 A 
ATOM     25  C   UNL     1      34.530 -15.701 -22.358  0.00  0.00    +0.072 A 
ATOM     26  C   UNL     1      34.591 -16.319 -23.603  0.00  0.00    +0.065 A 
ATOM     27  C   UNL     1      34.923 -16.397 -21.211  0.00  0.00    +0.006 C 
ATOM     28  C   UNL     1      35.046 -17.637 -23.712  0.00  0.00    +0.017 C 
ATOM     29  C   UNL     1      35.378 -17.713 -21.319  0.00  0.00    +0.000 C 
ATOM     30  C   UNL     1      35.438 -18.331 -22.568  0.00  0.00    +0.001 C 
ATOM     31  H   UNL     1      34.254 -16.100 -25.618  0.00  0.00    +0.170 HD
ENDBRANCH  18  21
ENDBRANCH  17  18
ENDBRANCH   1  17
TORSDOF 5
ENDMDL
MODEL 8
REMARK VINA RESULT:     -10.4      6.883     10.893
REMARK  Name = 3822
REMARK  5 active torsions:
REMARK  status: ('A' for Active; 'I' for Inactive)
REMARK    1  A    between atoms: N_1  and  C_17
REMARK    2  A    between atoms: C_2  and  C_9
REMARK    3  A    between atoms: C_9  and  C_11
REMARK    4  A    between atoms: C_17  and  C_18
REMARK    5  A    between atoms: C_18  and  N_21
REMARK                            x       y       z     vdW  Elec       q    Type
REMARK                         _______ _______ _______ _____ _____    ______ ____
ROOT
ATOM      1  N   UNL     1      31.659  -9.380 -21.090  0.00  0.00    +0.388 N 
ATOM      2  C   UNL     1      32.204  -6.750 -22.279  0.00  0.00    +0.058 C 
ATOM      3  C   UNL     1      31.389  -7.823 -22.999  0.00  0.00    -0.015 C 
ATOM      4  C   UNL     1      32.252  -6.999 -20.772  0.00  0.00    -0.015 C 
ATOM      5  C   UNL     1      31.742  -9.244 -22.551  0.00  0.00    -0.077 C 
ATOM      6  C   UNL     1      32.582  -8.453 -20.424  0.00  0.00    -0.077 C 
ATOM      7  H   UNL     1      30.709  -9.143 -20.803  0.00  0.00    -0.080 HD
ENDROOT
BRANCH   2   9
ATOM      8  O   UNL     1      34.534  -7.230 -22.280  0.00  0.00    -0.291 OA
ATOM      9  C   UNL     1      33.596  -6.662 -22.835  0.00  0.00    +0.172 C 
BRANCH   9  11
ATOM     10  F   UNL     1      34.472  -3.701 -27.487  0.00  0.00    -0.204 F 
ATOM     11  C   UNL     1      33.831  -5.871 -24.076  0.00  0.00    +0.035 C 
ATOM     12  C   UNL     1      34.992  -6.081 -24.785  0.00  0.00    +0.005 C 
ATOM     13  C   UNL     1      32.875  -4.960 -24.469  0.00  0.00    +0.005 C 
ATOM     14  C   UNL     1      35.211  -5.342 -25.947  0.00  0.00    +0.030 C 
ATOM     15  C   UNL     1      33.094  -4.220 -25.632  0.00  0.00    +0.030 C 
ATOM     16  C   UNL     1      34.262  -4.411 -26.371  0.00  0.00    +0.140 C 
ENDBRANCH   9  11
ENDBRANCH   2   9
BRANCH   1  17
ATOM     17  C   UNL     1      31.941 -10.759 -20.689  0.00  0.00    -0.052 C 
BRANCH  17  18
ATOM     18  C   UNL     1      31.825 -11.692 -21.885  0.00  0.00    +0.091 C 
BRANCH  18  21
ATOM     19  O   UNL     1      33.259 -12.971 -23.884  0.00  0.00    -0.267 OA
ATOM     20  O   UNL     1      31.922 -13.004 -19.404  0.00  0.00    -0.246 OA
ATOM     21  N   UNL     1      32.539 -12.918 -21.659  0.00  0.00    -0.251 N 
ATOM     22  N   UNL     1      33.229 -14.682 -20.213  0.00  0.00    -0.306 N 
ATOM     23  C   UNL     1      33.232 -13.475 -22.763  0.00  0.00    +0.265 A 
ATOM     24  C   UNL     1      32.522 -13.500 -20.362  0.00  0.00    +0.330 A 
ATOM     25  C   UNL     1      33.960 -14.736 -22.519  0.00  0.00    +0.072 A 
ATOM     26  C   UNL     1      33.935 -15.301 -21.248  0.00  0.00    +0.065 A 
ATOM     27  C   UNL     1      34.669 -15.361 -23.550  0.00  0.00    +0.006 C 
ATOM     28  C   UNL     1      34.617 -16.495 -20.997  0.00  0.00    +0.017 C 
ATOM     29  C   UNL     1      35.350 -16.554 -23.299  0.00  0.00    +0.000 C 
ATOM     30  C   UNL     1      35.324 -17.119 -22.024  0.00  0.00    +0.001 C 
ATOM     31  H   UNL     1      33.235 -15.110 -19.327  0.00  0.00    +0.170 HD
ENDBRANCH  18  21
ENDBRANCH  17  18
ENDBRANCH   1  17
TORSDOF 5
ENDMDL
MODEL 9
REMARK VINA RESULT:     -10.3      7.112     11.141
REMARK  Name = 3822
REMARK  5 active torsions:
REMARK  status: ('A' for Active; 'I' for Inactive)
REMARK    1  A    between atoms: N_1  and  C_17
REMARK    2  A    between atoms: C_2  and  C_9
REMARK    3  A    between atoms: C_9  and  C_11
REMARK    4  A    between atoms: C_17  and  C_18
REMARK    5  A    between atoms: C_18  and  N_21
REMARK                            x       y       z     vdW  Elec       q    Type
REMARK                         _______ _______ _______ _____ _____    ______ ____
ROOT
ATOM      1  N   UNL     1      31.823  -9.380 -20.910  0.00  0.00    +0.388 N 
ATOM      2  C   UNL     1      31.914  -6.701 -22.109  0.00  0.00    +0.058 C 
ATOM      3  C   UNL     1      31.159  -7.863 -22.753  0.00  0.00    -0.015 C 
ATOM      4  C   UNL     1      32.156  -6.946 -20.621  0.00  0.00    -0.015 C 
ATOM      5  C   UNL     1      31.728  -9.232 -22.368  0.00  0.00    -0.077 C 
ATOM      6  C   UNL     1      32.695  -8.350 -20.334  0.00  0.00    -0.077 C 
ATOM      7  H   UNL     1      30.889  -9.261 -20.517  0.00  0.00    -0.080 HD
ENDROOT
BRANCH   2   9
ATOM      8  O   UNL     1      34.259  -6.956 -22.415  0.00  0.00    -0.291 OA
ATOM      9  C   UNL     1      33.215  -6.443 -22.812  0.00  0.00    +0.172 C 
BRANCH   9  11
ATOM     10  F   UNL     1      33.264  -3.102 -27.285  0.00  0.00    -0.204 F 
ATOM     11  C   UNL     1      33.229  -5.551 -24.006  0.00  0.00    +0.035 C 
ATOM     12  C   UNL     1      34.179  -5.763 -24.980  0.00  0.00    +0.005 C 
ATOM     13  C   UNL     1      32.289  -4.548 -24.091  0.00  0.00    +0.005 C 
ATOM     14  C   UNL     1      34.191  -4.929 -26.097  0.00  0.00    +0.030 C 
ATOM     15  C   UNL     1      32.301  -3.713 -25.209  0.00  0.00    +0.030 C 
ATOM     16  C   UNL     1      33.252  -3.903 -26.212  0.00  0.00    +0.140 C 
ENDBRANCH   9  11
ENDBRANCH   2   9
BRANCH   1  17
ATOM     17  C   UNL     1      32.310 -10.716 -20.563  0.00  0.00    -0.052 C 
BRANCH  17  18
ATOM     18  C   UNL     1      31.650 -11.765 -21.445  0.00  0.00    +0.091 C 
BRANCH  18  21
ATOM     19  O   UNL     1      32.112 -14.068 -19.972  0.00  0.00    -0.267 OA
ATOM     20  O   UNL     1      33.175 -11.599 -23.797  0.00  0.00    -0.246 OA
ATOM     21  N   UNL     1      32.594 -12.768 -21.855  0.00  0.00    -0.251 N 
ATOM     22  N   UNL     1      34.209 -13.588 -23.403  0.00  0.00    -0.306 N 
ATOM     23  C   UNL     1      32.741 -13.900 -21.015  0.00  0.00    +0.265 A 
ATOM     24  C   UNL     1      33.315 -12.584 -23.067  0.00  0.00    +0.330 A 
ATOM     25  C   UNL     1      33.715 -14.922 -21.446  0.00  0.00    +0.072 A 
ATOM     26  C   UNL     1      34.420 -14.733 -22.631  0.00  0.00    +0.065 A 
ATOM     27  C   UNL     1      33.930 -16.070 -20.679  0.00  0.00    +0.006 C 
ATOM     28  C   UNL     1      35.347 -15.689 -23.056  0.00  0.00    +0.017 C 
ATOM     29  C   UNL     1      34.856 -17.025 -21.104  0.00  0.00    +0.000 C 
ATOM     30  C   UNL     1      35.562 -16.834 -22.291  0.00  0.00    +0.001 C 
ATOM     31  H   UNL     1      34.725 -13.488 -24.236  0.00  0.00    +0.170 HD
ENDBRANCH  18  21
ENDBRANCH  17  18
ENDBRANCH   1  17
TORSDOF 5
ENDMDL
