MODEL 1
REMARK VINA RESULT:     -11.8      0.000      0.000
REMARK  Name = 9969613
REMARK  5 active torsions:
REMARK  status: ('A' for Active; 'I' for Inactive)
REMARK    1  A    between atoms: C_3  and  O_7
REMARK    2  A    between atoms: C_4  and  O_17
REMARK    3  A    between atoms: O_7  and  C_13
REMARK    4  A    between atoms: O_17  and  C_21
REMARK    5  A    between atoms: C_18  and  N_24
REMARK                            x       y       z     vdW  Elec       q    Type
REMARK                         _______ _______ _______ _____ _____    ______ ____
ROOT
ATOM      1  N   UNL     1      34.544 -23.157 -16.532  0.00  0.00    -0.283 NA
ATOM      2  N   UNL     1      32.194 -23.143 -17.071  0.00  0.00    -0.151 NA
ATOM      3  C   UNL     1      34.196 -23.059 -15.239  0.00  0.00    +0.296 C 
ATOM      4  C   UNL     1      33.503 -23.194 -17.387  0.00  0.00    +0.260 C 
ATOM      5  C   UNL     1      32.905 -22.999 -14.776  0.00  0.00    +0.094 C 
ATOM      6  C   UNL     1      31.930 -23.045 -15.751  0.00  0.00    +0.119 C 
ENDROOT
BRANCH   3   7
ATOM      7  O   UNL     1      35.233 -23.018 -14.322  0.00  0.00    -0.427 OA
BRANCH   7  13
ATOM      8  O   UNL     1      39.769 -24.650 -14.195  0.00  0.00    -0.435 OA
ATOM      9  O   UNL     1      39.047 -26.930 -14.488  0.00  0.00    -0.435 OA
ATOM     10  C   UNL     1      38.416 -24.755 -14.297  0.00  0.00    +0.179 C 
ATOM     11  C   UNL     1      38.003 -26.057 -14.463  0.00  0.00    +0.177 C 
ATOM     12  C   UNL     1      37.516 -23.710 -14.245  0.00  0.00    +0.078 C 
ATOM     13  C   UNL     1      36.158 -24.016 -14.368  0.00  0.00    +0.151 C 
ATOM     14  C   UNL     1      36.669 -26.386 -14.588  0.00  0.00    +0.043 C 
ATOM     15  C   UNL     1      40.162 -26.031 -14.317  0.00  0.00    +0.429 C 
ATOM     16  C   UNL     1      35.737 -25.346 -14.539  0.00  0.00    +0.041 C 
ENDBRANCH   7  13
ENDBRANCH   3   7
BRANCH   4  17
ATOM     17  O   UNL     1      33.809 -23.295 -18.724  0.00  0.00    -0.383 OA
BRANCH  17  21
ATOM     18  C   UNL     1      34.619 -19.765 -20.752  0.00  0.00    +0.057 C 
ATOM     19  C   UNL     1      35.666 -20.587 -20.337  0.00  0.00    +0.018 C 
ATOM     20  C   UNL     1      33.298 -20.130 -20.486  0.00  0.00    +0.018 C 
ATOM     21  C   UNL     1      34.078 -22.123 -19.398  0.00  0.00    +0.160 C 
ATOM     22  C   UNL     1      35.394 -21.773 -19.655  0.00  0.00    +0.040 C 
ATOM     23  C   UNL     1      33.027 -21.316 -19.805  0.00  0.00    +0.040 C 
BRANCH  18  24
ATOM     24  N   UNL     1      34.888 -18.589 -21.428  0.00  0.00    -0.246 N 
ATOM     25  N   UNL     1      35.222 -16.415 -21.788  0.00  0.00    -0.224 NA
ATOM     26  C   UNL     1      35.156 -18.459 -22.767  0.00  0.00    +0.092 C 
ATOM     27  C   UNL     1      34.940 -17.330 -20.887  0.00  0.00    +0.172 C 
ATOM     28  C   UNL     1      35.358 -17.112 -22.962  0.00  0.00    +0.117 C 
ENDBRANCH  18  24
ENDBRANCH  17  21
ENDBRANCH   4  17
TORSDOF 5
ENDMDL
MODEL 2
REMARK VINA RESULT:     -11.3      2.747      5.364
REMARK  Name = 9969613
REMARK  5 active torsions:
REMARK  status: ('A' for Active; 'I' for Inactive)
REMARK    1  A    between atoms: C_3  and  O_7
REMARK    2  A    between atoms: C_4  and  O_17
REMARK    3  A    between atoms: O_7  and  C_13
REMARK    4  A    between atoms: O_17  and  C_21
REMARK    5  A    between atoms: C_18  and  N_24
REMARK                            x       y       z     vdW  Elec       q    Type
REMARK                         _______ _______ _______ _____ _____    ______ ____
ROOT
ATOM      1  N   UNL     1      33.424 -23.475 -16.224  0.00  0.00    -0.283 NA
ATOM      2  N   UNL     1      35.629 -22.622 -16.693  0.00  0.00    -0.151 NA
ATOM      3  C   UNL     1      33.703 -23.334 -14.918  0.00  0.00    +0.296 C 
ATOM      4  C   UNL     1      34.423 -23.104 -17.049  0.00  0.00    +0.260 C 
ATOM      5  C   UNL     1      34.888 -22.857 -14.415  0.00  0.00    +0.094 C 
ATOM      6  C   UNL     1      35.829 -22.511 -15.362  0.00  0.00    +0.119 C 
ENDROOT
BRANCH   3   7
ATOM      7  O   UNL     1      32.706 -23.704 -14.031  0.00  0.00    -0.427 OA
BRANCH   7  13
ATOM      8  O   UNL     1      28.949 -22.084 -16.583  0.00  0.00    -0.435 OA
ATOM      9  O   UNL     1      27.631 -24.025 -16.036  0.00  0.00    -0.435 OA
ATOM     10  C   UNL     1      29.623 -22.959 -15.789  0.00  0.00    +0.179 C 
ATOM     11  C   UNL     1      28.871 -24.069 -15.477  0.00  0.00    +0.177 C 
ATOM     12  C   UNL     1      30.912 -22.803 -15.322  0.00  0.00    +0.078 C 
ATOM     13  C   UNL     1      31.438 -23.815 -14.514  0.00  0.00    +0.151 C 
ATOM     14  C   UNL     1      29.366 -25.082 -14.680  0.00  0.00    +0.043 C 
ATOM     15  C   UNL     1      27.688 -22.765 -16.736  0.00  0.00    +0.429 C 
ATOM     16  C   UNL     1      30.669 -24.947 -14.195  0.00  0.00    +0.041 C 
ENDBRANCH   7  13
ENDBRANCH   3   7
BRANCH   4  17
ATOM     17  O   UNL     1      34.184 -23.229 -18.397  0.00  0.00    -0.383 OA
BRANCH  17  21
ATOM     18  C   UNL     1      34.747 -19.849 -20.741  0.00  0.00    +0.057 C 
ATOM     19  C   UNL     1      35.840 -20.635 -20.377  0.00  0.00    +0.018 C 
ATOM     20  C   UNL     1      33.464 -20.199 -20.318  0.00  0.00    +0.018 C 
ATOM     21  C   UNL     1      34.371 -22.107 -19.176  0.00  0.00    +0.160 C 
ATOM     22  C   UNL     1      35.650 -21.771 -19.590  0.00  0.00    +0.040 C 
ATOM     23  C   UNL     1      33.275 -21.335 -19.530  0.00  0.00    +0.040 C 
BRANCH  18  24
ATOM     24  N   UNL     1      34.934 -18.724 -21.522  0.00  0.00    -0.246 N 
ATOM     25  N   UNL     1      35.194 -16.578 -22.068  0.00  0.00    -0.224 NA
ATOM     26  C   UNL     1      35.082 -18.690 -22.885  0.00  0.00    +0.092 C 
ATOM     27  C   UNL     1      35.009 -17.427 -21.081  0.00  0.00    +0.172 C 
ATOM     28  C   UNL     1      35.240 -17.359 -23.196  0.00  0.00    +0.117 C 
ENDBRANCH  18  24
ENDBRANCH  17  21
ENDBRANCH   4  17
TORSDOF 5
ENDMDL
MODEL 3
REMARK VINA RESULT:     -11.2      4.218      7.979
REMARK  Name = 9969613
REMARK  5 active torsions:
REMARK  status: ('A' for Active; 'I' for Inactive)
REMARK    1  A    between atoms: C_3  and  O_7
REMARK    2  A    between atoms: C_4  and  O_17
REMARK    3  A    between atoms: O_7  and  C_13
REMARK    4  A    between atoms: O_17  and  C_21
REMARK    5  A    between atoms: C_18  and  N_24
REMARK                            x       y       z     vdW  Elec       q    Type
REMARK                         _______ _______ _______ _____ _____    ______ ____
ROOT
ATOM      1  N   UNL     1      35.853 -17.553 -22.332  0.00  0.00    -0.283 NA
ATOM      2  N   UNL     1      34.715 -17.459 -24.455  0.00  0.00    -0.151 NA
ATOM      3  C   UNL     1      35.618 -18.874 -22.322  0.00  0.00    +0.296 C 
ATOM      4  C   UNL     1      35.378 -16.912 -23.418  0.00  0.00    +0.260 C 
ATOM      5  C   UNL     1      34.957 -19.562 -23.308  0.00  0.00    +0.094 C 
ATOM      6  C   UNL     1      34.520 -18.793 -24.367  0.00  0.00    +0.119 C 
ENDROOT
BRANCH   3   7
ATOM      7  O   UNL     1      36.088 -19.576 -21.224  0.00  0.00    -0.427 OA
BRANCH   7  13
ATOM      8  O   UNL     1      34.896 -22.869 -17.909  0.00  0.00    -0.435 OA
ATOM      9  O   UNL     1      32.547 -22.394 -18.157  0.00  0.00    -0.435 OA
ATOM     10  C   UNL     1      34.660 -21.899 -18.833  0.00  0.00    +0.179 C 
ATOM     11  C   UNL     1      33.318 -21.626 -18.974  0.00  0.00    +0.177 C 
ATOM     12  C   UNL     1      35.617 -21.232 -19.570  0.00  0.00    +0.078 C 
ATOM     13  C   UNL     1      35.180 -20.261 -20.475  0.00  0.00    +0.151 C 
ATOM     14  C   UNL     1      32.860 -20.672 -19.861  0.00  0.00    +0.043 C 
ATOM     15  C   UNL     1      33.553 -23.178 -17.485  0.00  0.00    +0.429 C 
ATOM     16  C   UNL     1      33.810 -19.983 -20.620  0.00  0.00    +0.041 C 
ENDBRANCH   7  13
ENDBRANCH   3   7
BRANCH   4  17
ATOM     17  O   UNL     1      35.595 -15.555 -23.475  0.00  0.00    -0.383 OA
BRANCH  17  21
ATOM     18  C   UNL     1      32.906 -13.121 -21.456  0.00  0.00    +0.057 C 
ATOM     19  C   UNL     1      33.268 -12.821 -22.769  0.00  0.00    +0.018 C 
ATOM     20  C   UNL     1      33.447 -14.240 -20.821  0.00  0.00    +0.018 C 
ATOM     21  C   UNL     1      34.702 -14.747 -22.804  0.00  0.00    +0.160 C 
ATOM     22  C   UNL     1      34.172 -13.640 -23.447  0.00  0.00    +0.040 C 
ATOM     23  C   UNL     1      34.350 -15.058 -21.500  0.00  0.00    +0.040 C 
BRANCH  18  24
ATOM     24  N   UNL     1      32.010 -12.311 -20.784  0.00  0.00    -0.246 N 
ATOM     25  N   UNL     1      31.019 -11.238 -19.099  0.00  0.00    -0.224 NA
ATOM     26  C   UNL     1      30.968 -11.610 -21.335  0.00  0.00    +0.092 C 
ATOM     27  C   UNL     1      31.996 -12.052 -19.436  0.00  0.00    +0.172 C 
ATOM     28  C   UNL     1      30.374 -10.959 -20.279  0.00  0.00    +0.117 C 
ENDBRANCH  18  24
ENDBRANCH  17  21
ENDBRANCH   4  17
TORSDOF 5
ENDMDL
MODEL 4
REMARK VINA RESULT:     -11.2      1.243      1.719
REMARK  Name = 9969613
REMARK  5 active torsions:
REMARK  status: ('A' for Active; 'I' for Inactive)
REMARK    1  A    between atoms: C_3  and  O_7
REMARK    2  A    between atoms: C_4  and  O_17
REMARK    3  A    between atoms: O_7  and  C_13
REMARK    4  A    between atoms: O_17  and  C_21
REMARK    5  A    between atoms: C_18  and  N_24
REMARK                            x       y       z     vdW  Elec       q    Type
REMARK                         _______ _______ _______ _____ _____    ______ ____
ROOT
ATOM      1  N   UNL     1      35.770 -22.451 -17.353  0.00  0.00    -0.283 NA
ATOM      2  N   UNL     1      33.796 -22.622 -18.726  0.00  0.00    -0.151 NA
ATOM      3  C   UNL     1      35.005 -22.784 -16.301  0.00  0.00    +0.296 C 
ATOM      4  C   UNL     1      35.107 -22.388 -18.525  0.00  0.00    +0.260 C 
ATOM      5  C   UNL     1      33.659 -23.049 -16.361  0.00  0.00    +0.094 C 
ATOM      6  C   UNL     1      33.099 -22.951 -17.618  0.00  0.00    +0.119 C 
ENDROOT
BRANCH   3   7
ATOM      7  O   UNL     1      35.642 -22.861 -15.074  0.00  0.00    -0.427 OA
BRANCH   7  13
ATOM      8  O   UNL     1      40.086 -24.660 -14.552  0.00  0.00    -0.435 OA
ATOM      9  O   UNL     1      39.240 -26.900 -14.286  0.00  0.00    -0.435 OA
ATOM     10  C   UNL     1      38.728 -24.712 -14.627  0.00  0.00    +0.179 C 
ATOM     11  C   UNL     1      38.244 -25.991 -14.473  0.00  0.00    +0.177 C 
ATOM     12  C   UNL     1      37.886 -23.638 -14.830  0.00  0.00    +0.078 C 
ATOM     13  C   UNL     1      36.512 -23.889 -14.876  0.00  0.00    +0.151 C 
ATOM     14  C   UNL     1      36.893 -26.267 -14.516  0.00  0.00    +0.043 C 
ATOM     15  C   UNL     1      40.403 -26.049 -14.336  0.00  0.00    +0.429 C 
ATOM     16  C   UNL     1      36.019 -25.196 -14.721  0.00  0.00    +0.041 C 
ENDBRANCH   7  13
ENDBRANCH   3   7
BRANCH   4  17
ATOM     17  O   UNL     1      35.849 -22.051 -19.633  0.00  0.00    -0.383 OA
BRANCH  17  21
ATOM     18  C   UNL     1      35.294 -18.245 -21.195  0.00  0.00    +0.057 C 
ATOM     19  C   UNL     1      36.574 -18.675 -20.844  0.00  0.00    +0.018 C 
ATOM     20  C   UNL     1      34.201 -19.094 -21.022  0.00  0.00    +0.018 C 
ATOM     21  C   UNL     1      35.664 -20.787 -20.152  0.00  0.00    +0.160 C 
ATOM     22  C   UNL     1      36.759 -19.954 -20.319  0.00  0.00    +0.040 C 
ATOM     23  C   UNL     1      34.387 -20.373 -20.497  0.00  0.00    +0.040 C 
BRANCH  18  24
ATOM     24  N   UNL     1      35.109 -16.978 -21.716  0.00  0.00    -0.246 N 
ATOM     25  N   UNL     1      35.079 -15.309 -23.193  0.00  0.00    -0.224 NA
ATOM     26  C   UNL     1      34.637 -15.879 -21.044  0.00  0.00    +0.092 C 
ATOM     27  C   UNL     1      35.359 -16.580 -23.005  0.00  0.00    +0.172 C 
ATOM     28  C   UNL     1      34.629 -14.866 -21.975  0.00  0.00    +0.117 C 
ENDBRANCH  18  24
ENDBRANCH  17  21
ENDBRANCH   4  17
TORSDOF 5
ENDMDL
MODEL 5
REMARK VINA RESULT:     -10.7      3.120      5.348
REMARK  Name = 9969613
REMARK  5 active torsions:
REMARK  status: ('A' for Active; 'I' for Inactive)
REMARK    1  A    between atoms: C_3  and  O_7
REMARK    2  A    between atoms: C_4  and  O_17
REMARK    3  A    between atoms: O_7  and  C_13
REMARK    4  A    between atoms: O_17  and  C_21
REMARK    5  A    between atoms: C_18  and  N_24
REMARK                            x       y       z     vdW  Elec       q    Type
REMARK                         _______ _______ _______ _____ _____    ______ ____
ROOT
ATOM      1  N   UNL     1      35.579 -21.002 -19.726  0.00  0.00    -0.283 NA
ATOM      2  N   UNL     1      33.820 -19.771 -20.822  0.00  0.00    -0.151 NA
ATOM      3  C   UNL     1      34.626 -21.745 -19.142  0.00  0.00    +0.296 C 
ATOM      4  C   UNL     1      35.110 -20.041 -20.546  0.00  0.00    +0.260 C 
ATOM      5  C   UNL     1      33.276 -21.582 -19.332  0.00  0.00    +0.094 C 
ATOM      6  C   UNL     1      32.925 -20.564 -20.195  0.00  0.00    +0.119 C 
ENDROOT
BRANCH   3   7
ATOM      7  O   UNL     1      35.060 -22.746 -18.289  0.00  0.00    -0.427 OA
BRANCH   7  13
ATOM      8  O   UNL     1      31.025 -23.576 -15.782  0.00  0.00    -0.435 OA
ATOM      9  O   UNL     1      32.206 -23.477 -13.684  0.00  0.00    -0.435 OA
ATOM     10  C   UNL     1      32.354 -23.336 -15.948  0.00  0.00    +0.179 C 
ATOM     11  C   UNL     1      33.029 -23.280 -14.750  0.00  0.00    +0.177 C 
ATOM     12  C   UNL     1      33.001 -23.162 -17.154  0.00  0.00    +0.078 C 
ATOM     13  C   UNL     1      34.378 -22.924 -17.124  0.00  0.00    +0.151 C 
ATOM     14  C   UNL     1      34.388 -23.046 -14.692  0.00  0.00    +0.043 C 
ATOM     15  C   UNL     1      30.938 -23.664 -14.346  0.00  0.00    +0.429 C 
ATOM     16  C   UNL     1      35.067 -22.865 -15.900  0.00  0.00    +0.041 C 
ENDBRANCH   7  13
ENDBRANCH   3   7
BRANCH   4  17
ATOM     17  O   UNL     1      36.050 -19.253 -21.169  0.00  0.00    -0.383 OA
BRANCH  17  21
ATOM     18  C   UNL     1      34.657 -15.988 -23.321  0.00  0.00    +0.057 C 
ATOM     19  C   UNL     1      34.950 -17.183 -23.978  0.00  0.00    +0.018 C 
ATOM     20  C   UNL     1      34.832 -15.890 -21.940  0.00  0.00    +0.018 C 
ATOM     21  C   UNL     1      35.587 -18.169 -21.884  0.00  0.00    +0.160 C 
ATOM     22  C   UNL     1      35.418 -18.280 -23.255  0.00  0.00    +0.040 C 
ATOM     23  C   UNL     1      35.300 -16.988 -21.217  0.00  0.00    +0.040 C 
BRANCH  18  24
ATOM     24  N   UNL     1      34.193 -14.900 -24.038  0.00  0.00    -0.246 N 
ATOM     25  N   UNL     1      33.688 -12.787 -24.535  0.00  0.00    -0.224 NA
ATOM     26  C   UNL     1      33.645 -14.923 -25.295  0.00  0.00    +0.092 C 
ATOM     27  C   UNL     1      34.195 -13.591 -23.627  0.00  0.00    +0.172 C 
ATOM     28  C   UNL     1      33.343 -13.611 -25.577  0.00  0.00    +0.117 C 
ENDBRANCH  18  24
ENDBRANCH  17  21
ENDBRANCH   4  17
TORSDOF 5
ENDMDL
MODEL 6
REMARK VINA RESULT:     -10.7      3.431      9.806
REMARK  Name = 9969613
REMARK  5 active torsions:
REMARK  status: ('A' for Active; 'I' for Inactive)
REMARK    1  A    between atoms: C_3  and  O_7
REMARK    2  A    between atoms: C_4  and  O_17
REMARK    3  A    between atoms: O_7  and  C_13
REMARK    4  A    between atoms: O_17  and  C_21
REMARK    5  A    between atoms: C_18  and  N_24
REMARK                            x       y       z     vdW  Elec       q    Type
REMARK                         _______ _______ _______ _____ _____    ______ ____
ROOT
ATOM      1  N   UNL     1      35.728 -20.693 -19.893  0.00  0.00    -0.283 NA
ATOM      2  N   UNL     1      33.498 -21.459 -19.395  0.00  0.00    -0.151 NA
ATOM      3  C   UNL     1      35.180 -19.811 -20.745  0.00  0.00    +0.296 C 
ATOM      4  C   UNL     1      34.838 -21.479 -19.257  0.00  0.00    +0.260 C 
ATOM      5  C   UNL     1      33.835 -19.682 -20.983  0.00  0.00    +0.094 C 
ATOM      6  C   UNL     1      33.028 -20.545 -20.270  0.00  0.00    +0.119 C 
ENDROOT
BRANCH   3   7
ATOM      7  O   UNL     1      36.058 -18.980 -21.422  0.00  0.00    -0.427 OA
BRANCH   7  13
ATOM      8  O   UNL     1      34.702 -16.718 -25.460  0.00  0.00    -0.435 OA
ATOM      9  O   UNL     1      33.968 -14.781 -24.230  0.00  0.00    -0.435 OA
ATOM     10  C   UNL     1      34.885 -16.858 -24.119  0.00  0.00    +0.179 C 
ATOM     11  C   UNL     1      34.465 -15.752 -23.415  0.00  0.00    +0.177 C 
ATOM     12  C   UNL     1      35.424 -17.958 -23.485  0.00  0.00    +0.078 C 
ATOM     13  C   UNL     1      35.532 -17.917 -22.092  0.00  0.00    +0.151 C 
ATOM     14  C   UNL     1      34.562 -15.685 -22.040  0.00  0.00    +0.043 C 
ATOM     15  C   UNL     1      34.121 -15.401 -25.523  0.00  0.00    +0.429 C 
ATOM     16  C   UNL     1      35.105 -16.787 -21.374  0.00  0.00    +0.041 C 
ENDBRANCH   7  13
ENDBRANCH   3   7
BRANCH   4  17
ATOM     17  O   UNL     1      35.351 -22.398 -18.373  0.00  0.00    -0.383 OA
BRANCH  17  21
ATOM     18  C   UNL     1      32.923 -23.543 -15.207  0.00  0.00    +0.057 C 
ATOM     19  C   UNL     1      34.267 -23.244 -14.983  0.00  0.00    +0.018 C 
ATOM     20  C   UNL     1      32.395 -23.457 -16.495  0.00  0.00    +0.018 C 
ATOM     21  C   UNL     1      34.544 -22.778 -17.322  0.00  0.00    +0.160 C 
ATOM     22  C   UNL     1      35.082 -22.860 -16.047  0.00  0.00    +0.040 C 
ATOM     23  C   UNL     1      33.211 -23.072 -17.559  0.00  0.00    +0.040 C 
BRANCH  18  24
ATOM     24  N   UNL     1      32.114 -23.924 -14.152  0.00  0.00    -0.246 N 
ATOM     25  N   UNL     1      30.930 -23.783 -12.269  0.00  0.00    -0.224 NA
ATOM     26  C   UNL     1      31.573 -25.168 -13.945  0.00  0.00    +0.092 C 
ATOM     27  C   UNL     1      31.695 -23.129 -13.116  0.00  0.00    +0.172 C 
ATOM     28  C   UNL     1      30.851 -25.054 -12.780  0.00  0.00    +0.117 C 
ENDBRANCH  18  24
ENDBRANCH  17  21
ENDBRANCH   4  17
TORSDOF 5
ENDMDL
MODEL 7
REMARK VINA RESULT:     -10.6      3.707     10.137
REMARK  Name = 9969613
REMARK  5 active torsions:
REMARK  status: ('A' for Active; 'I' for Inactive)
REMARK    1  A    between atoms: C_3  and  O_7
REMARK    2  A    between atoms: C_4  and  O_17
REMARK    3  A    between atoms: O_7  and  C_13
REMARK    4  A    between atoms: O_17  and  C_21
REMARK    5  A    between atoms: C_18  and  N_24
REMARK                            x       y       z     vdW  Elec       q    Type
REMARK                         _______ _______ _______ _____ _____    ______ ____
ROOT
ATOM      1  N   UNL     1      36.498 -19.710 -20.539  0.00  0.00    -0.283 NA
ATOM      2  N   UNL     1      34.543 -20.975 -19.915  0.00  0.00    -0.151 NA
ATOM      3  C   UNL     1      35.694 -18.929 -21.279  0.00  0.00    +0.296 C 
ATOM      4  C   UNL     1      35.863 -20.704 -19.889  0.00  0.00    +0.260 C 
ATOM      5  C   UNL     1      34.336 -19.090 -21.397  0.00  0.00    +0.094 C 
ATOM      6  C   UNL     1      33.806 -20.144 -20.683  0.00  0.00    +0.119 C 
ENDROOT
BRANCH   3   7
ATOM      7  O   UNL     1      36.303 -17.892 -21.967  0.00  0.00    -0.427 OA
BRANCH   7  13
ATOM      8  O   UNL     1      34.200 -15.921 -25.832  0.00  0.00    -0.435 OA
ATOM      9  O   UNL     1      33.097 -14.253 -24.489  0.00  0.00    -0.435 OA
ATOM     10  C   UNL     1      34.492 -16.047 -24.510  0.00  0.00    +0.179 C 
ATOM     11  C   UNL     1      33.862 -15.095 -23.741  0.00  0.00    +0.177 C 
ATOM     12  C   UNL     1      35.317 -17.001 -23.950  0.00  0.00    +0.078 C 
ATOM     13  C   UNL     1      35.497 -16.971 -22.564  0.00  0.00    +0.151 C 
ATOM     14  C   UNL     1      34.023 -15.043 -22.372  0.00  0.00    +0.043 C 
ATOM     15  C   UNL     1      33.315 -14.783 -25.812  0.00  0.00    +0.429 C 
ATOM     16  C   UNL     1      34.855 -15.998 -21.780  0.00  0.00    +0.041 C 
ENDBRANCH   7  13
ENDBRANCH   3   7
BRANCH   4  17
ATOM     17  O   UNL     1      36.644 -21.531 -19.116  0.00  0.00    -0.383 OA
BRANCH  17  21
ATOM     18  C   UNL     1      34.924 -23.095 -15.677  0.00  0.00    +0.057 C 
ATOM     19  C   UNL     1      36.227 -22.598 -15.642  0.00  0.00    +0.018 C 
ATOM     20  C   UNL     1      34.199 -23.065 -16.869  0.00  0.00    +0.018 C 
ATOM     21  C   UNL     1      36.073 -22.050 -17.974  0.00  0.00    +0.160 C 
ATOM     22  C   UNL     1      36.805 -22.073 -16.798  0.00  0.00    +0.040 C 
ATOM     23  C   UNL     1      34.777 -22.540 -18.024  0.00  0.00    +0.040 C 
BRANCH  18  24
ATOM     24  N   UNL     1      34.351 -23.616 -14.532  0.00  0.00    -0.246 N 
ATOM     25  N   UNL     1      34.177 -24.402 -12.454  0.00  0.00    -0.224 NA
ATOM     26  C   UNL     1      33.026 -23.919 -14.346  0.00  0.00    +0.092 C 
ATOM     27  C   UNL     1      34.998 -23.925 -13.363  0.00  0.00    +0.172 C 
ATOM     28  C   UNL     1      32.946 -24.401 -13.061  0.00  0.00    +0.117 C 
ENDBRANCH  18  24
ENDBRANCH  17  21
ENDBRANCH   4  17
TORSDOF 5
ENDMDL
MODEL 8
REMARK VINA RESULT:     -10.4      6.534     12.708
REMARK  Name = 9969613
REMARK  5 active torsions:
REMARK  status: ('A' for Active; 'I' for Inactive)
REMARK    1  A    between atoms: C_3  and  O_7
REMARK    2  A    between atoms: C_4  and  O_17
REMARK    3  A    between atoms: O_7  and  C_13
REMARK    4  A    between atoms: O_17  and  C_21
REMARK    5  A    between atoms: C_18  and  N_24
REMARK                            x       y       z     vdW  Elec       q    Type
REMARK                         _______ _______ _______ _____ _____    ______ ____
ROOT
ATOM      1  N   UNL     1      34.229 -14.900 -23.524  0.00  0.00    -0.283 NA
ATOM      2  N   UNL     1      34.175 -15.676 -25.805  0.00  0.00    -0.151 NA
ATOM      3  C   UNL     1      33.284 -14.007 -23.859  0.00  0.00    +0.296 C 
ATOM      4  C   UNL     1      34.625 -15.696 -24.536  0.00  0.00    +0.260 C 
ATOM      5  C   UNL     1      32.736 -13.876 -25.111  0.00  0.00    +0.094 C 
ATOM      6  C   UNL     1      33.226 -14.750 -26.059  0.00  0.00    +0.119 C 
ENDROOT
BRANCH   3   7
ATOM      7  O   UNL     1      32.844 -13.166 -22.850  0.00  0.00    -0.427 OA
BRANCH   7  13
ATOM      8  O   UNL     1      31.934  -8.525 -21.908  0.00  0.00    -0.435 OA
ATOM      9  O   UNL     1      33.772  -7.796 -23.284  0.00  0.00    -0.435 OA
ATOM     10  C   UNL     1      32.600  -9.568 -22.474  0.00  0.00    +0.179 C 
ATOM     11  C   UNL     1      33.651  -9.152 -23.260  0.00  0.00    +0.177 C 
ATOM     12  C   UNL     1      32.299 -10.905 -22.314  0.00  0.00    +0.078 C 
ATOM     13  C   UNL     1      33.102 -11.835 -22.979  0.00  0.00    +0.151 C 
ATOM     14  C   UNL     1      34.458 -10.050 -23.928  0.00  0.00    +0.043 C 
ATOM     15  C   UNL     1      32.682  -7.407 -22.424  0.00  0.00    +0.429 C 
ATOM     16  C   UNL     1      34.174 -11.410 -23.782  0.00  0.00    +0.041 C 
ENDBRANCH   7  13
ENDBRANCH   3   7
BRANCH   4  17
ATOM     17  O   UNL     1      35.593 -16.628 -24.242  0.00  0.00    -0.383 OA
BRANCH  17  21
ATOM     18  C   UNL     1      34.679 -19.454 -21.341  0.00  0.00    +0.057 C 
ATOM     19  C   UNL     1      35.033 -18.158 -20.965  0.00  0.00    +0.018 C 
ATOM     20  C   UNL     1      34.632 -19.800 -22.692  0.00  0.00    +0.018 C 
ATOM     21  C   UNL     1      35.289 -17.567 -23.279  0.00  0.00    +0.160 C 
ATOM     22  C   UNL     1      35.340 -17.209 -21.941  0.00  0.00    +0.040 C 
ATOM     23  C   UNL     1      34.939 -18.851 -23.666  0.00  0.00    +0.040 C 
BRANCH  18  24
ATOM     24  N   UNL     1      34.375 -20.395 -20.375  0.00  0.00    -0.246 N 
ATOM     25  N   UNL     1      33.165 -21.630 -18.968  0.00  0.00    -0.224 NA
ATOM     26  C   UNL     1      35.260 -21.224 -19.734  0.00  0.00    +0.092 C 
ATOM     27  C   UNL     1      33.129 -20.681 -19.878  0.00  0.00    +0.172 C 
ATOM     28  C   UNL     1      34.491 -21.973 -18.874  0.00  0.00    +0.117 C 
ENDBRANCH  18  24
ENDBRANCH  17  21
ENDBRANCH   4  17
TORSDOF 5
ENDMDL
MODEL 9
REMARK VINA RESULT:     -10.4      3.701     10.023
REMARK  Name = 9969613
REMARK  5 active torsions:
REMARK  status: ('A' for Active; 'I' for Inactive)
REMARK    1  A    between atoms: C_3  and  O_7
REMARK    2  A    between atoms: C_4  and  O_17
REMARK    3  A    between atoms: O_7  and  C_13
REMARK    4  A    between atoms: O_17  and  C_21
REMARK    5  A    between atoms: C_18  and  N_24
REMARK                            x       y       z     vdW  Elec       q    Type
REMARK                         _______ _______ _______ _____ _____    ______ ____
ROOT
ATOM      1  N   UNL     1      36.502 -19.931 -20.465  0.00  0.00    -0.283 NA
ATOM      2  N   UNL     1      34.715 -21.228 -19.496  0.00  0.00    -0.151 NA
ATOM      3  C   UNL     1      35.571 -19.278 -21.179  0.00  0.00    +0.296 C 
ATOM      4  C   UNL     1      36.009 -20.885 -19.651  0.00  0.00    +0.260 C 
ATOM      5  C   UNL     1      34.222 -19.522 -21.121  0.00  0.00    +0.094 C 
ATOM      6  C   UNL     1      33.845 -20.522 -20.249  0.00  0.00    +0.119 C 
ENDROOT
BRANCH   3   7
ATOM      7  O   UNL     1      36.030 -18.287 -22.032  0.00  0.00    -0.427 OA
BRANCH   7  13
ATOM      8  O   UNL     1      33.748 -14.868 -24.553  0.00  0.00    -0.435 OA
ATOM      9  O   UNL     1      33.090 -13.708 -22.546  0.00  0.00    -0.435 OA
ATOM     10  C   UNL     1      34.191 -15.491 -23.427  0.00  0.00    +0.179 C 
ATOM     11  C   UNL     1      33.815 -14.829 -22.280  0.00  0.00    +0.177 C 
ATOM     12  C   UNL     1      34.934 -16.653 -23.382  0.00  0.00    +0.078 C 
ATOM     13  C   UNL     1      35.298 -17.143 -22.125  0.00  0.00    +0.151 C 
ATOM     14  C   UNL     1      34.161 -15.291 -21.027  0.00  0.00    +0.043 C 
ATOM     15  C   UNL     1      33.051 -13.740 -23.988  0.00  0.00    +0.429 C 
ATOM     16  C   UNL     1      34.914 -16.466 -20.955  0.00  0.00    +0.041 C 
ENDBRANCH   7  13
ENDBRANCH   3   7
BRANCH   4  17
ATOM     17  O   UNL     1      36.924 -21.582 -18.898  0.00  0.00    -0.383 OA
BRANCH  17  21
ATOM     18  C   UNL     1      35.648 -23.013 -15.216  0.00  0.00    +0.057 C 
ATOM     19  C   UNL     1      34.803 -23.085 -16.323  0.00  0.00    +0.018 C 
ATOM     20  C   UNL     1      36.923 -22.460 -15.346  0.00  0.00    +0.018 C 
ATOM     21  C   UNL     1      36.501 -22.058 -17.675  0.00  0.00    +0.160 C 
ATOM     22  C   UNL     1      35.232 -22.604 -17.560  0.00  0.00    +0.040 C 
ATOM     23  C   UNL     1      37.351 -21.980 -16.584  0.00  0.00    +0.040 C 
BRANCH  18  24
ATOM     24  N   UNL     1      35.223 -23.489 -13.989  0.00  0.00    -0.246 N 
ATOM     25  N   UNL     1      33.865 -24.298 -12.418  0.00  0.00    -0.224 NA
ATOM     26  C   UNL     1      35.992 -23.651 -12.865  0.00  0.00    +0.092 C 
ATOM     27  C   UNL     1      33.953 -23.894 -13.666  0.00  0.00    +0.172 C 
ATOM     28  C   UNL     1      35.133 -24.149 -11.913  0.00  0.00    +0.117 C 
ENDBRANCH  18  24
ENDBRANCH  17  21
ENDBRANCH   4  17
TORSDOF 5
ENDMDL
