MODEL 1
REMARK VINA RESULT:     -12.0      0.000      0.000
REMARK  Name = 4566
REMARK  6 active torsions:
REMARK  status: ('A' for Active; 'I' for Inactive)
REMARK    1  A    between atoms: N_4  and  C_14
REMARK    2  A    between atoms: C_6  and  O_26
REMARK    3  A    between atoms: C_15  and  S_20
REMARK    4  A    between atoms: S_20  and  N_23
REMARK    5  A    between atoms: O_26  and  C_27
REMARK    6  A    between atoms: C_27  and  C_28
REMARK                            x       y       z     vdW  Elec       q    Type
REMARK                         _______ _______ _______ _____ _____    ______ ____
ROOT
ATOM      1  N   UNL     1      32.533 -23.464 -15.507  0.00  0.00    -0.293 NA
ATOM      2  N   UNL     1      29.243 -22.488 -16.831  0.00  0.00    -0.266 NA
ATOM      3  N   UNL     1      30.673 -23.927 -13.998  0.00  0.00    -0.316 NA
ATOM      4  N   UNL     1      32.876 -24.446 -13.410  0.00  0.00    -0.238 N 
ATOM      5  N   UNL     1      28.503 -23.278 -14.883  0.00  0.00    -0.296 N 
ATOM      6  C   UNL     1      31.702 -22.948 -16.441  0.00  0.00    +0.288 C 
ATOM      7  C   UNL     1      30.352 -22.918 -16.160  0.00  0.00    +0.215 C 
ATOM      8  C   UNL     1      29.867 -23.405 -14.954  0.00  0.00    +0.196 C 
ATOM      9  C   UNL     1      31.974 -23.915 -14.359  0.00  0.00    +0.207 C 
ATOM     10  C   UNL     1      28.159 -22.724 -16.026  0.00  0.00    +0.164 C 
ATOM     11  H   UNL     1      29.224 -22.083 -17.729  0.00  0.00    +0.126 HD
ATOM     12  H   UNL     1      32.442 -24.767 -12.586  0.00  0.00    +0.166 HD
ATOM     13  H   UNL     1      27.912 -23.543 -14.141  0.00  0.00    +0.150 HD
ENDROOT
BRANCH   4  14
ATOM     14  C   UNL     1      34.273 -24.606 -13.412  0.00  0.00    +0.059 C 
ATOM     15  C   UNL     1      37.050 -24.922 -13.418  0.00  0.00    +0.122 C 
ATOM     16  C   UNL     1      35.014 -24.330 -12.260  0.00  0.00    +0.017 C 
ATOM     17  C   UNL     1      34.928 -25.040 -14.568  0.00  0.00    +0.017 C 
ATOM     18  C   UNL     1      36.400 -24.488 -12.262  0.00  0.00    +0.021 C 
ATOM     19  C   UNL     1      36.314 -25.198 -14.570  0.00  0.00    +0.021 C 
BRANCH  15  20
ATOM     20  S   UNL     1      38.785 -25.120 -13.421  0.00  0.00    +0.057 S 
ATOM     21  O   UNL     1      39.341 -24.313 -12.345  0.00  0.00    -0.153 OA
ATOM     22  O   UNL     1      39.087 -26.543 -13.490  0.00  0.00    -0.153 OA
BRANCH  20  23
ATOM     23  N   UNL     1      39.191 -24.401 -14.917  0.00  0.00    -0.203 NA
ATOM     24  H   UNL     1      39.963 -24.914 -15.343  0.00  0.00    +0.144 HD
ATOM     25  H   UNL     1      39.472 -23.432 -14.763  0.00  0.00    +0.144 HD
ENDBRANCH  20  23
ENDBRANCH  15  20
ENDBRANCH   4  14
BRANCH   6  26
ATOM     26  O   UNL     1      32.237 -22.481 -17.616  0.00  0.00    -0.453 OA
BRANCH  26  27
ATOM     27  C   UNL     1      33.570 -22.854 -17.911  0.00  0.00    +0.208 C 
BRANCH  27  28
ATOM     28  C   UNL     1      34.007 -22.127 -19.181  0.00  0.00    +0.044 C 
ATOM     29  C   UNL     1      33.052 -20.968 -19.499  0.00  0.00    +0.004 C 
ATOM     30  C   UNL     1      35.451 -21.625 -19.049  0.00  0.00    +0.004 C 
ATOM     31  C   UNL     1      33.499 -20.192 -20.736  0.00  0.00    +0.000 C 
ATOM     32  C   UNL     1      35.893 -20.848 -20.287  0.00  0.00    +0.000 C 
ATOM     33  C   UNL     1      34.937 -19.702 -20.603  0.00  0.00    +0.000 C 
ENDBRANCH  27  28
ENDBRANCH  26  27
ENDBRANCH   6  26
TORSDOF 6
ENDMDL
MODEL 2
REMARK VINA RESULT:     -11.9      1.226      1.446
REMARK  Name = 4566
REMARK  6 active torsions:
REMARK  status: ('A' for Active; 'I' for Inactive)
REMARK    1  A    between atoms: N_4  and  C_14
REMARK    2  A    between atoms: C_6  and  O_26
REMARK    3  A    between atoms: C_15  and  S_20
REMARK    4  A    between atoms: S_20  and  N_23
REMARK    5  A    between atoms: O_26  and  C_27
REMARK    6  A    between atoms: C_27  and  C_28
REMARK                            x       y       z     vdW  Elec       q    Type
REMARK                         _______ _______ _______ _____ _____    ______ ____
ROOT
ATOM      1  N   UNL     1      33.817 -23.883 -15.601  0.00  0.00    -0.293 NA
ATOM      2  N   UNL     1      30.422 -22.785 -16.493  0.00  0.00    -0.266 NA
ATOM      3  N   UNL     1      32.212 -24.017 -13.768  0.00  0.00    -0.316 NA
ATOM      4  N   UNL     1      34.444 -24.652 -13.480  0.00  0.00    -0.238 N 
ATOM      5  N   UNL     1      29.971 -23.288 -14.369  0.00  0.00    -0.296 N 
ATOM      6  C   UNL     1      32.877 -23.406 -16.446  0.00  0.00    +0.288 C 
ATOM      7  C   UNL     1      31.598 -23.231 -15.959  0.00  0.00    +0.215 C 
ATOM      8  C   UNL     1      31.292 -23.537 -14.640  0.00  0.00    +0.196 C 
ATOM      9  C   UNL     1      33.431 -24.155 -14.331  0.00  0.00    +0.207 C 
ATOM     10  C   UNL     1      29.477 -22.838 -15.502  0.00  0.00    +0.164 C 
ATOM     11  H   UNL     1      30.279 -22.483 -17.419  0.00  0.00    +0.126 HD
ATOM     12  H   UNL     1      34.135 -24.842 -12.564  0.00  0.00    +0.166 HD
ATOM     13  H   UNL     1      29.498 -23.419 -13.515  0.00  0.00    +0.150 HD
ENDROOT
BRANCH   4  14
ATOM     14  C   UNL     1      35.808 -24.929 -13.685  0.00  0.00    +0.059 C 
ATOM     15  C   UNL     1      38.516 -25.479 -14.095  0.00  0.00    +0.122 C 
ATOM     16  C   UNL     1      36.784 -24.132 -13.084  0.00  0.00    +0.017 C 
ATOM     17  C   UNL     1      36.191 -26.003 -14.493  0.00  0.00    +0.017 C 
ATOM     18  C   UNL     1      38.137 -24.406 -13.288  0.00  0.00    +0.021 C 
ATOM     19  C   UNL     1      37.544 -26.277 -14.697  0.00  0.00    +0.021 C 
BRANCH  15  20
ATOM     20  S   UNL     1      40.209 -25.823 -14.352  0.00  0.00    +0.057 S 
ATOM     21  O   UNL     1      40.989 -24.714 -13.820  0.00  0.00    -0.153 OA
ATOM     22  O   UNL     1      40.479 -27.180 -13.898  0.00  0.00    -0.153 OA
BRANCH  20  23
ATOM     23  N   UNL     1      40.293 -25.789 -16.058  0.00  0.00    -0.203 NA
ATOM     24  H   UNL     1      40.670 -24.891 -16.362  0.00  0.00    +0.144 HD
ATOM     25  H   UNL     1      39.359 -25.915 -16.447  0.00  0.00    +0.144 HD
ENDBRANCH  20  23
ENDBRANCH  15  20
ENDBRANCH   4  14
BRANCH   6  26
ATOM     26  O   UNL     1      33.235 -23.119 -17.740  0.00  0.00    -0.453 OA
BRANCH  26  27
ATOM     27  C   UNL     1      34.577 -22.731 -17.965  0.00  0.00    +0.208 C 
BRANCH  27  28
ATOM     28  C   UNL     1      34.645 -21.967 -19.287  0.00  0.00    +0.044 C 
ATOM     29  C   UNL     1      33.423 -21.053 -19.449  0.00  0.00    +0.004 C 
ATOM     30  C   UNL     1      35.947 -21.161 -19.380  0.00  0.00    +0.004 C 
ATOM     31  C   UNL     1      33.494 -20.239 -20.739  0.00  0.00    +0.000 C 
ATOM     32  C   UNL     1      36.014 -20.346 -20.671  0.00  0.00    +0.000 C 
ATOM     33  C   UNL     1      34.794 -19.445 -20.832  0.00  0.00    +0.000 C 
ENDBRANCH  27  28
ENDBRANCH  26  27
ENDBRANCH   6  26
TORSDOF 6
ENDMDL
MODEL 3
REMARK VINA RESULT:     -11.3      2.980      6.792
REMARK  Name = 4566
REMARK  6 active torsions:
REMARK  status: ('A' for Active; 'I' for Inactive)
REMARK    1  A    between atoms: N_4  and  C_14
REMARK    2  A    between atoms: C_6  and  O_26
REMARK    3  A    between atoms: C_15  and  S_20
REMARK    4  A    between atoms: S_20  and  N_23
REMARK    5  A    between atoms: O_26  and  C_27
REMARK    6  A    between atoms: C_27  and  C_28
REMARK                            x       y       z     vdW  Elec       q    Type
REMARK                         _______ _______ _______ _____ _____    ______ ____
ROOT
ATOM      1  N   UNL     1      34.663 -24.017 -14.132  0.00  0.00    -0.293 NA
ATOM      2  N   UNL     1      38.189 -24.303 -13.127  0.00  0.00    -0.266 NA
ATOM      3  N   UNL     1      34.991 -24.437 -11.751  0.00  0.00    -0.316 NA
ATOM      4  N   UNL     1      32.849 -24.212 -12.665  0.00  0.00    -0.238 N 
ATOM      5  N   UNL     1      37.325 -24.624 -11.098  0.00  0.00    -0.296 N 
ATOM      6  C   UNL     1      35.995 -24.020 -14.360  0.00  0.00    +0.288 C 
ATOM      7  C   UNL     1      36.834 -24.232 -13.286  0.00  0.00    +0.215 C 
ATOM      8  C   UNL     1      36.320 -24.434 -12.012  0.00  0.00    +0.196 C 
ATOM      9  C   UNL     1      34.249 -24.223 -12.859  0.00  0.00    +0.207 C 
ATOM     10  C   UNL     1      38.435 -24.539 -11.800  0.00  0.00    +0.164 C 
ATOM     11  H   UNL     1      38.866 -24.202 -13.836  0.00  0.00    +0.126 HD
ATOM     12  H   UNL     1      32.577 -24.363 -11.730  0.00  0.00    +0.166 HD
ATOM     13  H   UNL     1      37.236 -24.788 -10.131  0.00  0.00    +0.150 HD
ENDROOT
BRANCH   4  14
ATOM     14  C   UNL     1      31.768 -24.027 -13.545  0.00  0.00    +0.059 C 
ATOM     15  C   UNL     1      29.618 -23.660 -15.291  0.00  0.00    +0.122 C 
ATOM     16  C   UNL     1      31.559 -22.785 -14.149  0.00  0.00    +0.017 C 
ATOM     17  C   UNL     1      30.896 -25.084 -13.818  0.00  0.00    +0.017 C 
ATOM     18  C   UNL     1      30.486 -22.601 -15.021  0.00  0.00    +0.021 C 
ATOM     19  C   UNL     1      29.823 -24.900 -14.690  0.00  0.00    +0.021 C 
BRANCH  15  20
ATOM     20  S   UNL     1      28.275 -23.429 -16.383  0.00  0.00    +0.057 S 
ATOM     21  O   UNL     1      28.585 -22.312 -17.264  0.00  0.00    -0.153 OA
ATOM     22  O   UNL     1      27.915 -24.721 -16.951  0.00  0.00    -0.153 OA
BRANCH  20  23
ATOM     23  N   UNL     1      27.049 -22.949 -15.294  0.00  0.00    -0.203 NA
ATOM     24  H   UNL     1      26.472 -23.755 -15.054  0.00  0.00    +0.144 HD
ATOM     25  H   UNL     1      26.468 -22.233 -15.730  0.00  0.00    +0.144 HD
ENDBRANCH  20  23
ENDBRANCH  15  20
ENDBRANCH   4  14
BRANCH   6  26
ATOM     26  O   UNL     1      36.449 -23.816 -15.639  0.00  0.00    -0.453 OA
BRANCH  26  27
ATOM     27  C   UNL     1      36.450 -22.483 -16.117  0.00  0.00    +0.208 C 
BRANCH  27  28
ATOM     28  C   UNL     1      35.895 -22.478 -17.540  0.00  0.00    +0.044 C 
ATOM     29  C   UNL     1      34.368 -22.330 -17.526  0.00  0.00    +0.004 C 
ATOM     30  C   UNL     1      36.545 -21.363 -18.371  0.00  0.00    +0.004 C 
ATOM     31  C   UNL     1      33.794 -22.268 -18.940  0.00  0.00    +0.000 C 
ATOM     32  C   UNL     1      35.967 -21.304 -19.783  0.00  0.00    +0.000 C 
ATOM     33  C   UNL     1      34.448 -21.164 -19.765  0.00  0.00    +0.000 C 
ENDBRANCH  27  28
ENDBRANCH  26  27
ENDBRANCH   6  26
TORSDOF 6
ENDMDL
MODEL 4
REMARK VINA RESULT:     -11.2      3.537      7.267
REMARK  Name = 4566
REMARK  6 active torsions:
REMARK  status: ('A' for Active; 'I' for Inactive)
REMARK    1  A    between atoms: N_4  and  C_14
REMARK    2  A    between atoms: C_6  and  O_26
REMARK    3  A    between atoms: C_15  and  S_20
REMARK    4  A    between atoms: S_20  and  N_23
REMARK    5  A    between atoms: O_26  and  C_27
REMARK    6  A    between atoms: C_27  and  C_28
REMARK                            x       y       z     vdW  Elec       q    Type
REMARK                         _______ _______ _______ _____ _____    ______ ____
ROOT
ATOM      1  N   UNL     1      33.984 -22.741 -16.204  0.00  0.00    -0.293 NA
ATOM      2  N   UNL     1      33.025 -24.651 -13.211  0.00  0.00    -0.266 NA
ATOM      3  N   UNL     1      31.760 -23.736 -16.327  0.00  0.00    -0.316 NA
ATOM      4  N   UNL     1      32.626 -22.468 -18.092  0.00  0.00    -0.238 N 
ATOM      5  N   UNL     1      31.137 -24.998 -14.344  0.00  0.00    -0.296 N 
ATOM      6  C   UNL     1      34.188 -23.245 -14.967  0.00  0.00    +0.288 C 
ATOM      7  C   UNL     1      33.181 -23.999 -14.401  0.00  0.00    +0.215 C 
ATOM      8  C   UNL     1      31.995 -24.228 -15.087  0.00  0.00    +0.196 C 
ATOM      9  C   UNL     1      32.799 -23.015 -16.800  0.00  0.00    +0.207 C 
ATOM     10  C   UNL     1      31.785 -25.235 -13.224  0.00  0.00    +0.164 C 
ATOM     11  H   UNL     1      33.682 -24.695 -12.479  0.00  0.00    +0.126 HD
ATOM     12  H   UNL     1      31.755 -22.682 -18.499  0.00  0.00    +0.166 HD
ATOM     13  H   UNL     1      30.235 -25.304 -14.594  0.00  0.00    +0.150 HD
ENDROOT
BRANCH   4  14
ATOM     14  C   UNL     1      33.454 -21.679 -18.909  0.00  0.00    +0.059 C 
ATOM     15  C   UNL     1      35.098 -20.107 -20.532  0.00  0.00    +0.122 C 
ATOM     16  C   UNL     1      34.836 -21.875 -18.906  0.00  0.00    +0.017 C 
ATOM     17  C   UNL     1      32.896 -20.693 -19.728  0.00  0.00    +0.017 C 
ATOM     18  C   UNL     1      35.658 -21.091 -19.716  0.00  0.00    +0.021 C 
ATOM     19  C   UNL     1      33.718 -19.909 -20.538  0.00  0.00    +0.021 C 
BRANCH  15  20
ATOM     20  S   UNL     1      36.126 -19.125 -21.546  0.00  0.00    +0.057 S 
ATOM     21  O   UNL     1      37.504 -19.302 -21.111  0.00  0.00    -0.153 OA
ATOM     22  O   UNL     1      35.770 -19.368 -22.938  0.00  0.00    -0.153 OA
BRANCH  20  23
ATOM     23  N   UNL     1      35.607 -17.556 -21.114  0.00  0.00    -0.203 NA
ATOM     24  H   UNL     1      34.600 -17.478 -21.262  0.00  0.00    +0.144 HD
ATOM     25  H   UNL     1      36.089 -16.867 -21.692  0.00  0.00    +0.144 HD
ENDBRANCH  20  23
ENDBRANCH  15  20
ENDBRANCH   4  14
BRANCH   6  26
ATOM     26  O   UNL     1      35.380 -22.988 -14.336  0.00  0.00    -0.453 OA
BRANCH  26  27
ATOM     27  C   UNL     1      36.564 -23.315 -15.039  0.00  0.00    +0.208 C 
BRANCH  27  28
ATOM     28  C   UNL     1      37.332 -24.362 -14.234  0.00  0.00    +0.044 C 
ATOM     29  C   UNL     1      37.364 -23.987 -12.746  0.00  0.00    +0.004 C 
ATOM     30  C   UNL     1      36.718 -25.755 -14.434  0.00  0.00    +0.004 C 
ATOM     31  C   UNL     1      38.080 -25.047 -11.912  0.00  0.00    +0.000 C 
ATOM     32  C   UNL     1      37.435 -26.812 -13.597  0.00  0.00    +0.000 C 
ATOM     33  C   UNL     1      37.472 -26.431 -12.120  0.00  0.00    +0.000 C 
ENDBRANCH  27  28
ENDBRANCH  26  27
ENDBRANCH   6  26
TORSDOF 6
ENDMDL
MODEL 5
REMARK VINA RESULT:     -11.1      3.072      6.775
REMARK  Name = 4566
REMARK  6 active torsions:
REMARK  status: ('A' for Active; 'I' for Inactive)
REMARK    1  A    between atoms: N_4  and  C_14
REMARK    2  A    between atoms: C_6  and  O_26
REMARK    3  A    between atoms: C_15  and  S_20
REMARK    4  A    between atoms: S_20  and  N_23
REMARK    5  A    between atoms: O_26  and  C_27
REMARK    6  A    between atoms: C_27  and  C_28
REMARK                            x       y       z     vdW  Elec       q    Type
REMARK                         _______ _______ _______ _____ _____    ______ ____
ROOT
ATOM      1  N   UNL     1      34.491 -23.577 -15.254  0.00  0.00    -0.293 NA
ATOM      2  N   UNL     1      38.150 -23.848 -14.994  0.00  0.00    -0.266 NA
ATOM      3  N   UNL     1      35.264 -24.767 -13.270  0.00  0.00    -0.316 NA
ATOM      4  N   UNL     1      32.985 -24.448 -13.688  0.00  0.00    -0.238 N 
ATOM      5  N   UNL     1      37.684 -24.941 -13.108  0.00  0.00    -0.296 N 
ATOM      6  C   UNL     1      35.758 -23.369 -15.676  0.00  0.00    +0.288 C 
ATOM      7  C   UNL     1      36.787 -23.860 -14.899  0.00  0.00    +0.215 C 
ATOM      8  C   UNL     1      36.522 -24.544 -13.719  0.00  0.00    +0.196 C 
ATOM      9  C   UNL     1      34.325 -24.254 -14.093  0.00  0.00    +0.207 C 
ATOM     10  C   UNL     1      38.642 -24.509 -13.898  0.00  0.00    +0.164 C 
ATOM     11  H   UNL     1      38.681 -23.441 -15.716  0.00  0.00    +0.126 HD
ATOM     12  H   UNL     1      32.894 -24.942 -12.840  0.00  0.00    +0.166 HD
ATOM     13  H   UNL     1      37.778 -25.440 -12.264  0.00  0.00    +0.150 HD
ENDROOT
BRANCH   4  14
ATOM     14  C   UNL     1      31.755 -24.074 -14.258  0.00  0.00    +0.059 C 
ATOM     15  C   UNL     1      29.310 -23.332 -15.389  0.00  0.00    +0.122 C 
ATOM     16  C   UNL     1      31.489 -22.732 -14.537  0.00  0.00    +0.017 C 
ATOM     17  C   UNL     1      30.791 -25.044 -14.547  0.00  0.00    +0.017 C 
ATOM     18  C   UNL     1      30.269 -22.360 -15.101  0.00  0.00    +0.021 C 
ATOM     19  C   UNL     1      29.571 -24.673 -15.112  0.00  0.00    +0.021 C 
BRANCH  15  20
ATOM     20  S   UNL     1      27.782 -22.867 -16.095  0.00  0.00    +0.057 S 
ATOM     21  O   UNL     1      26.751 -22.977 -15.073  0.00  0.00    -0.153 OA
ATOM     22  O   UNL     1      27.965 -21.609 -16.806  0.00  0.00    -0.153 OA
BRANCH  20  23
ATOM     23  N   UNL     1      27.560 -24.116 -17.240  0.00  0.00    -0.203 NA
ATOM     24  H   UNL     1      27.573 -23.721 -18.181  0.00  0.00    +0.144 HD
ATOM     25  H   UNL     1      26.662 -24.571 -17.077  0.00  0.00    +0.144 HD
ENDBRANCH  20  23
ENDBRANCH  15  20
ENDBRANCH   4  14
BRANCH   6  26
ATOM     26  O   UNL     1      35.962 -22.688 -16.850  0.00  0.00    -0.453 OA
BRANCH  26  27
ATOM     27  C   UNL     1      34.957 -22.798 -17.841  0.00  0.00    +0.208 C 
BRANCH  27  28
ATOM     28  C   UNL     1      34.935 -21.504 -18.653  0.00  0.00    +0.044 C 
ATOM     29  C   UNL     1      36.185 -21.395 -19.535  0.00  0.00    +0.004 C 
ATOM     30  C   UNL     1      33.658 -21.420 -19.501  0.00  0.00    +0.004 C 
ATOM     31  C   UNL     1      36.160 -20.135 -20.397  0.00  0.00    +0.000 C 
ATOM     32  C   UNL     1      33.637 -20.159 -20.363  0.00  0.00    +0.000 C 
ATOM     33  C   UNL     1      34.886 -20.051 -21.233  0.00  0.00    +0.000 C 
ENDBRANCH  27  28
ENDBRANCH  26  27
ENDBRANCH   6  26
TORSDOF 6
ENDMDL
MODEL 6
REMARK VINA RESULT:     -11.1      2.723      5.547
REMARK  Name = 4566
REMARK  6 active torsions:
REMARK  status: ('A' for Active; 'I' for Inactive)
REMARK    1  A    between atoms: N_4  and  C_14
REMARK    2  A    between atoms: C_6  and  O_26
REMARK    3  A    between atoms: C_15  and  S_20
REMARK    4  A    between atoms: S_20  and  N_23
REMARK    5  A    between atoms: O_26  and  C_27
REMARK    6  A    between atoms: C_27  and  C_28
REMARK                            x       y       z     vdW  Elec       q    Type
REMARK                         _______ _______ _______ _____ _____    ______ ____
ROOT
ATOM      1  N   UNL     1      35.097 -22.264 -17.520  0.00  0.00    -0.293 NA
ATOM      2  N   UNL     1      33.885 -20.659 -20.599  0.00  0.00    -0.266 NA
ATOM      3  N   UNL     1      36.799 -20.991 -18.716  0.00  0.00    -0.316 NA
ATOM      4  N   UNL     1      37.295 -22.115 -16.726  0.00  0.00    -0.238 N 
ATOM      5  N   UNL     1      35.988 -19.934 -20.751  0.00  0.00    -0.296 N 
ATOM      6  C   UNL     1      34.157 -21.956 -18.441  0.00  0.00    +0.288 C 
ATOM      7  C   UNL     1      34.532 -21.164 -19.506  0.00  0.00    +0.215 C 
ATOM      8  C   UNL     1      35.835 -20.699 -19.623  0.00  0.00    +0.196 C 
ATOM      9  C   UNL     1      36.343 -21.769 -17.712  0.00  0.00    +0.207 C 
ATOM     10  C   UNL     1      34.799 -19.929 -21.314  0.00  0.00    +0.164 C 
ATOM     11  H   UNL     1      32.938 -20.793 -20.830  0.00  0.00    +0.126 HD
ATOM     12  H   UNL     1      38.191 -21.741 -16.891  0.00  0.00    +0.166 HD
ATOM     13  H   UNL     1      36.806 -19.487 -21.067  0.00  0.00    +0.150 HD
ENDROOT
BRANCH   4  14
ATOM     14  C   UNL     1      37.212 -22.889 -15.555  0.00  0.00    +0.059 C 
ATOM     15  C   UNL     1      37.046 -24.427 -13.228  0.00  0.00    +0.122 C 
ATOM     16  C   UNL     1      38.208 -23.821 -15.258  0.00  0.00    +0.017 C 
ATOM     17  C   UNL     1      36.132 -22.729 -14.683  0.00  0.00    +0.017 C 
ATOM     18  C   UNL     1      38.126 -24.590 -14.096  0.00  0.00    +0.021 C 
ATOM     19  C   UNL     1      36.050 -23.497 -13.521  0.00  0.00    +0.021 C 
BRANCH  15  20
ATOM     20  S   UNL     1      36.943 -25.388 -11.774  0.00  0.00    +0.057 S 
ATOM     21  O   UNL     1      37.109 -26.789 -12.136  0.00  0.00    -0.153 OA
ATOM     22  O   UNL     1      37.809 -24.794 -10.765  0.00  0.00    -0.153 OA
BRANCH  20  23
ATOM     23  N   UNL     1      35.316 -25.124 -11.324  0.00  0.00    -0.203 NA
ATOM     24  H   UNL     1      35.158 -25.497 -10.388  0.00  0.00    +0.144 HD
ATOM     25  H   UNL     1      34.699 -25.595 -11.986  0.00  0.00    +0.144 HD
ENDBRANCH  20  23
ENDBRANCH  15  20
ENDBRANCH   4  14
BRANCH   6  26
ATOM     26  O   UNL     1      32.884 -22.442 -18.276  0.00  0.00    -0.453 OA
BRANCH  26  27
ATOM     27  C   UNL     1      32.718 -23.520 -17.374  0.00  0.00    +0.208 C 
BRANCH  27  28
ATOM     28  C   UNL     1      32.030 -22.995 -16.115  0.00  0.00    +0.044 C 
ATOM     29  C   UNL     1      30.516 -23.237 -16.184  0.00  0.00    +0.004 C 
ATOM     30  C   UNL     1      32.630 -23.642 -14.859  0.00  0.00    +0.004 C 
ATOM     31  C   UNL     1      29.811 -22.769 -14.913  0.00  0.00    +0.000 C 
ATOM     32  C   UNL     1      31.921 -23.173 -13.590  0.00  0.00    +0.000 C 
ATOM     33  C   UNL     1      30.415 -23.408 -13.667  0.00  0.00    +0.000 C 
ENDBRANCH  27  28
ENDBRANCH  26  27
ENDBRANCH   6  26
TORSDOF 6
ENDMDL
MODEL 7
REMARK VINA RESULT:      -9.8      6.002      8.610
REMARK  Name = 4566
REMARK  6 active torsions:
REMARK  status: ('A' for Active; 'I' for Inactive)
REMARK    1  A    between atoms: N_4  and  C_14
REMARK    2  A    between atoms: C_6  and  O_26
REMARK    3  A    between atoms: C_15  and  S_20
REMARK    4  A    between atoms: S_20  and  N_23
REMARK    5  A    between atoms: O_26  and  C_27
REMARK    6  A    between atoms: C_27  and  C_28
REMARK                            x       y       z     vdW  Elec       q    Type
REMARK                         _______ _______ _______ _____ _____    ______ ____
ROOT
ATOM      1  N   UNL     1      34.969 -18.108 -20.915  0.00  0.00    -0.293 NA
ATOM      2  N   UNL     1      34.652 -15.402 -23.386  0.00  0.00    -0.266 NA
ATOM      3  N   UNL     1      35.225 -18.836 -23.229  0.00  0.00    -0.316 NA
ATOM      4  N   UNL     1      35.379 -20.349 -21.452  0.00  0.00    -0.238 N 
ATOM      5  N   UNL     1      35.012 -17.040 -24.854  0.00  0.00    -0.296 N 
ATOM      6  C   UNL     1      34.774 -16.826 -21.295  0.00  0.00    +0.288 C 
ATOM      7  C   UNL     1      34.802 -16.540 -22.644  0.00  0.00    +0.215 C 
ATOM      8  C   UNL     1      35.026 -17.542 -23.578  0.00  0.00    +0.196 C 
ATOM      9  C   UNL     1      35.179 -19.021 -21.893  0.00  0.00    +0.207 C 
ATOM     10  C   UNL     1      34.786 -15.753 -24.704  0.00  0.00    +0.164 C 
ATOM     11  H   UNL     1      34.479 -14.498 -23.039  0.00  0.00    +0.126 HD
ATOM     12  H   UNL     1      35.531 -20.991 -22.184  0.00  0.00    +0.166 HD
ATOM     13  H   UNL     1      35.144 -17.534 -25.696  0.00  0.00    +0.150 HD
ENDROOT
BRANCH   4  14
ATOM     14  C   UNL     1      35.405 -20.934 -20.174  0.00  0.00    +0.059 C 
ATOM     15  C   UNL     1      35.454 -22.097 -17.634  0.00  0.00    +0.122 C 
ATOM     16  C   UNL     1      36.610 -21.047 -19.477  0.00  0.00    +0.017 C 
ATOM     17  C   UNL     1      34.224 -21.406 -19.594  0.00  0.00    +0.017 C 
ATOM     18  C   UNL     1      36.636 -21.627 -18.209  0.00  0.00    +0.021 C 
ATOM     19  C   UNL     1      34.250 -21.987 -18.326  0.00  0.00    +0.021 C 
BRANCH  15  20
ATOM     20  S   UNL     1      35.486 -22.825 -16.047  0.00  0.00    +0.057 S 
ATOM     21  O   UNL     1      35.445 -21.761 -15.052  0.00  0.00    -0.153 OA
ATOM     22  O   UNL     1      34.495 -23.891 -16.007  0.00  0.00    -0.153 OA
BRANCH  20  23
ATOM     23  N   UNL     1      37.044 -23.526 -16.041  0.00  0.00    -0.203 NA
ATOM     24  H   UNL     1      37.012 -24.430 -16.512  0.00  0.00    +0.144 HD
ATOM     25  H   UNL     1      37.355 -23.656 -15.078  0.00  0.00    +0.144 HD
ENDBRANCH  20  23
ENDBRANCH  15  20
ENDBRANCH   4  14
BRANCH   6  26
ATOM     26  O   UNL     1      34.557 -15.875 -20.329  0.00  0.00    -0.453 OA
BRANCH  26  27
ATOM     27  C   UNL     1      33.217 -15.475 -20.110  0.00  0.00    +0.208 C 
BRANCH  27  28
ATOM     28  C   UNL     1      33.100 -13.983 -20.419  0.00  0.00    +0.044 C 
ATOM     29  C   UNL     1      32.698 -13.762 -21.883  0.00  0.00    +0.004 C 
ATOM     30  C   UNL     1      32.101 -13.309 -19.469  0.00  0.00    +0.004 C 
ATOM     31  C   UNL     1      32.523 -12.279 -22.203  0.00  0.00    +0.000 C 
ATOM     32  C   UNL     1      31.927 -11.827 -19.793  0.00  0.00    +0.000 C 
ATOM     33  C   UNL     1      31.534 -11.612 -21.252  0.00  0.00    +0.000 C 
ENDBRANCH  27  28
ENDBRANCH  26  27
ENDBRANCH   6  26
TORSDOF 6
ENDMDL
MODEL 8
REMARK VINA RESULT:      -9.7      3.595      7.663
REMARK  Name = 4566
REMARK  6 active torsions:
REMARK  status: ('A' for Active; 'I' for Inactive)
REMARK    1  A    between atoms: N_4  and  C_14
REMARK    2  A    between atoms: C_6  and  O_26
REMARK    3  A    between atoms: C_15  and  S_20
REMARK    4  A    between atoms: S_20  and  N_23
REMARK    5  A    between atoms: O_26  and  C_27
REMARK    6  A    between atoms: C_27  and  C_28
REMARK                            x       y       z     vdW  Elec       q    Type
REMARK                         _______ _______ _______ _____ _____    ______ ____
ROOT
ATOM      1  N   UNL     1      35.659 -23.672 -15.424  0.00  0.00    -0.293 NA
ATOM      2  N   UNL     1      36.151 -25.673 -12.378  0.00  0.00    -0.266 NA
ATOM      3  N   UNL     1      37.990 -23.877 -14.732  0.00  0.00    -0.316 NA
ATOM      4  N   UNL     1      37.388 -22.659 -16.636  0.00  0.00    -0.238 N 
ATOM      5  N   UNL     1      38.303 -25.202 -12.716  0.00  0.00    -0.296 N 
ATOM      6  C   UNL     1      35.239 -24.423 -14.382  0.00  0.00    +0.288 C 
ATOM      7  C   UNL     1      36.190 -24.906 -13.508  0.00  0.00    +0.215 C 
ATOM      8  C   UNL     1      37.537 -24.627 -13.698  0.00  0.00    +0.196 C 
ATOM      9  C   UNL     1      36.991 -23.449 -15.532  0.00  0.00    +0.207 C 
ATOM     10  C   UNL     1      37.441 -25.822 -11.940  0.00  0.00    +0.164 C 
ATOM     11  H   UNL     1      35.346 -26.049 -11.955  0.00  0.00    +0.126 HD
ATOM     12  H   UNL     1      38.361 -22.514 -16.690  0.00  0.00    +0.166 HD
ATOM     13  H   UNL     1      39.282 -25.159 -12.616  0.00  0.00    +0.150 HD
ENDROOT
BRANCH   4  14
ATOM     14  C   UNL     1      36.667 -22.041 -17.671  0.00  0.00    +0.059 C 
ATOM     15  C   UNL     1      35.234 -20.812 -19.732  0.00  0.00    +0.122 C 
ATOM     16  C   UNL     1      35.311 -22.324 -17.849  0.00  0.00    +0.017 C 
ATOM     17  C   UNL     1      37.304 -21.139 -18.529  0.00  0.00    +0.017 C 
ATOM     18  C   UNL     1      34.595 -21.711 -18.878  0.00  0.00    +0.021 C 
ATOM     19  C   UNL     1      36.587 -20.526 -19.558  0.00  0.00    +0.021 C 
BRANCH  15  20
ATOM     20  S   UNL     1      34.338 -20.044 -21.020  0.00  0.00    +0.057 S 
ATOM     21  O   UNL     1      34.966 -20.392 -22.287  0.00  0.00    -0.153 OA
ATOM     22  O   UNL     1      32.921 -20.309 -20.817  0.00  0.00    -0.153 OA
BRANCH  20  23
ATOM     23  N   UNL     1      34.639 -18.396 -20.688  0.00  0.00    -0.203 NA
ATOM     24  H   UNL     1      35.129 -18.312 -19.797  0.00  0.00    +0.144 HD
ATOM     25  H   UNL     1      33.754 -17.892 -20.637  0.00  0.00    +0.144 HD
ENDBRANCH  20  23
ENDBRANCH  15  20
ENDBRANCH   4  14
BRANCH   6  26
ATOM     26  O   UNL     1      33.895 -24.667 -14.242  0.00  0.00    -0.453 OA
BRANCH  26  27
ATOM     27  C   UNL     1      33.185 -23.853 -13.328  0.00  0.00    +0.208 C 
BRANCH  27  28
ATOM     28  C   UNL     1      31.728 -23.774 -13.781  0.00  0.00    +0.044 C 
ATOM     29  C   UNL     1      31.625 -23.128 -15.169  0.00  0.00    +0.004 C 
ATOM     30  C   UNL     1      31.083 -25.167 -13.776  0.00  0.00    +0.004 C 
ATOM     31  C   UNL     1      30.182 -23.087 -15.666  0.00  0.00    +0.000 C 
ATOM     32  C   UNL     1      29.641 -25.122 -14.276  0.00  0.00    +0.000 C 
ATOM     33  C   UNL     1      29.542 -24.472 -15.653  0.00  0.00    +0.000 C 
ENDBRANCH  27  28
ENDBRANCH  26  27
ENDBRANCH   6  26
TORSDOF 6
ENDMDL
MODEL 9
REMARK VINA RESULT:      -9.6     13.935     17.617
REMARK  Name = 4566
REMARK  6 active torsions:
REMARK  status: ('A' for Active; 'I' for Inactive)
REMARK    1  A    between atoms: N_4  and  C_14
REMARK    2  A    between atoms: C_6  and  O_26
REMARK    3  A    between atoms: C_15  and  S_20
REMARK    4  A    between atoms: S_20  and  N_23
REMARK    5  A    between atoms: O_26  and  C_27
REMARK    6  A    between atoms: C_27  and  C_28
REMARK                            x       y       z     vdW  Elec       q    Type
REMARK                         _______ _______ _______ _____ _____    ______ ____
ROOT
ATOM      1  N   UNL     1      32.834  -8.944 -22.831  0.00  0.00    -0.293 NA
ATOM      2  N   UNL     1      31.646 -11.565 -20.541  0.00  0.00    -0.266 NA
ATOM      3  N   UNL     1      32.241  -8.133 -20.608  0.00  0.00    -0.316 NA
ATOM      4  N   UNL     1      33.026  -6.680 -22.264  0.00  0.00    -0.238 N 
ATOM      5  N   UNL     1      31.456  -9.874 -19.103  0.00  0.00    -0.296 N 
ATOM      6  C   UNL     1      32.514 -10.214 -22.499  0.00  0.00    +0.288 C 
ATOM      7  C   UNL     1      32.055 -10.453 -21.221  0.00  0.00    +0.215 C 
ATOM      8  C   UNL     1      31.928  -9.416 -20.306  0.00  0.00    +0.196 C 
ATOM      9  C   UNL     1      32.680  -7.994 -21.877  0.00  0.00    +0.207 C 
ATOM     10  C   UNL     1      31.297 -11.168 -19.277  0.00  0.00    +0.164 C 
ATOM     11  H   UNL     1      31.609 -12.484 -20.894  0.00  0.00    +0.126 HD
ATOM     12  H   UNL     1      32.905  -6.011 -21.551  0.00  0.00    +0.166 HD
ATOM     13  H   UNL     1      31.277  -9.350 -18.289  0.00  0.00    +0.150 HD
ENDROOT
BRANCH   4  14
ATOM     14  C   UNL     1      33.510  -6.140 -23.468  0.00  0.00    +0.059 C 
ATOM     15  C   UNL     1      34.474  -5.069 -25.863  0.00  0.00    +0.122 C 
ATOM     16  C   UNL     1      32.702  -5.300 -24.237  0.00  0.00    +0.017 C 
ATOM     17  C   UNL     1      34.804  -6.442 -23.903  0.00  0.00    +0.017 C 
ATOM     18  C   UNL     1      33.182  -4.765 -25.433  0.00  0.00    +0.021 C 
ATOM     19  C   UNL     1      35.285  -5.907 -25.098  0.00  0.00    +0.021 C 
BRANCH  15  20
ATOM     20  S   UNL     1      35.076  -4.400 -27.359  0.00  0.00    +0.057 S 
ATOM     21  O   UNL     1      36.434  -4.882 -27.565  0.00  0.00    -0.153 OA
ATOM     22  O   UNL     1      34.071  -4.604 -28.393  0.00  0.00    -0.153 OA
BRANCH  20  23
ATOM     23  N   UNL     1      35.133  -2.737 -26.972  0.00  0.00    -0.203 NA
ATOM     24  H   UNL     1      34.189  -2.398 -26.786  0.00  0.00    +0.144 HD
ATOM     25  H   UNL     1      35.530  -2.219 -27.757  0.00  0.00    +0.144 HD
ENDBRANCH  20  23
ENDBRANCH  15  20
ENDBRANCH   4  14
BRANCH   6  26
ATOM     26  O   UNL     1      32.658 -11.201 -23.443  0.00  0.00    -0.453 OA
BRANCH  26  27
ATOM     27  C   UNL     1      33.883 -11.910 -23.452  0.00  0.00    +0.208 C 
BRANCH  27  28
ATOM     28  C   UNL     1      33.602 -13.357 -23.853  0.00  0.00    +0.044 C 
ATOM     29  C   UNL     1      33.634 -13.513 -25.379  0.00  0.00    +0.004 C 
ATOM     30  C   UNL     1      34.603 -14.308 -23.184  0.00  0.00    +0.004 C 
ATOM     31  C   UNL     1      33.408 -14.963 -25.803  0.00  0.00    +0.000 C 
ATOM     32  C   UNL     1      34.375 -15.757 -23.612  0.00  0.00    +0.000 C 
ATOM     33  C   UNL     1      34.400 -15.906 -25.130  0.00  0.00    +0.000 C 
ENDBRANCH  27  28
ENDBRANCH  26  27
ENDBRANCH   6  26
TORSDOF 6
ENDMDL
