MODEL 1
REMARK VINA RESULT:     -11.2      0.000      0.000
REMARK  Name = 491941
REMARK  5 active torsions:
REMARK  status: ('A' for Active; 'I' for Inactive)
REMARK    1  A    between atoms: C_5  and  C_17
REMARK    2  A    between atoms: C_7  and  S_11
REMARK    3  A    between atoms: S_11  and  N_14
REMARK    4  A    between atoms: C_17  and  C_18
REMARK    5  A    between atoms: C_21  and  C_25
REMARK                            x       y       z     vdW  Elec       q    Type
REMARK                         _______ _______ _______ _____ _____    ______ ____
ROOT
ATOM      1  S   UNL     1      34.640 -24.602 -13.373  0.00  0.00    -0.035 S 
ATOM      2  O   UNL     1      35.892 -22.582 -17.078  0.00  0.00    -0.274 OA
ATOM      3  N   UNL     1      34.201 -23.320 -15.617  0.00  0.00    -0.227 N 
ATOM      4  N   UNL     1      36.113 -22.686 -14.294  0.00  0.00    -0.386 NA
ATOM      5  C   UNL     1      34.717 -22.893 -16.866  0.00  0.00    +0.236 C 
ATOM      6  C   UNL     1      35.076 -23.412 -14.493  0.00  0.00    +0.217 C 
ATOM      7  C   UNL     1      36.008 -24.128 -12.455  0.00  0.00    +0.247 C 
ATOM      8  C   UNL     1      36.665 -23.101 -13.099  0.00  0.00    +0.123 C 
ATOM      9  C   UNL     1      32.781 -23.673 -15.454  0.00  0.00    +0.123 C 
ATOM     10  C   UNL     1      37.888 -22.423 -12.622  0.00  0.00    +0.064 C 
ENDROOT
BRANCH   7  11
ATOM     11  S   UNL     1      36.259 -25.012 -10.962  0.00  0.00    +0.052 S 
ATOM     12  O   UNL     1      37.201 -24.221 -10.176  0.00  0.00    -0.157 OA
ATOM     13  O   UNL     1      34.922 -25.291 -10.452  0.00  0.00    -0.157 OA
BRANCH  11  14
ATOM     14  N   UNL     1      37.018 -26.512 -11.327  0.00  0.00    -0.206 NA
ATOM     15  H   UNL     1      37.142 -26.594 -12.335  0.00  0.00    +0.144 HD
ATOM     16  H   UNL     1      36.435 -27.279 -10.991  0.00  0.00    +0.144 HD
ENDBRANCH  11  14
ENDBRANCH   7  11
BRANCH   5  17
ATOM     17  C   UNL     1      33.723 -22.863 -18.034  0.00  0.00    +0.112 C 
BRANCH  17  18
ATOM     18  C   UNL     1      33.991 -21.788 -19.031  0.00  0.00    -0.013 C 
ATOM     19  C   UNL     1      35.299 -21.522 -19.437  0.00  0.00    -0.004 C 
ATOM     20  C   UNL     1      32.933 -21.048 -19.560  0.00  0.00    -0.004 C 
ATOM     21  C   UNL     1      34.492 -19.776 -20.898  0.00  0.00    +0.018 C 
ATOM     22  C   UNL     1      35.550 -20.516 -20.370  0.00  0.00    +0.001 C 
ATOM     23  C   UNL     1      33.184 -20.042 -20.494  0.00  0.00    +0.001 C 
BRANCH  21  25
ATOM     24  N   UNL     1      35.009 -17.518 -21.337  0.00  0.00    -0.244 NA
ATOM     25  C   UNL     1      34.751 -18.733 -21.866  0.00  0.00    +0.081 C 
ATOM     26  C   UNL     1      34.728 -19.003 -23.223  0.00  0.00    +0.019 C 
ATOM     27  C   UNL     1      34.986 -17.953 -24.098  0.00  0.00    +0.003 C 
ATOM     28  C   UNL     1      35.255 -16.521 -22.217  0.00  0.00    +0.099 C 
ATOM     29  C   UNL     1      35.256 -16.685 -23.593  0.00  0.00    +0.021 C 
ENDBRANCH  21  25
ENDBRANCH  17  18
ENDBRANCH   5  17
TORSDOF 5
ENDMDL
MODEL 2
REMARK VINA RESULT:     -10.5      8.763     13.376
REMARK  Name = 491941
REMARK  5 active torsions:
REMARK  status: ('A' for Active; 'I' for Inactive)
REMARK    1  A    between atoms: C_5  and  C_17
REMARK    2  A    between atoms: C_7  and  S_11
REMARK    3  A    between atoms: S_11  and  N_14
REMARK    4  A    between atoms: C_17  and  C_18
REMARK    5  A    between atoms: C_21  and  C_25
REMARK                            x       y       z     vdW  Elec       q    Type
REMARK                         _______ _______ _______ _____ _____    ______ ____
ROOT
ATOM      1  S   UNL     1      32.925  -8.944 -23.251  0.00  0.00    -0.035 S 
ATOM      2  O   UNL     1      32.223 -13.163 -22.213  0.00  0.00    -0.274 OA
ATOM      3  N   UNL     1      33.520 -11.497 -23.253  0.00  0.00    -0.227 N 
ATOM      4  N   UNL     1      32.537 -10.554 -21.265  0.00  0.00    -0.386 NA
ATOM      5  C   UNL     1      33.072 -12.824 -23.043  0.00  0.00    +0.236 C 
ATOM      6  C   UNL     1      32.971 -10.440 -22.465  0.00  0.00    +0.217 C 
ATOM      7  C   UNL     1      32.226  -8.303 -21.823  0.00  0.00    +0.247 C 
ATOM      8  C   UNL     1      32.098  -9.302 -20.881  0.00  0.00    +0.123 C 
ATOM      9  C   UNL     1      34.539 -11.182 -24.267  0.00  0.00    +0.123 C 
ATOM     10  C   UNL     1      31.540  -9.144 -19.523  0.00  0.00    +0.064 C 
ENDROOT
BRANCH   7  11
ATOM     11  S   UNL     1      31.848  -6.592 -21.869  0.00  0.00    +0.052 S 
ATOM     12  O   UNL     1      30.434  -6.498 -22.219  0.00  0.00    -0.157 OA
ATOM     13  O   UNL     1      32.332  -6.057 -20.601  0.00  0.00    -0.157 OA
BRANCH  11  14
ATOM     14  N   UNL     1      32.747  -5.859 -23.139  0.00  0.00    -0.206 NA
ATOM     15  H   UNL     1      33.114  -6.582 -23.756  0.00  0.00    +0.144 HD
ATOM     16  H   UNL     1      33.520  -5.323 -22.744  0.00  0.00    +0.144 HD
ENDBRANCH  11  14
ENDBRANCH   7  11
BRANCH   5  17
ATOM     17  C   UNL     1      33.678 -13.895 -23.959  0.00  0.00    +0.112 C 
BRANCH  17  18
ATOM     18  C   UNL     1      34.145 -15.115 -23.240  0.00  0.00    -0.013 C 
ATOM     19  C   UNL     1      34.196 -15.127 -21.846  0.00  0.00    -0.004 C 
ATOM     20  C   UNL     1      34.532 -16.244 -23.962  0.00  0.00    -0.004 C 
ATOM     21  C   UNL     1      35.021 -17.397 -21.895  0.00  0.00    +0.018 C 
ATOM     22  C   UNL     1      34.633 -16.268 -21.173  0.00  0.00    +0.001 C 
ATOM     23  C   UNL     1      34.970 -17.385 -23.289  0.00  0.00    +0.001 C 
BRANCH  21  25
ATOM     24  N   UNL     1      36.792 -18.596 -20.904  0.00  0.00    -0.244 NA
ATOM     25  C   UNL     1      35.475 -18.581 -21.199  0.00  0.00    +0.081 C 
ATOM     26  C   UNL     1      34.592 -19.596 -20.876  0.00  0.00    +0.019 C 
ATOM     27  C   UNL     1      35.096 -20.706 -20.206  0.00  0.00    +0.003 C 
ATOM     28  C   UNL     1      37.247 -19.691 -20.252  0.00  0.00    +0.099 C 
ATOM     29  C   UNL     1      36.448 -20.761 -19.884  0.00  0.00    +0.021 C 
ENDBRANCH  21  25
ENDBRANCH  17  18
ENDBRANCH   5  17
TORSDOF 5
ENDMDL
MODEL 3
REMARK VINA RESULT:     -10.4      3.067      5.277
REMARK  Name = 491941
REMARK  5 active torsions:
REMARK  status: ('A' for Active; 'I' for Inactive)
REMARK    1  A    between atoms: C_5  and  C_17
REMARK    2  A    between atoms: C_7  and  S_11
REMARK    3  A    between atoms: S_11  and  N_14
REMARK    4  A    between atoms: C_17  and  C_18
REMARK    5  A    between atoms: C_21  and  C_25
REMARK                            x       y       z     vdW  Elec       q    Type
REMARK                         _______ _______ _______ _____ _____    ______ ____
ROOT
ATOM      1  S   UNL     1      36.440 -21.896 -17.577  0.00  0.00    -0.035 S 
ATOM      2  O   UNL     1      33.834 -19.922 -20.524  0.00  0.00    -0.274 OA
ATOM      3  N   UNL     1      35.894 -20.898 -19.938  0.00  0.00    -0.227 N 
ATOM      4  N   UNL     1      34.147 -22.065 -18.759  0.00  0.00    -0.386 NA
ATOM      5  C   UNL     1      35.044 -20.073 -20.715  0.00  0.00    +0.236 C 
ATOM      6  C   UNL     1      35.347 -21.627 -18.839  0.00  0.00    +0.217 C 
ATOM      7  C   UNL     1      35.176 -22.720 -16.762  0.00  0.00    +0.247 C 
ATOM      8  C   UNL     1      34.038 -22.708 -17.542  0.00  0.00    +0.123 C 
ATOM      9  C   UNL     1      37.330 -21.020 -20.240  0.00  0.00    +0.123 C 
ATOM     10  C   UNL     1      32.740 -23.317 -17.186  0.00  0.00    +0.064 C 
ENDROOT
BRANCH   7  11
ATOM     11  S   UNL     1      35.590 -23.370 -15.188  0.00  0.00    +0.052 S 
ATOM     12  O   UNL     1      36.925 -22.866 -14.879  0.00  0.00    -0.157 OA
ATOM     13  O   UNL     1      34.459 -23.043 -14.328  0.00  0.00    -0.157 OA
BRANCH  11  14
ATOM     14  N   UNL     1      35.697 -25.083 -15.307  0.00  0.00    -0.206 NA
ATOM     15  H   UNL     1      35.269 -25.391 -16.180  0.00  0.00    +0.144 HD
ATOM     16  H   UNL     1      35.208 -25.509 -14.519  0.00  0.00    +0.144 HD
ENDBRANCH  11  14
ENDBRANCH   7  11
BRANCH   5  17
ATOM     17  C   UNL     1      35.715 -19.289 -21.851  0.00  0.00    +0.112 C 
BRANCH  17  18
ATOM     18  C   UNL     1      35.211 -17.896 -22.007  0.00  0.00    -0.013 C 
ATOM     19  C   UNL     1      34.947 -17.117 -20.879  0.00  0.00    -0.004 C 
ATOM     20  C   UNL     1      35.002 -17.368 -23.282  0.00  0.00    -0.004 C 
ATOM     21  C   UNL     1      34.267 -15.287 -22.300  0.00  0.00    +0.018 C 
ATOM     22  C   UNL     1      34.476 -15.813 -21.026  0.00  0.00    +0.001 C 
ATOM     23  C   UNL     1      34.530 -16.064 -23.428  0.00  0.00    +0.001 C 
BRANCH  21  25
ATOM     24  N   UNL     1      34.321 -13.246 -23.480  0.00  0.00    -0.244 NA
ATOM     25  C   UNL     1      33.778 -13.934 -22.453  0.00  0.00    +0.081 C 
ATOM     26  C   UNL     1      32.824 -13.422 -21.590  0.00  0.00    +0.019 C 
ATOM     27  C   UNL     1      32.399 -12.114 -21.796  0.00  0.00    +0.003 C 
ATOM     28  C   UNL     1      33.883 -11.977 -23.649  0.00  0.00    +0.099 C 
ATOM     29  C   UNL     1      32.933 -11.371 -22.843  0.00  0.00    +0.021 C 
ENDBRANCH  21  25
ENDBRANCH  17  18
ENDBRANCH   5  17
TORSDOF 5
ENDMDL
MODEL 4
REMARK VINA RESULT:     -10.4      2.836      4.720
REMARK  Name = 491941
REMARK  5 active torsions:
REMARK  status: ('A' for Active; 'I' for Inactive)
REMARK    1  A    between atoms: C_5  and  C_17
REMARK    2  A    between atoms: C_7  and  S_11
REMARK    3  A    between atoms: S_11  and  N_14
REMARK    4  A    between atoms: C_17  and  C_18
REMARK    5  A    between atoms: C_21  and  C_25
REMARK                            x       y       z     vdW  Elec       q    Type
REMARK                         _______ _______ _______ _____ _____    ______ ____
ROOT
ATOM      1  S   UNL     1      35.440 -22.524 -16.896  0.00  0.00    -0.035 S 
ATOM      2  O   UNL     1      33.718 -20.157 -20.182  0.00  0.00    -0.274 OA
ATOM      3  N   UNL     1      35.398 -21.571 -19.337  0.00  0.00    -0.227 N 
ATOM      4  N   UNL     1      33.306 -22.197 -18.319  0.00  0.00    -0.386 NA
ATOM      5  C   UNL     1      34.864 -20.612 -20.233  0.00  0.00    +0.236 C 
ATOM      6  C   UNL     1      34.581 -22.074 -18.281  0.00  0.00    +0.217 C 
ATOM      7  C   UNL     1      33.936 -22.959 -16.198  0.00  0.00    +0.247 C 
ATOM      8  C   UNL     1      32.920 -22.717 -17.099  0.00  0.00    +0.123 C 
ATOM      9  C   UNL     1      36.780 -22.061 -19.473  0.00  0.00    +0.123 C 
ATOM     10  C   UNL     1      31.483 -22.965 -16.868  0.00  0.00    +0.064 C 
ENDROOT
BRANCH   7  11
ATOM     11  S   UNL     1      34.016 -23.593 -14.566  0.00  0.00    +0.052 S 
ATOM     12  O   UNL     1      32.804 -23.134 -13.893  0.00  0.00    -0.157 OA
ATOM     13  O   UNL     1      34.280 -25.019 -14.720  0.00  0.00    -0.157 OA
BRANCH  11  14
ATOM     14  N   UNL     1      35.358 -22.882 -13.759  0.00  0.00    -0.206 NA
ATOM     15  H   UNL     1      35.563 -21.974 -14.177  0.00  0.00    +0.144 HD
ATOM     16  H   UNL     1      36.171 -23.491 -13.851  0.00  0.00    +0.144 HD
ENDBRANCH  11  14
ENDBRANCH   7  11
BRANCH   5  17
ATOM     17  C   UNL     1      35.819 -20.090 -21.314  0.00  0.00    +0.112 C 
BRANCH  17  18
ATOM     18  C   UNL     1      35.419 -18.777 -21.894  0.00  0.00    -0.013 C 
ATOM     19  C   UNL     1      35.292 -17.658 -21.070  0.00  0.00    -0.004 C 
ATOM     20  C   UNL     1      35.171 -18.666 -23.263  0.00  0.00    -0.004 C 
ATOM     21  C   UNL     1      34.670 -16.319 -22.981  0.00  0.00    +0.018 C 
ATOM     22  C   UNL     1      34.918 -16.430 -21.613  0.00  0.00    +0.001 C 
ATOM     23  C   UNL     1      34.797 -17.436 -23.806  0.00  0.00    +0.001 C 
BRANCH  21  25
ATOM     24  N   UNL     1      34.516 -13.977 -22.752  0.00  0.00    -0.244 NA
ATOM     25  C   UNL     1      34.282 -15.044 -23.545  0.00  0.00    +0.081 C 
ATOM     26  C   UNL     1      33.718 -14.969 -24.807  0.00  0.00    +0.019 C 
ATOM     27  C   UNL     1      33.370 -13.712 -25.287  0.00  0.00    +0.003 C 
ATOM     28  C   UNL     1      34.164 -12.771 -23.252  0.00  0.00    +0.099 C 
ATOM     29  C   UNL     1      33.594 -12.586 -24.501  0.00  0.00    +0.021 C 
ENDBRANCH  21  25
ENDBRANCH  17  18
ENDBRANCH   5  17
TORSDOF 5
ENDMDL
MODEL 5
REMARK VINA RESULT:     -10.1      2.415      3.412
REMARK  Name = 491941
REMARK  5 active torsions:
REMARK  status: ('A' for Active; 'I' for Inactive)
REMARK    1  A    between atoms: C_5  and  C_17
REMARK    2  A    between atoms: C_7  and  S_11
REMARK    3  A    between atoms: S_11  and  N_14
REMARK    4  A    between atoms: C_17  and  C_18
REMARK    5  A    between atoms: C_21  and  C_25
REMARK                            x       y       z     vdW  Elec       q    Type
REMARK                         _______ _______ _______ _____ _____    ______ ____
ROOT
ATOM      1  S   UNL     1      34.898 -22.925 -14.885  0.00  0.00    -0.035 S 
ATOM      2  O   UNL     1      34.101 -21.622 -19.013  0.00  0.00    -0.274 OA
ATOM      3  N   UNL     1      35.575 -22.440 -17.371  0.00  0.00    -0.227 N 
ATOM      4  N   UNL     1      33.387 -23.352 -16.939  0.00  0.00    -0.386 NA
ATOM      5  C   UNL     1      35.247 -21.800 -18.591  0.00  0.00    +0.236 C 
ATOM      6  C   UNL     1      34.527 -22.931 -16.535  0.00  0.00    +0.217 C 
ATOM      7  C   UNL     1      33.335 -23.572 -14.610  0.00  0.00    +0.247 C 
ATOM      8  C   UNL     1      32.681 -23.731 -15.814  0.00  0.00    +0.123 C 
ATOM      9  C   UNL     1      36.974 -22.611 -16.945  0.00  0.00    +0.123 C 
ATOM     10  C   UNL     1      31.315 -24.263 -15.992  0.00  0.00    +0.064 C 
ENDROOT
BRANCH   7  11
ATOM     11  S   UNL     1      32.929 -23.881 -12.933  0.00  0.00    +0.052 S 
ATOM     12  O   UNL     1      34.197 -23.925 -12.211  0.00  0.00    -0.157 OA
ATOM     13  O   UNL     1      31.919 -22.885 -12.593  0.00  0.00    -0.157 OA
BRANCH  11  14
ATOM     14  N   UNL     1      32.210 -25.439 -12.814  0.00  0.00    -0.206 NA
ATOM     15  H   UNL     1      31.268 -25.409 -13.203  0.00  0.00    +0.144 HD
ATOM     16  H   UNL     1      32.166 -25.718 -11.834  0.00  0.00    +0.144 HD
ENDBRANCH  11  14
ENDBRANCH   7  11
BRANCH   5  17
ATOM     17  C   UNL     1      36.427 -21.263 -19.411  0.00  0.00    +0.112 C 
BRANCH  17  18
ATOM     18  C   UNL     1      36.069 -20.148 -20.333  0.00  0.00    -0.013 C 
ATOM     19  C   UNL     1      36.984 -19.123 -20.578  0.00  0.00    -0.004 C 
ATOM     20  C   UNL     1      34.818 -20.128 -20.951  0.00  0.00    -0.004 C 
ATOM     21  C   UNL     1      35.398 -18.060 -22.058  0.00  0.00    +0.018 C 
ATOM     22  C   UNL     1      36.649 -18.080 -21.441  0.00  0.00    +0.001 C 
ATOM     23  C   UNL     1      34.483 -19.083 -21.813  0.00  0.00    +0.001 C 
BRANCH  21  25
ATOM     24  N   UNL     1      34.795 -15.798 -22.346  0.00  0.00    -0.244 NA
ATOM     25  C   UNL     1      35.050 -16.977 -22.952  0.00  0.00    +0.081 C 
ATOM     26  C   UNL     1      34.994 -17.178 -24.320  0.00  0.00    +0.019 C 
ATOM     27  C   UNL     1      34.653 -16.094 -25.122  0.00  0.00    +0.003 C 
ATOM     28  C   UNL     1      34.466 -14.767 -23.156  0.00  0.00    +0.099 C 
ATOM     29  C   UNL     1      34.383 -14.861 -24.536  0.00  0.00    +0.021 C 
ENDBRANCH  21  25
ENDBRANCH  17  18
ENDBRANCH   5  17
TORSDOF 5
ENDMDL
MODEL 6
REMARK VINA RESULT:     -10.0      5.422     10.742
REMARK  Name = 491941
REMARK  5 active torsions:
REMARK  status: ('A' for Active; 'I' for Inactive)
REMARK    1  A    between atoms: C_5  and  C_17
REMARK    2  A    between atoms: C_7  and  S_11
REMARK    3  A    between atoms: S_11  and  N_14
REMARK    4  A    between atoms: C_17  and  C_18
REMARK    5  A    between atoms: C_21  and  C_25
REMARK                            x       y       z     vdW  Elec       q    Type
REMARK                         _______ _______ _______ _____ _____    ______ ____
ROOT
ATOM      1  S   UNL     1      34.834 -16.355 -23.516  0.00  0.00    -0.035 S 
ATOM      2  O   UNL     1      33.967 -19.011 -20.114  0.00  0.00    -0.274 OA
ATOM      3  N   UNL     1      35.380 -18.315 -21.864  0.00  0.00    -0.227 N 
ATOM      4  N   UNL     1      34.243 -16.375 -20.998  0.00  0.00    -0.386 NA
ATOM      5  C   UNL     1      34.891 -19.233 -20.902  0.00  0.00    +0.236 C 
ATOM      6  C   UNL     1      34.783 -17.022 -21.962  0.00  0.00    +0.217 C 
ATOM      7  C   UNL     1      34.024 -14.988 -22.870  0.00  0.00    +0.247 C 
ATOM      8  C   UNL     1      33.795 -15.179 -21.524  0.00  0.00    +0.123 C 
ATOM      9  C   UNL     1      36.491 -18.666 -22.764  0.00  0.00    +0.123 C 
ATOM     10  C   UNL     1      33.123 -14.226 -20.617  0.00  0.00    +0.064 C 
ENDROOT
BRANCH   7  11
ATOM     11  S   UNL     1      33.682 -13.704 -24.012  0.00  0.00    +0.052 S 
ATOM     12  O   UNL     1      34.174 -14.169 -25.306  0.00  0.00    -0.157 OA
ATOM     13  O   UNL     1      32.269 -13.392 -23.828  0.00  0.00    -0.157 OA
BRANCH  11  14
ATOM     14  N   UNL     1      34.600 -12.315 -23.577  0.00  0.00    -0.206 NA
ATOM     15  H   UNL     1      34.930 -12.414 -22.618  0.00  0.00    +0.144 HD
ATOM     16  H   UNL     1      34.014 -11.484 -23.652  0.00  0.00    +0.144 HD
ENDBRANCH  11  14
ENDBRANCH   7  11
BRANCH   5  17
ATOM     17  C   UNL     1      35.556 -20.616 -20.887  0.00  0.00    +0.112 C 
BRANCH  17  18
ATOM     18  C   UNL     1      35.499 -21.303 -19.566  0.00  0.00    -0.013 C 
ATOM     19  C   UNL     1      36.617 -21.302 -18.730  0.00  0.00    -0.004 C 
ATOM     20  C   UNL     1      34.329 -21.948 -19.165  0.00  0.00    -0.004 C 
ATOM     21  C   UNL     1      35.394 -22.591 -17.094  0.00  0.00    +0.018 C 
ATOM     22  C   UNL     1      36.564 -21.946 -17.494  0.00  0.00    +0.001 C 
ATOM     23  C   UNL     1      34.276 -22.592 -17.929  0.00  0.00    +0.001 C 
BRANCH  21  25
ATOM     24  N   UNL     1      36.538 -23.598 -15.295  0.00  0.00    -0.244 NA
ATOM     25  C   UNL     1      35.338 -23.258 -15.811  0.00  0.00    +0.081 C 
ATOM     26  C   UNL     1      34.125 -23.509 -15.194  0.00  0.00    +0.019 C 
ATOM     27  C   UNL     1      34.145 -24.154 -13.962  0.00  0.00    +0.003 C 
ATOM     28  C   UNL     1      36.519 -24.224 -14.096  0.00  0.00    +0.099 C 
ATOM     29  C   UNL     1      35.361 -24.522 -13.396  0.00  0.00    +0.021 C 
ENDBRANCH  21  25
ENDBRANCH  17  18
ENDBRANCH   5  17
TORSDOF 5
ENDMDL
MODEL 7
REMARK VINA RESULT:      -9.6      8.195     12.142
REMARK  Name = 491941
REMARK  5 active torsions:
REMARK  status: ('A' for Active; 'I' for Inactive)
REMARK    1  A    between atoms: C_5  and  C_17
REMARK    2  A    between atoms: C_7  and  S_11
REMARK    3  A    between atoms: S_11  and  N_14
REMARK    4  A    between atoms: C_17  and  C_18
REMARK    5  A    between atoms: C_21  and  C_25
REMARK                            x       y       z     vdW  Elec       q    Type
REMARK                         _______ _______ _______ _____ _____    ______ ____
ROOT
ATOM      1  S   UNL     1      34.606 -16.488 -21.089  0.00  0.00    -0.035 S 
ATOM      2  O   UNL     1      32.143 -13.359 -22.965  0.00  0.00    -0.274 OA
ATOM      3  N   UNL     1      33.599 -14.074 -21.259  0.00  0.00    -0.227 N 
ATOM      4  N   UNL     1      34.220 -15.199 -23.297  0.00  0.00    -0.386 NA
ATOM      5  C   UNL     1      32.613 -13.232 -21.830  0.00  0.00    +0.236 C 
ATOM      6  C   UNL     1      34.114 -15.166 -22.021  0.00  0.00    +0.217 C 
ATOM      7  C   UNL     1      35.037 -17.262 -22.557  0.00  0.00    +0.247 C 
ATOM      8  C   UNL     1      34.762 -16.427 -23.619  0.00  0.00    +0.123 C 
ATOM      9  C   UNL     1      34.104 -13.848 -19.894  0.00  0.00    +0.123 C 
ATOM     10  C   UNL     1      34.995 -16.736 -25.045  0.00  0.00    +0.064 C 
ENDROOT
BRANCH   7  11
ATOM     11  S   UNL     1      35.708 -18.873 -22.393  0.00  0.00    +0.052 S 
ATOM     12  O   UNL     1      35.031 -19.699 -23.389  0.00  0.00    -0.157 OA
ATOM     13  O   UNL     1      37.155 -18.694 -22.442  0.00  0.00    -0.157 OA
BRANCH  11  14
ATOM     14  N   UNL     1      35.296 -19.490 -20.841  0.00  0.00    -0.206 NA
ATOM     15  H   UNL     1      36.121 -19.484 -20.243  0.00  0.00    +0.144 HD
ATOM     16  H   UNL     1      34.951 -20.446 -20.936  0.00  0.00    +0.144 HD
ENDBRANCH  11  14
ENDBRANCH   7  11
BRANCH   5  17
ATOM     17  C   UNL     1      32.079 -12.109 -20.932  0.00  0.00    +0.112 C 
BRANCH  17  18
ATOM     18  C   UNL     1      32.173 -10.751 -21.537  0.00  0.00    -0.013 C 
ATOM     19  C   UNL     1      31.646  -9.648 -20.864  0.00  0.00    -0.004 C 
ATOM     20  C   UNL     1      32.789 -10.581 -22.778  0.00  0.00    -0.004 C 
ATOM     21  C   UNL     1      32.349  -8.207 -22.671  0.00  0.00    +0.018 C 
ATOM     22  C   UNL     1      31.734  -8.377 -21.430  0.00  0.00    +0.001 C 
ATOM     23  C   UNL     1      32.877  -9.309 -23.345  0.00  0.00    +0.001 C 
BRANCH  21  25
ATOM     24  N   UNL     1      31.456  -6.037 -22.900  0.00  0.00    -0.244 NA
ATOM     25  C   UNL     1      32.441  -6.889 -23.259  0.00  0.00    +0.081 C 
ATOM     26  C   UNL     1      33.476  -6.566 -24.119  0.00  0.00    +0.019 C 
ATOM     27  C   UNL     1      33.503  -5.280 -24.647  0.00  0.00    +0.003 C 
ATOM     28  C   UNL     1      31.515  -4.796 -23.434  0.00  0.00    +0.099 C 
ATOM     29  C   UNL     1      32.507  -4.372 -24.303  0.00  0.00    +0.021 C 
ENDBRANCH  21  25
ENDBRANCH  17  18
ENDBRANCH   5  17
TORSDOF 5
ENDMDL
MODEL 8
REMARK VINA RESULT:      -9.1      3.699      6.388
REMARK  Name = 491941
REMARK  5 active torsions:
REMARK  status: ('A' for Active; 'I' for Inactive)
REMARK    1  A    between atoms: C_5  and  C_17
REMARK    2  A    between atoms: C_7  and  S_11
REMARK    3  A    between atoms: S_11  and  N_14
REMARK    4  A    between atoms: C_17  and  C_18
REMARK    5  A    between atoms: C_21  and  C_25
REMARK                            x       y       z     vdW  Elec       q    Type
REMARK                         _______ _______ _______ _____ _____    ______ ____
ROOT
ATOM      1  S   UNL     1      37.163 -20.328 -18.573  0.00  0.00    -0.035 S 
ATOM      2  O   UNL     1      34.128 -19.636 -21.685  0.00  0.00    -0.274 OA
ATOM      3  N   UNL     1      36.374 -19.655 -20.980  0.00  0.00    -0.227 N 
ATOM      4  N   UNL     1      35.218 -21.447 -19.858  0.00  0.00    -0.386 NA
ATOM      5  C   UNL     1      35.298 -19.265 -21.816  0.00  0.00    +0.236 C 
ATOM      6  C   UNL     1      36.126 -20.545 -19.892  0.00  0.00    +0.217 C 
ATOM      7  C   UNL     1      36.320 -21.605 -17.800  0.00  0.00    +0.247 C 
ATOM      8  C   UNL     1      35.326 -22.074 -18.633  0.00  0.00    +0.123 C 
ATOM      9  C   UNL     1      37.742 -19.163 -21.211  0.00  0.00    +0.123 C 
ATOM     10  C   UNL     1      34.386 -23.172 -18.324  0.00  0.00    +0.064 C 
ENDROOT
BRANCH   7  11
ATOM     11  S   UNL     1      36.886 -22.020 -16.194  0.00  0.00    +0.052 S 
ATOM     12  O   UNL     1      37.919 -21.043 -15.863  0.00  0.00    -0.157 OA
ATOM     13  O   UNL     1      35.681 -22.126 -15.378  0.00  0.00    -0.157 OA
BRANCH  11  14
ATOM     14  N   UNL     1      37.634 -23.568 -16.251  0.00  0.00    -0.206 NA
ATOM     15  H   UNL     1      38.230 -23.626 -17.075  0.00  0.00    +0.144 HD
ATOM     16  H   UNL     1      36.915 -24.291 -16.298  0.00  0.00    +0.144 HD
ENDBRANCH  11  14
ENDBRANCH   7  11
BRANCH   5  17
ATOM     17  C   UNL     1      35.636 -18.273 -22.936  0.00  0.00    +0.112 C 
BRANCH  17  18
ATOM     18  C   UNL     1      35.004 -16.934 -22.774  0.00  0.00    -0.013 C 
ATOM     19  C   UNL     1      34.914 -16.353 -21.508  0.00  0.00    -0.004 C 
ATOM     20  C   UNL     1      34.501 -16.261 -23.888  0.00  0.00    -0.004 C 
ATOM     21  C   UNL     1      33.819 -14.427 -22.470  0.00  0.00    +0.018 C 
ATOM     22  C   UNL     1      34.322 -15.099 -21.356  0.00  0.00    +0.001 C 
ATOM     23  C   UNL     1      33.908 -15.007 -23.735  0.00  0.00    +0.001 C 
BRANCH  21  25
ATOM     24  N   UNL     1      33.682 -12.169 -23.137  0.00  0.00    -0.244 NA
ATOM     25  C   UNL     1      33.204 -13.126 -22.313  0.00  0.00    +0.081 C 
ATOM     26  C   UNL     1      32.205 -12.922 -21.379  0.00  0.00    +0.019 C 
ATOM     27  C   UNL     1      31.658 -11.646 -21.282  0.00  0.00    +0.003 C 
ATOM     28  C   UNL     1      33.128 -10.942 -23.015  0.00  0.00    +0.099 C 
ATOM     29  C   UNL     1      32.123 -10.632 -22.112  0.00  0.00    +0.021 C 
ENDBRANCH  21  25
ENDBRANCH  17  18
ENDBRANCH   5  17
TORSDOF 5
ENDMDL
MODEL 9
REMARK VINA RESULT:      -9.0     12.639     17.282
REMARK  Name = 491941
REMARK  5 active torsions:
REMARK  status: ('A' for Active; 'I' for Inactive)
REMARK    1  A    between atoms: C_5  and  C_17
REMARK    2  A    between atoms: C_7  and  S_11
REMARK    3  A    between atoms: S_11  and  N_14
REMARK    4  A    between atoms: C_17  and  C_18
REMARK    5  A    between atoms: C_21  and  C_25
REMARK                            x       y       z     vdW  Elec       q    Type
REMARK                         _______ _______ _______ _____ _____    ______ ____
ROOT
ATOM      1  S   UNL     1      34.792  -5.881 -24.907  0.00  0.00    -0.035 S 
ATOM      2  O   UNL     1      30.954  -7.400 -23.379  0.00  0.00    -0.274 OA
ATOM      3  N   UNL     1      33.257  -7.003 -23.102  0.00  0.00    -0.227 N 
ATOM      4  N   UNL     1      32.340  -5.213 -24.429  0.00  0.00    -0.386 NA
ATOM      5  C   UNL     1      32.026  -7.643 -22.817  0.00  0.00    +0.236 C 
ATOM      6  C   UNL     1      33.304  -5.994 -24.110  0.00  0.00    +0.217 C 
ATOM      7  C   UNL     1      34.111  -4.611 -25.835  0.00  0.00    +0.247 C 
ATOM      8  C   UNL     1      32.806  -4.397 -25.441  0.00  0.00    +0.123 C 
ATOM      9  C   UNL     1      34.491  -7.358 -22.381  0.00  0.00    +0.123 C 
ATOM     10  C   UNL     1      31.887  -3.387 -26.003  0.00  0.00    +0.064 C 
ENDROOT
BRANCH   7  11
ATOM     11  S   UNL     1      35.175  -3.891 -27.026  0.00  0.00    +0.052 S 
ATOM     12  O   UNL     1      35.080  -2.446 -26.836  0.00  0.00    -0.157 OA
ATOM     13  O   UNL     1      36.453  -4.574 -26.862  0.00  0.00    -0.157 OA
BRANCH  11  14
ATOM     14  N   UNL     1      34.572  -4.248 -28.597  0.00  0.00    -0.206 NA
ATOM     15  H   UNL     1      34.781  -5.218 -28.828  0.00  0.00    +0.144 HD
ATOM     16  H   UNL     1      35.016  -3.632 -29.279  0.00  0.00    +0.144 HD
ENDBRANCH  11  14
ENDBRANCH   7  11
BRANCH   5  17
ATOM     17  C   UNL     1      32.067  -8.746 -21.752  0.00  0.00    +0.112 C 
BRANCH  17  18
ATOM     18  C   UNL     1      32.526 -10.069 -22.264  0.00  0.00    -0.013 C 
ATOM     19  C   UNL     1      33.382 -10.132 -23.365  0.00  0.00    -0.004 C 
ATOM     20  C   UNL     1      32.100 -11.243 -21.643  0.00  0.00    -0.004 C 
ATOM     21  C   UNL     1      33.384 -12.544 -23.224  0.00  0.00    +0.018 C 
ATOM     22  C   UNL     1      33.811 -11.370 -23.844  0.00  0.00    +0.001 C 
ATOM     23  C   UNL     1      32.529 -12.481 -22.124  0.00  0.00    +0.001 C 
BRANCH  21  25
ATOM     24  N   UNL     1      33.403 -14.135 -24.964  0.00  0.00    -0.244 NA
ATOM     25  C   UNL     1      33.829 -13.828 -23.720  0.00  0.00    +0.081 C 
ATOM     26  C   UNL     1      34.631 -14.648 -22.947  0.00  0.00    +0.019 C 
ATOM     27  C   UNL     1      35.022 -15.869 -23.487  0.00  0.00    +0.003 C 
ATOM     28  C   UNL     1      33.802 -15.329 -25.456  0.00  0.00    +0.099 C 
ATOM     29  C   UNL     1      34.604 -16.223 -24.765  0.00  0.00    +0.021 C 
ENDBRANCH  21  25
ENDBRANCH  17  18
ENDBRANCH   5  17
TORSDOF 5
ENDMDL
