MODEL 1
REMARK VINA RESULT:     -12.4      0.000      0.000
REMARK  Name = 5288607
REMARK  4 active torsions:
REMARK  status: ('A' for Active; 'I' for Inactive)
REMARK    1  A    between atoms: N_2  and  C_19
REMARK    2  A    between atoms: C_3  and  C_6
REMARK    3  A    between atoms: C_5  and  C_16
REMARK    4  A    between atoms: C_19  and  C_21
REMARK                            x       y       z     vdW  Elec       q    Type
REMARK                         _______ _______ _______ _____ _____    ______ ____
ROOT
ATOM      1  O   UNL     1      34.948 -16.450 -25.728  0.00  0.00    -0.270 OA
ATOM      2  N   UNL     1      33.751 -14.977 -24.387  0.00  0.00    -0.270 N 
ATOM      3  C   UNL     1      34.634 -16.037 -24.612  0.00  0.00    +0.249 C 
ATOM      4  C   UNL     1      33.146 -14.297 -25.525  0.00  0.00    +0.116 C 
ENDROOT
BRANCH   3   6
ATOM      5  C   UNL     1      35.024 -18.032 -23.209  0.00  0.00    +0.006 C 
ATOM      6  C   UNL     1      35.186 -16.700 -23.393  0.00  0.00    +0.058 C 
BRANCH   5  16
ATOM      7  O   UNL     1      36.676 -22.410 -17.091  0.00  0.00    -0.275 OA
ATOM      8  N   UNL     1      36.926 -20.850 -18.756  0.00  0.00    -0.270 N 
ATOM      9  N   UNL     1      37.266 -19.291 -20.503  0.00  0.00    -0.229 NA
ATOM     10  C   UNL     1      34.217 -21.265 -19.482  0.00  0.00    +0.039 C 
ATOM     11  C   UNL     1      35.118 -20.376 -20.286  0.00  0.00    +0.010 C 
ATOM     12  C   UNL     1      35.011 -22.378 -18.815  0.00  0.00    +0.090 C 
ATOM     13  C   UNL     1      36.435 -20.160 -19.882  0.00  0.00    +0.130 C 
ATOM     14  C   UNL     1      34.645 -19.664 -21.389  0.00  0.00    +0.000 C 
ATOM     15  C   UNL     1      36.255 -21.871 -18.115  0.00  0.00    +0.227 C 
ATOM     16  C   UNL     1      35.487 -18.783 -22.056  0.00  0.00    +0.019 C 
ATOM     17  C   UNL     1      36.776 -18.630 -21.575  0.00  0.00    +0.100 C 
ATOM     18  H   UNL     1      37.806 -20.585 -18.404  0.00  0.00    +0.156 HD
ENDBRANCH   5  16
ENDBRANCH   3   6
BRANCH   2  19
ATOM     19  C   UNL     1      33.338 -14.492 -23.072  0.00  0.00    +0.122 C 
BRANCH  19  21
ATOM     20  N   UNL     1      33.970 -10.921 -23.498  0.00  0.00    -0.284 N 
ATOM     21  C   UNL     1      33.394 -13.003 -23.046  0.00  0.00    +0.014 C 
ATOM     22  C   UNL     1      32.612 -12.154 -22.228  0.00  0.00    +0.013 C 
ATOM     23  C   UNL     1      32.993 -10.845 -22.531  0.00  0.00    +0.051 C 
ATOM     24  C   UNL     1      34.219 -12.229 -23.816  0.00  0.00    +0.063 C 
ATOM     25  C   UNL     1      31.613 -12.361 -21.256  0.00  0.00    +0.001 C 
ATOM     26  C   UNL     1      32.423  -9.729 -21.909  0.00  0.00    +0.015 C 
ATOM     27  C   UNL     1      34.645  -9.791 -24.102  0.00  0.00    +0.117 C 
ATOM     28  C   UNL     1      31.035 -11.255 -20.624  0.00  0.00    +0.000 C 
ATOM     29  C   UNL     1      31.435  -9.960 -20.947  0.00  0.00    +0.001 C 
ENDBRANCH  19  21
ENDBRANCH   2  19
TORSDOF 4
ENDMDL
MODEL 2
REMARK VINA RESULT:     -11.8      1.847      2.827
REMARK  Name = 5288607
REMARK  4 active torsions:
REMARK  status: ('A' for Active; 'I' for Inactive)
REMARK    1  A    between atoms: N_2  and  C_19
REMARK    2  A    between atoms: C_3  and  C_6
REMARK    3  A    between atoms: C_5  and  C_16
REMARK    4  A    between atoms: C_19  and  C_21
REMARK                            x       y       z     vdW  Elec       q    Type
REMARK                         _______ _______ _______ _____ _____    ______ ____
ROOT
ATOM      1  O   UNL     1      34.576 -19.402 -24.375  0.00  0.00    -0.270 OA
ATOM      2  N   UNL     1      34.940 -17.281 -23.497  0.00  0.00    -0.270 N 
ATOM      3  C   UNL     1      34.919 -18.677 -23.441  0.00  0.00    +0.249 C 
ATOM      4  C   UNL     1      34.534 -16.609 -24.725  0.00  0.00    +0.116 C 
ENDROOT
BRANCH   3   6
ATOM      5  C   UNL     1      34.530 -20.218 -21.550  0.00  0.00    +0.006 C 
ATOM      6  C   UNL     1      35.319 -19.287 -22.137  0.00  0.00    +0.058 C 
BRANCH   5  16
ATOM      7  O   UNL     1      35.071 -23.844 -14.776  0.00  0.00    -0.275 OA
ATOM      8  N   UNL     1      35.683 -22.635 -16.630  0.00  0.00    -0.270 N 
ATOM      9  N   UNL     1      36.386 -21.459 -18.558  0.00  0.00    -0.229 NA
ATOM     10  C   UNL     1      32.970 -22.622 -17.453  0.00  0.00    +0.039 C 
ATOM     11  C   UNL     1      34.057 -22.060 -18.320  0.00  0.00    +0.010 C 
ATOM     12  C   UNL     1      33.502 -23.752 -16.586  0.00  0.00    +0.090 C 
ATOM     13  C   UNL     1      35.377 -22.044 -17.871  0.00  0.00    +0.130 C 
ATOM     14  C   UNL     1      33.773 -21.446 -19.541  0.00  0.00    +0.000 C 
ATOM     15  C   UNL     1      34.800 -23.396 -15.890  0.00  0.00    +0.227 C 
ATOM     16  C   UNL     1      34.796 -20.858 -20.274  0.00  0.00    +0.019 C 
ATOM     17  C   UNL     1      36.073 -20.888 -19.742  0.00  0.00    +0.100 C 
ATOM     18  H   UNL     1      36.587 -22.497 -16.266  0.00  0.00    +0.156 HD
ENDBRANCH   5  16
ENDBRANCH   3   6
BRANCH   2  19
ATOM     19  C   UNL     1      35.311 -16.400 -22.391  0.00  0.00    +0.122 C 
BRANCH  19  21
ATOM     20  N   UNL     1      34.024 -13.126 -23.367  0.00  0.00    -0.284 N 
ATOM     21  C   UNL     1      34.631 -15.084 -22.549  0.00  0.00    +0.014 C 
ATOM     22  C   UNL     1      33.686 -14.521 -21.659  0.00  0.00    +0.013 C 
ATOM     23  C   UNL     1      33.317 -13.286 -22.196  0.00  0.00    +0.051 C 
ATOM     24  C   UNL     1      34.825 -14.213 -23.587  0.00  0.00    +0.063 C 
ATOM     25  C   UNL     1      33.100 -14.936 -20.447  0.00  0.00    +0.001 C 
ATOM     26  C   UNL     1      32.388 -12.441 -21.579  0.00  0.00    +0.015 C 
ATOM     27  C   UNL     1      33.942 -11.979 -24.247  0.00  0.00    +0.117 C 
ATOM     28  C   UNL     1      32.170 -14.101 -19.817  0.00  0.00    +0.000 C 
ATOM     29  C   UNL     1      31.821 -12.874 -20.376  0.00  0.00    +0.001 C 
ENDBRANCH  19  21
ENDBRANCH   2  19
TORSDOF 4
ENDMDL
MODEL 3
REMARK VINA RESULT:     -11.7      1.952      3.379
REMARK  Name = 5288607
REMARK  4 active torsions:
REMARK  status: ('A' for Active; 'I' for Inactive)
REMARK    1  A    between atoms: N_2  and  C_19
REMARK    2  A    between atoms: C_3  and  C_6
REMARK    3  A    between atoms: C_5  and  C_16
REMARK    4  A    between atoms: C_19  and  C_21
REMARK                            x       y       z     vdW  Elec       q    Type
REMARK                         _______ _______ _______ _____ _____    ______ ____
ROOT
ATOM      1  O   UNL     1      34.441 -19.227 -24.409  0.00  0.00    -0.270 OA
ATOM      2  N   UNL     1      35.119 -17.145 -23.628  0.00  0.00    -0.270 N 
ATOM      3  C   UNL     1      34.932 -18.526 -23.524  0.00  0.00    +0.249 C 
ATOM      4  C   UNL     1      34.716 -16.461 -24.850  0.00  0.00    +0.116 C 
ENDROOT
BRANCH   3   6
ATOM      5  C   UNL     1      34.565 -20.096 -21.652  0.00  0.00    +0.006 C 
ATOM      6  C   UNL     1      35.341 -19.147 -22.228  0.00  0.00    +0.058 C 
BRANCH   5  16
ATOM      7  O   UNL     1      35.159 -23.789 -14.919  0.00  0.00    -0.275 OA
ATOM      8  N   UNL     1      35.756 -22.560 -16.764  0.00  0.00    -0.270 N 
ATOM      9  N   UNL     1      36.444 -21.362 -18.685  0.00  0.00    -0.229 NA
ATOM     10  C   UNL     1      33.038 -22.545 -17.570  0.00  0.00    +0.039 C 
ATOM     11  C   UNL     1      34.117 -21.971 -18.438  0.00  0.00    +0.010 C 
ATOM     12  C   UNL     1      33.578 -23.683 -16.718  0.00  0.00    +0.090 C 
ATOM     13  C   UNL     1      35.440 -21.958 -17.997  0.00  0.00    +0.130 C 
ATOM     14  C   UNL     1      33.824 -21.347 -19.651  0.00  0.00    +0.000 C 
ATOM     15  C   UNL     1      34.879 -23.331 -16.027  0.00  0.00    +0.227 C 
ATOM     16  C   UNL     1      34.841 -20.748 -20.385  0.00  0.00    +0.019 C 
ATOM     17  C   UNL     1      36.121 -20.781 -19.861  0.00  0.00    +0.100 C 
ATOM     18  H   UNL     1      36.662 -22.423 -16.404  0.00  0.00    +0.156 HD
ENDBRANCH   5  16
ENDBRANCH   3   6
BRANCH   2  19
ATOM     19  C   UNL     1      35.667 -16.289 -22.579  0.00  0.00    +0.122 C 
BRANCH  19  21
ATOM     20  N   UNL     1      32.936 -15.034 -20.507  0.00  0.00    -0.284 N 
ATOM     21  C   UNL     1      34.562 -15.550 -21.906  0.00  0.00    +0.014 C 
ATOM     22  C   UNL     1      34.061 -14.280 -22.279  0.00  0.00    +0.013 C 
ATOM     23  C   UNL     1      33.036 -13.975 -21.382  0.00  0.00    +0.051 C 
ATOM     24  C   UNL     1      33.859 -15.994 -20.820  0.00  0.00    +0.063 C 
ATOM     25  C   UNL     1      34.374 -13.351 -23.292  0.00  0.00    +0.001 C 
ATOM     26  C   UNL     1      32.305 -12.784 -21.445  0.00  0.00    +0.015 C 
ATOM     27  C   UNL     1      31.996 -15.131 -19.410  0.00  0.00    +0.117 C 
ATOM     28  C   UNL     1      33.651 -12.156 -23.369  0.00  0.00    +0.000 C 
ATOM     29  C   UNL     1      32.633 -11.878 -22.459  0.00  0.00    +0.001 C 
ENDBRANCH  19  21
ENDBRANCH   2  19
TORSDOF 4
ENDMDL
MODEL 4
REMARK VINA RESULT:     -11.6      5.702     12.254
REMARK  Name = 5288607
REMARK  4 active torsions:
REMARK  status: ('A' for Active; 'I' for Inactive)
REMARK    1  A    between atoms: N_2  and  C_19
REMARK    2  A    between atoms: C_3  and  C_6
REMARK    3  A    between atoms: C_5  and  C_16
REMARK    4  A    between atoms: C_19  and  C_21
REMARK                            x       y       z     vdW  Elec       q    Type
REMARK                         _______ _______ _______ _____ _____    ______ ____
ROOT
ATOM      1  O   UNL     1      30.901 -24.411 -15.971  0.00  0.00    -0.270 OA
ATOM      2  N   UNL     1      32.271 -24.056 -14.127  0.00  0.00    -0.270 N 
ATOM      3  C   UNL     1      31.847 -23.829 -15.439  0.00  0.00    +0.249 C 
ATOM      4  C   UNL     1      31.571 -25.040 -13.310  0.00  0.00    +0.116 C 
ENDROOT
BRANCH   3   6
ATOM      5  C   UNL     1      33.425 -23.233 -17.244  0.00  0.00    +0.006 C 
ATOM      6  C   UNL     1      32.636 -22.829 -16.219  0.00  0.00    +0.058 C 
BRANCH   5  16
ATOM      7  O   UNL     1      37.098 -18.378 -21.963  0.00  0.00    -0.275 OA
ATOM      8  N   UNL     1      36.756 -19.931 -20.307  0.00  0.00    -0.270 N 
ATOM      9  N   UNL     1      36.451 -21.467 -18.534  0.00  0.00    -0.229 NA
ATOM     10  C   UNL     1      34.027 -20.061 -21.061  0.00  0.00    +0.039 C 
ATOM     11  C   UNL     1      34.546 -20.796 -19.862  0.00  0.00    +0.010 C 
ATOM     12  C   UNL     1      34.830 -18.792 -21.306  0.00  0.00    +0.090 C 
ATOM     13  C   UNL     1      35.901 -20.745 -19.539  0.00  0.00    +0.130 C 
ATOM     14  C   UNL     1      33.722 -21.628 -19.103  0.00  0.00    +0.000 C 
ATOM     15  C   UNL     1      36.325 -19.028 -21.258  0.00  0.00    +0.227 C 
ATOM     16  C   UNL     1      34.259 -22.363 -18.053  0.00  0.00    +0.019 C 
ATOM     17  C   UNL     1      35.617 -22.251 -17.814  0.00  0.00    +0.100 C 
ATOM     18  H   UNL     1      37.725 -20.011 -20.154  0.00  0.00    +0.156 HD
ENDBRANCH   5  16
ENDBRANCH   3   6
BRANCH   2  19
ATOM     19  C   UNL     1      33.410 -23.403 -13.487  0.00  0.00    +0.122 C 
BRANCH  19  21
ATOM     20  N   UNL     1      36.038 -25.771 -14.391  0.00  0.00    -0.284 N 
ATOM     21  C   UNL     1      34.625 -24.252 -13.638  0.00  0.00    +0.014 C 
ATOM     22  C   UNL     1      35.787 -24.195 -12.832  0.00  0.00    +0.013 C 
ATOM     23  C   UNL     1      36.664 -25.163 -13.327  0.00  0.00    +0.051 C 
ATOM     24  C   UNL     1      34.798 -25.223 -14.586  0.00  0.00    +0.063 C 
ATOM     25  C   UNL     1      36.189 -23.418 -11.728  0.00  0.00    +0.001 C 
ATOM     26  C   UNL     1      37.928 -25.392 -12.771  0.00  0.00    +0.015 C 
ATOM     27  C   UNL     1      36.596 -26.836 -15.198  0.00  0.00    +0.117 C 
ATOM     28  C   UNL     1      37.449 -23.636 -11.160  0.00  0.00    +0.000 C 
ATOM     29  C   UNL     1      38.303 -24.608 -11.675  0.00  0.00    +0.001 C 
ENDBRANCH  19  21
ENDBRANCH   2  19
TORSDOF 4
ENDMDL
MODEL 5
REMARK VINA RESULT:     -11.3      4.162     10.742
REMARK  Name = 5288607
REMARK  4 active torsions:
REMARK  status: ('A' for Active; 'I' for Inactive)
REMARK    1  A    between atoms: N_2  and  C_19
REMARK    2  A    between atoms: C_3  and  C_6
REMARK    3  A    between atoms: C_5  and  C_16
REMARK    4  A    between atoms: C_19  and  C_21
REMARK                            x       y       z     vdW  Elec       q    Type
REMARK                         _______ _______ _______ _____ _____    ______ ____
ROOT
ATOM      1  O   UNL     1      30.844 -12.269 -20.461  0.00  0.00    -0.270 OA
ATOM      2  N   UNL     1      32.898 -13.281 -20.856  0.00  0.00    -0.270 N 
ATOM      3  C   UNL     1      31.956 -12.258 -20.990  0.00  0.00    +0.249 C 
ATOM      4  C   UNL     1      32.575 -14.449 -20.046  0.00  0.00    +0.116 C 
ENDROOT
BRANCH   3   6
ATOM      5  C   UNL     1      31.803  -9.888 -21.670  0.00  0.00    +0.006 C 
ATOM      6  C   UNL     1      32.351 -11.111 -21.862  0.00  0.00    +0.058 C 
BRANCH   5  16
ATOM      7  O   UNL     1      34.150  -3.880 -25.880  0.00  0.00    -0.275 OA
ATOM      8  N   UNL     1      32.752  -5.297 -24.736  0.00  0.00    -0.270 N 
ATOM      9  N   UNL     1      31.255  -6.766 -23.642  0.00  0.00    -0.229 NA
ATOM     10  C   UNL     1      35.021  -6.767 -23.884  0.00  0.00    +0.039 C 
ATOM     11  C   UNL     1      33.627  -7.227 -23.578  0.00  0.00    +0.010 C 
ATOM     12  C   UNL     1      35.058  -5.989 -25.190  0.00  0.00    +0.090 C 
ATOM     13  C   UNL     1      32.531  -6.462 -23.976  0.00  0.00    +0.130 C 
ATOM     14  C   UNL     1      33.386  -8.364 -22.805  0.00  0.00    +0.000 C 
ATOM     15  C   UNL     1      33.970  -4.939 -25.278  0.00  0.00    +0.227 C 
ATOM     16  C   UNL     1      32.083  -8.708 -22.468  0.00  0.00    +0.019 C 
ATOM     17  C   UNL     1      31.062  -7.882 -22.905  0.00  0.00    +0.100 C 
ATOM     18  H   UNL     1      31.986  -4.698 -24.891  0.00  0.00    +0.156 HD
ENDBRANCH   5  16
ENDBRANCH   3   6
BRANCH   2  19
ATOM     19  C   UNL     1      34.209 -13.306 -21.501  0.00  0.00    +0.122 C 
BRANCH  19  21
ATOM     20  N   UNL     1      33.858 -15.013 -24.709  0.00  0.00    -0.284 N 
ATOM     21  C   UNL     1      34.175 -14.227 -22.671  0.00  0.00    +0.014 C 
ATOM     22  C   UNL     1      34.590 -15.580 -22.680  0.00  0.00    +0.013 C 
ATOM     23  C   UNL     1      34.382 -16.054 -23.976  0.00  0.00    +0.051 C 
ATOM     24  C   UNL     1      33.729 -13.900 -23.923  0.00  0.00    +0.063 C 
ATOM     25  C   UNL     1      35.127 -16.456 -21.715  0.00  0.00    +0.001 C 
ATOM     26  C   UNL     1      34.684 -17.366 -24.358  0.00  0.00    +0.015 C 
ATOM     27  C   UNL     1      33.493 -15.072 -26.109  0.00  0.00    +0.117 C 
ATOM     28  C   UNL     1      35.433 -17.771 -22.082  0.00  0.00    +0.000 C 
ATOM     29  C   UNL     1      35.215 -18.217 -23.384  0.00  0.00    +0.001 C 
ENDBRANCH  19  21
ENDBRANCH   2  19
TORSDOF 4
ENDMDL
MODEL 6
REMARK VINA RESULT:     -11.3      1.198      2.090
REMARK  Name = 5288607
REMARK  4 active torsions:
REMARK  status: ('A' for Active; 'I' for Inactive)
REMARK    1  A    between atoms: N_2  and  C_19
REMARK    2  A    between atoms: C_3  and  C_6
REMARK    3  A    between atoms: C_5  and  C_16
REMARK    4  A    between atoms: C_19  and  C_21
REMARK                            x       y       z     vdW  Elec       q    Type
REMARK                         _______ _______ _______ _____ _____    ______ ____
ROOT
ATOM      1  O   UNL     1      33.787 -16.329 -25.790  0.00  0.00    -0.270 OA
ATOM      2  N   UNL     1      34.151 -14.269 -24.777  0.00  0.00    -0.270 N 
ATOM      3  C   UNL     1      34.250 -15.660 -24.866  0.00  0.00    +0.249 C 
ATOM      4  C   UNL     1      33.461 -13.533 -25.829  0.00  0.00    +0.116 C 
ENDROOT
BRANCH   3   6
ATOM      5  C   UNL     1      34.747 -17.663 -23.509  0.00  0.00    +0.006 C 
ATOM      6  C   UNL     1      34.944 -16.342 -23.732  0.00  0.00    +0.058 C 
BRANCH   5  16
ATOM      7  O   UNL     1      37.089 -22.116 -17.676  0.00  0.00    -0.275 OA
ATOM      8  N   UNL     1      37.147 -20.534 -19.339  0.00  0.00    -0.270 N 
ATOM      9  N   UNL     1      37.286 -18.954 -21.094  0.00  0.00    -0.229 NA
ATOM     10  C   UNL     1      34.372 -20.941 -19.753  0.00  0.00    +0.039 C 
ATOM     11  C   UNL     1      35.175 -20.043 -20.644  0.00  0.00    +0.010 C 
ATOM     12  C   UNL     1      35.236 -22.062 -19.196  0.00  0.00    +0.090 C 
ATOM     13  C   UNL     1      36.530 -19.831 -20.392  0.00  0.00    +0.130 C 
ATOM     14  C   UNL     1      34.579 -19.317 -21.677  0.00  0.00    +0.000 C 
ATOM     15  C   UNL     1      36.553 -21.564 -18.637  0.00  0.00    +0.227 C 
ATOM     16  C   UNL     1      35.339 -18.427 -22.425  0.00  0.00    +0.019 C 
ATOM     17  C   UNL     1      36.676 -18.281 -22.095  0.00  0.00    +0.100 C 
ATOM     18  H   UNL     1      38.062 -20.274 -19.088  0.00  0.00    +0.156 HD
ENDBRANCH   5  16
ENDBRANCH   3   6
BRANCH   2  19
ATOM     19  C   UNL     1      34.662 -13.458 -23.674  0.00  0.00    +0.122 C 
BRANCH  19  21
ATOM     20  N   UNL     1      32.557 -14.251 -20.799  0.00  0.00    -0.284 N 
ATOM     21  C   UNL     1      33.711 -13.513 -22.529  0.00  0.00    +0.014 C 
ATOM     22  C   UNL     1      32.875 -12.460 -22.089  0.00  0.00    +0.013 C 
ATOM     23  C   UNL     1      32.156 -12.949 -20.996  0.00  0.00    +0.051 C 
ATOM     24  C   UNL     1      33.501 -14.601 -21.727  0.00  0.00    +0.063 C 
ATOM     25  C   UNL     1      32.652 -11.132 -22.506  0.00  0.00    +0.001 C 
ATOM     26  C   UNL     1      31.224 -12.175 -20.297  0.00  0.00    +0.015 C 
ATOM     27  C   UNL     1      32.062 -15.135 -19.764  0.00  0.00    +0.117 C 
ATOM     28  C   UNL     1      31.722 -10.346 -21.818  0.00  0.00    +0.000 C 
ATOM     29  C   UNL     1      31.020 -10.861 -20.731  0.00  0.00    +0.001 C 
ENDBRANCH  19  21
ENDBRANCH   2  19
TORSDOF 4
ENDMDL
MODEL 7
REMARK VINA RESULT:     -11.0      5.564     11.884
REMARK  Name = 5288607
REMARK  4 active torsions:
REMARK  status: ('A' for Active; 'I' for Inactive)
REMARK    1  A    between atoms: N_2  and  C_19
REMARK    2  A    between atoms: C_3  and  C_6
REMARK    3  A    between atoms: C_5  and  C_16
REMARK    4  A    between atoms: C_19  and  C_21
REMARK                            x       y       z     vdW  Elec       q    Type
REMARK                         _______ _______ _______ _____ _____    ______ ____
ROOT
ATOM      1  O   UNL     1      32.353  -8.562 -18.837  0.00  0.00    -0.270 OA
ATOM      2  N   UNL     1      31.443 -10.366 -19.985  0.00  0.00    -0.270 N 
ATOM      3  C   UNL     1      31.954  -9.069 -19.886  0.00  0.00    +0.249 C 
ATOM      4  C   UNL     1      31.363 -11.197 -18.791  0.00  0.00    +0.116 C 
ENDROOT
BRANCH   3   6
ATOM      5  C   UNL     1      32.365  -6.976 -21.131  0.00  0.00    +0.006 C 
ATOM      6  C   UNL     1      31.972  -8.272 -21.149  0.00  0.00    +0.058 C 
BRANCH   5  16
ATOM      7  O   UNL     1      33.221  -2.789 -27.539  0.00  0.00    -0.275 OA
ATOM      8  N   UNL     1      32.391  -3.491 -25.517  0.00  0.00    -0.270 N 
ATOM      9  N   UNL     1      31.444  -4.221 -23.476  0.00  0.00    -0.229 NA
ATOM     10  C   UNL     1      34.466  -5.418 -25.392  0.00  0.00    +0.039 C 
ATOM     11  C   UNL     1      33.377  -5.369 -24.363  0.00  0.00    +0.010 C 
ATOM     12  C   UNL     1      33.960  -4.924 -26.738  0.00  0.00    +0.090 C 
ATOM     13  C   UNL     1      32.392  -4.385 -24.429  0.00  0.00    +0.130 C 
ATOM     14  C   UNL     1      33.374  -6.228 -23.263  0.00  0.00    +0.000 C 
ATOM     15  C   UNL     1      33.193  -3.622 -26.633  0.00  0.00    +0.227 C 
ATOM     16  C   UNL     1      32.397  -6.094 -22.284  0.00  0.00    +0.019 C 
ATOM     17  C   UNL     1      31.465  -5.081 -22.434  0.00  0.00    +0.100 C 
ATOM     18  H   UNL     1      31.778  -2.722 -25.479  0.00  0.00    +0.156 HD
ENDBRANCH   5  16
ENDBRANCH   3   6
BRANCH   2  19
ATOM     19  C   UNL     1      30.933 -10.976 -21.211  0.00  0.00    +0.122 C 
BRANCH  19  21
ATOM     20  N   UNL     1      33.664 -11.825 -23.481  0.00  0.00    -0.284 N 
ATOM     21  C   UNL     1      32.061 -11.565 -21.986  0.00  0.00    +0.014 C 
ATOM     22  C   UNL     1      32.663 -12.825 -21.756  0.00  0.00    +0.013 C 
ATOM     23  C   UNL     1      33.671 -12.967 -22.711  0.00  0.00    +0.051 C 
ATOM     24  C   UNL     1      32.688 -10.969 -23.047  0.00  0.00    +0.063 C 
ATOM     25  C   UNL     1      32.456 -13.866 -20.829  0.00  0.00    +0.001 C 
ATOM     26  C   UNL     1      34.486 -14.102 -22.787  0.00  0.00    +0.015 C 
ATOM     27  C   UNL     1      34.552 -11.555 -24.592  0.00  0.00    +0.117 C 
ATOM     28  C   UNL     1      33.262 -15.007 -20.893  0.00  0.00    +0.000 C 
ATOM     29  C   UNL     1      34.261 -15.122 -21.857  0.00  0.00    +0.001 C 
ENDBRANCH  19  21
ENDBRANCH   2  19
TORSDOF 4
ENDMDL
MODEL 8
REMARK VINA RESULT:     -11.0      4.157     10.591
REMARK  Name = 5288607
REMARK  4 active torsions:
REMARK  status: ('A' for Active; 'I' for Inactive)
REMARK    1  A    between atoms: N_2  and  C_19
REMARK    2  A    between atoms: C_3  and  C_6
REMARK    3  A    between atoms: C_5  and  C_16
REMARK    4  A    between atoms: C_19  and  C_21
REMARK                            x       y       z     vdW  Elec       q    Type
REMARK                         _______ _______ _______ _____ _____    ______ ____
ROOT
ATOM      1  O   UNL     1      30.850 -12.377 -20.375  0.00  0.00    -0.270 OA
ATOM      2  N   UNL     1      32.930 -13.369 -20.676  0.00  0.00    -0.270 N 
ATOM      3  C   UNL     1      31.984 -12.355 -20.853  0.00  0.00    +0.249 C 
ATOM      4  C   UNL     1      32.582 -14.540 -19.881  0.00  0.00    +0.116 C 
ENDROOT
BRANCH   3   6
ATOM      5  C   UNL     1      31.758 -10.020 -21.624  0.00  0.00    +0.006 C 
ATOM      6  C   UNL     1      32.408 -11.205 -21.706  0.00  0.00    +0.058 C 
BRANCH   5  16
ATOM      7  O   UNL     1      34.198  -4.027 -25.804  0.00  0.00    -0.275 OA
ATOM      8  N   UNL     1      32.775  -5.437 -24.683  0.00  0.00    -0.270 N 
ATOM      9  N   UNL     1      31.254  -6.900 -23.613  0.00  0.00    -0.229 NA
ATOM     10  C   UNL     1      35.024  -6.912 -23.786  0.00  0.00    +0.039 C 
ATOM     11  C   UNL     1      33.623  -7.367 -23.505  0.00  0.00    +0.010 C 
ATOM     12  C   UNL     1      35.087  -6.137 -25.094  0.00  0.00    +0.090 C 
ATOM     13  C   UNL     1      32.537  -6.600 -23.924  0.00  0.00    +0.130 C 
ATOM     14  C   UNL     1      33.366  -8.502 -22.734  0.00  0.00    +0.000 C 
ATOM     15  C   UNL     1      34.004  -5.084 -25.203  0.00  0.00    +0.227 C 
ATOM     16  C   UNL     1      32.056  -8.842 -22.420  0.00  0.00    +0.019 C 
ATOM     17  C   UNL     1      31.045  -8.014 -22.876  0.00  0.00    +0.100 C 
ATOM     18  H   UNL     1      32.013  -4.837 -24.852  0.00  0.00    +0.156 HD
ENDBRANCH   5  16
ENDBRANCH   3   6
BRANCH   2  19
ATOM     19  C   UNL     1      34.269 -13.380 -21.260  0.00  0.00    +0.122 C 
BRANCH  19  21
ATOM     20  N   UNL     1      34.713 -16.407 -23.253  0.00  0.00    -0.284 N 
ATOM     21  C   UNL     1      34.358 -14.453 -22.290  0.00  0.00    +0.014 C 
ATOM     22  C   UNL     1      34.033 -14.322 -23.661  0.00  0.00    +0.013 C 
ATOM     23  C   UNL     1      34.265 -15.567 -24.248  0.00  0.00    +0.051 C 
ATOM     24  C   UNL     1      34.773 -15.737 -22.061  0.00  0.00    +0.063 C 
ATOM     25  C   UNL     1      33.561 -13.269 -24.469  0.00  0.00    +0.001 C 
ATOM     26  C   UNL     1      34.047 -15.813 -25.609  0.00  0.00    +0.015 C 
ATOM     27  C   UNL     1      35.073 -17.798 -23.427  0.00  0.00    +0.117 C 
ATOM     28  C   UNL     1      33.340 -13.499 -25.831  0.00  0.00    +0.000 C 
ATOM     29  C   UNL     1      33.580 -14.752 -26.390  0.00  0.00    +0.001 C 
ENDBRANCH  19  21
ENDBRANCH   2  19
TORSDOF 4
ENDMDL
MODEL 9
REMARK VINA RESULT:     -11.0      1.343      2.182
REMARK  Name = 5288607
REMARK  4 active torsions:
REMARK  status: ('A' for Active; 'I' for Inactive)
REMARK    1  A    between atoms: N_2  and  C_19
REMARK    2  A    between atoms: C_3  and  C_6
REMARK    3  A    between atoms: C_5  and  C_16
REMARK    4  A    between atoms: C_19  and  C_21
REMARK                            x       y       z     vdW  Elec       q    Type
REMARK                         _______ _______ _______ _____ _____    ______ ____
ROOT
ATOM      1  O   UNL     1      33.661 -16.388 -25.968  0.00  0.00    -0.270 OA
ATOM      2  N   UNL     1      34.199 -14.309 -25.079  0.00  0.00    -0.270 N 
ATOM      3  C   UNL     1      34.217 -15.706 -25.106  0.00  0.00    +0.249 C 
ATOM      4  C   UNL     1      33.484 -13.583 -26.121  0.00  0.00    +0.116 C 
ENDROOT
BRANCH   3   6
ATOM      5  C   UNL     1      34.627 -17.643 -23.629  0.00  0.00    +0.006 C 
ATOM      6  C   UNL     1      34.943 -16.375 -23.986  0.00  0.00    +0.058 C 
BRANCH   5  16
ATOM      7  O   UNL     1      37.085 -22.006 -17.776  0.00  0.00    -0.275 OA
ATOM      8  N   UNL     1      37.099 -20.427 -19.443  0.00  0.00    -0.270 N 
ATOM      9  N   UNL     1      37.195 -18.847 -21.201  0.00  0.00    -0.229 NA
ATOM     10  C   UNL     1      34.340 -20.923 -19.868  0.00  0.00    +0.039 C 
ATOM     11  C   UNL     1      35.118 -20.002 -20.758  0.00  0.00    +0.010 C 
ATOM     12  C   UNL     1      35.238 -22.015 -19.304  0.00  0.00    +0.090 C 
ATOM     13  C   UNL     1      36.464 -19.746 -20.500  0.00  0.00    +0.130 C 
ATOM     14  C   UNL     1      34.504 -19.298 -21.794  0.00  0.00    +0.000 C 
ATOM     15  C   UNL     1      36.535 -21.474 -18.741  0.00  0.00    +0.227 C 
ATOM     16  C   UNL     1      35.238 -18.385 -22.542  0.00  0.00    +0.019 C 
ATOM     17  C   UNL     1      36.568 -18.195 -22.206  0.00  0.00    +0.100 C 
ATOM     18  H   UNL     1      38.004 -20.137 -19.188  0.00  0.00    +0.156 HD
ENDBRANCH   5  16
ENDBRANCH   3   6
BRANCH   2  19
ATOM     19  C   UNL     1      34.821 -13.481 -24.049  0.00  0.00    +0.122 C 
BRANCH  19  21
ATOM     20  N   UNL     1      32.242 -11.961 -21.958  0.00  0.00    -0.284 N 
ATOM     21  C   UNL     1      33.802 -13.093 -23.033  0.00  0.00    +0.014 C 
ATOM     22  C   UNL     1      33.447 -13.837 -21.883  0.00  0.00    +0.013 C 
ATOM     23  C   UNL     1      32.460 -13.103 -21.221  0.00  0.00    +0.051 C 
ATOM     24  C   UNL     1      33.055 -11.948 -23.060  0.00  0.00    +0.063 C 
ATOM     25  C   UNL     1      33.861 -15.066 -21.333  0.00  0.00    +0.001 C 
ATOM     26  C   UNL     1      31.865 -13.538 -20.032  0.00  0.00    +0.015 C 
ATOM     27  C   UNL     1      31.295 -10.917 -21.629  0.00  0.00    +0.117 C 
ATOM     28  C   UNL     1      33.276 -15.514 -20.143  0.00  0.00    +0.000 C 
ATOM     29  C   UNL     1      32.294 -14.761 -19.504  0.00  0.00    +0.001 C 
ENDBRANCH  19  21
ENDBRANCH   2  19
TORSDOF 4
ENDMDL
