MODEL 1
REMARK VINA RESULT:     -12.0      0.000      0.000
REMARK  Name = 54726191
REMARK  4 active torsions:
REMARK  status: ('A' for Active; 'I' for Inactive)
REMARK    1  A    between atoms: C_15  and  O_31
REMARK    2  A    between atoms: C_16  and  C_20
REMARK    3  A    between atoms: N_19  and  C_22
REMARK    4  A    between atoms: C_22  and  C_25
REMARK                            x       y       z     vdW  Elec       q    Type
REMARK                         _______ _______ _______ _____ _____    ______ ____
ROOT
ATOM      1  O   UNL     1      37.496 -23.013 -15.285  0.00  0.00    -0.336 OA
ATOM      2  O   UNL     1      33.517 -23.759 -17.668  0.00  0.00    -0.268 OA
ATOM      3  O   UNL     1      33.732 -20.106 -21.206  0.00  0.00    -0.283 OA
ATOM      4  N   UNL     1      35.344 -23.240 -16.344  0.00  0.00    -0.253 N 
ATOM      5  N   UNL     1      36.271 -21.540 -18.391  0.00  0.00    -0.275 N 
ATOM      6  C   UNL     1      36.515 -22.386 -16.121  0.00  0.00    +0.215 C 
ATOM      7  C   UNL     1      34.821 -24.012 -15.203  0.00  0.00    +0.080 C 
ATOM      8  C   UNL     1      35.951 -24.555 -14.328  0.00  0.00    +0.052 C 
ATOM      9  C   UNL     1      37.219 -22.096 -17.436  0.00  0.00    +0.147 C 
ATOM     10  C   UNL     1      36.978 -23.476 -14.046  0.00  0.00    +0.146 C 
ATOM     11  C   UNL     1      34.533 -23.092 -17.479  0.00  0.00    +0.267 C 
ATOM     12  C   UNL     1      34.967 -22.036 -18.469  0.00  0.00    +0.143 C 
ATOM     13  C   UNL     1      33.834 -23.165 -14.389  0.00  0.00    +0.022 C 
ATOM     14  C   UNL     1      36.680 -20.578 -19.304  0.00  0.00    +0.074 C 
ATOM     15  C   UNL     1      34.075 -21.596 -19.385  0.00  0.00    +0.191 C 
ATOM     16  C   UNL     1      35.906 -20.054 -20.262  0.00  0.00    +0.110 C 
ATOM     17  C   UNL     1      34.506 -20.543 -20.360  0.00  0.00    +0.236 C 
ENDROOT
BRANCH  16  20
ATOM     18  O   UNL     1      37.696 -18.945 -21.303  0.00  0.00    -0.270 OA
ATOM     19  N   UNL     1      35.517 -18.253 -21.763  0.00  0.00    -0.297 N 
ATOM     20  C   UNL     1      36.478 -19.042 -21.151  0.00  0.00    +0.251 C 
ATOM     21  H   UNL     1      34.570 -18.430 -21.559  0.00  0.00    +0.150 HD
BRANCH  19  22
ATOM     22  C   UNL     1      35.833 -17.185 -22.684  0.00  0.00    +0.119 C 
BRANCH  22  25
ATOM     23  F   UNL     1      34.805 -15.784 -24.917  0.00  0.00    -0.204 F 
ATOM     24  F   UNL     1      32.253 -12.865 -22.204  0.00  0.00    -0.204 F 
ATOM     25  C   UNL     1      34.879 -16.033 -22.557  0.00  0.00    +0.025 C 
ATOM     26  C   UNL     1      34.409 -15.385 -23.701  0.00  0.00    +0.140 C 
ATOM     27  C   UNL     1      34.460 -15.611 -21.295  0.00  0.00    +0.002 C 
ATOM     28  C   UNL     1      33.522 -14.315 -23.581  0.00  0.00    +0.059 C 
ATOM     29  C   UNL     1      33.573 -14.541 -21.176  0.00  0.00    +0.030 C 
ATOM     30  C   UNL     1      33.104 -13.892 -22.318  0.00  0.00    +0.142 C 
ENDBRANCH  22  25
ENDBRANCH  19  22
ENDBRANCH  16  20
BRANCH  15  31
ATOM     31  O   UNL     1      32.775 -22.041 -19.475  0.00  0.00    -0.502 OA
ATOM     32  H   UNL     1      32.148 -21.559 -19.977  0.00  0.00    +0.292 HD
ENDBRANCH  15  31
TORSDOF 4
ENDMDL
MODEL 2
REMARK VINA RESULT:     -10.9      3.570      5.763
REMARK  Name = 54726191
REMARK  4 active torsions:
REMARK  status: ('A' for Active; 'I' for Inactive)
REMARK    1  A    between atoms: C_15  and  O_31
REMARK    2  A    between atoms: C_16  and  C_20
REMARK    3  A    between atoms: N_19  and  C_22
REMARK    4  A    between atoms: C_22  and  C_25
REMARK                            x       y       z     vdW  Elec       q    Type
REMARK                         _______ _______ _______ _____ _____    ______ ____
ROOT
ATOM      1  O   UNL     1      38.413 -25.353 -14.202  0.00  0.00    -0.336 OA
ATOM      2  O   UNL     1      34.571 -24.906 -11.537  0.00  0.00    -0.268 OA
ATOM      3  O   UNL     1      31.423 -22.424 -14.674  0.00  0.00    -0.283 OA
ATOM      4  N   UNL     1      36.541 -24.908 -12.753  0.00  0.00    -0.253 N 
ATOM      5  N   UNL     1      35.066 -24.162 -15.034  0.00  0.00    -0.275 N 
ATOM      6  C   UNL     1      37.233 -24.566 -14.000  0.00  0.00    +0.215 C 
ATOM      7  C   UNL     1      37.359 -25.163 -11.554  0.00  0.00    +0.080 C 
ATOM      8  C   UNL     1      38.638 -25.927 -11.899  0.00  0.00    +0.052 C 
ATOM      9  C   UNL     1      36.340 -24.848 -15.196  0.00  0.00    +0.147 C 
ATOM     10  C   UNL     1      39.319 -25.315 -13.107  0.00  0.00    +0.146 C 
ATOM     11  C   UNL     1      35.168 -24.677 -12.588  0.00  0.00    +0.267 C 
ATOM     12  C   UNL     1      34.445 -24.101 -13.784  0.00  0.00    +0.143 C 
ATOM     13  C   UNL     1      37.665 -23.850 -10.823  0.00  0.00    +0.022 C 
ATOM     14  C   UNL     1      34.404 -23.646 -16.140  0.00  0.00    +0.074 C 
ATOM     15  C   UNL     1      33.232 -23.533 -13.601  0.00  0.00    +0.191 C 
ATOM     16  C   UNL     1      33.202 -23.058 -16.106  0.00  0.00    +0.110 C 
ATOM     17  C   UNL     1      32.522 -22.957 -14.789  0.00  0.00    +0.236 C 
ENDROOT
BRANCH  16  20
ATOM     18  O   UNL     1      31.412 -22.526 -17.531  0.00  0.00    -0.270 OA
ATOM     19  N   UNL     1      33.592 -22.144 -18.264  0.00  0.00    -0.297 N 
ATOM     20  C   UNL     1      32.631 -22.557 -17.356  0.00  0.00    +0.251 C 
ATOM     21  H   UNL     1      34.539 -22.218 -18.007  0.00  0.00    +0.150 HD
BRANCH  19  22
ATOM     22  C   UNL     1      33.277 -21.611 -19.571  0.00  0.00    +0.119 C 
BRANCH  22  25
ATOM     23  F   UNL     1      36.014 -22.136 -19.083  0.00  0.00    -0.204 F 
ATOM     24  F   UNL     1      37.421 -18.380 -21.593  0.00  0.00    -0.204 F 
ATOM     25  C   UNL     1      34.383 -20.750 -20.109  0.00  0.00    +0.025 C 
ATOM     26  C   UNL     1      35.713 -21.066 -19.830  0.00  0.00    +0.140 C 
ATOM     27  C   UNL     1      34.079 -19.635 -20.889  0.00  0.00    +0.002 C 
ATOM     28  C   UNL     1      36.739 -20.265 -20.332  0.00  0.00    +0.059 C 
ATOM     29  C   UNL     1      35.106 -18.834 -21.391  0.00  0.00    +0.030 C 
ATOM     30  C   UNL     1      36.436 -19.148 -21.112  0.00  0.00    +0.142 C 
ENDBRANCH  22  25
ENDBRANCH  19  22
ENDBRANCH  16  20
BRANCH  15  31
ATOM     31  O   UNL     1      32.601 -23.431 -12.382  0.00  0.00    -0.502 OA
ATOM     32  H   UNL     1      32.423 -22.588 -12.015  0.00  0.00    +0.292 HD
ENDBRANCH  15  31
TORSDOF 4
ENDMDL
MODEL 3
REMARK VINA RESULT:     -10.9      4.164      9.398
REMARK  Name = 54726191
REMARK  4 active torsions:
REMARK  status: ('A' for Active; 'I' for Inactive)
REMARK    1  A    between atoms: C_15  and  O_31
REMARK    2  A    between atoms: C_16  and  C_20
REMARK    3  A    between atoms: N_19  and  C_22
REMARK    4  A    between atoms: C_22  and  C_25
REMARK                            x       y       z     vdW  Elec       q    Type
REMARK                         _______ _______ _______ _____ _____    ______ ____
ROOT
ATOM      1  O   UNL     1      32.078 -12.572 -19.330  0.00  0.00    -0.336 OA
ATOM      2  O   UNL     1      32.214 -13.365 -23.958  0.00  0.00    -0.268 OA
ATOM      3  O   UNL     1      35.603 -17.151 -24.257  0.00  0.00    -0.283 OA
ATOM      4  N   UNL     1      32.331 -12.806 -21.714  0.00  0.00    -0.253 N 
ATOM      5  N   UNL     1      33.700 -15.222 -21.242  0.00  0.00    -0.275 N 
ATOM      6  C   UNL     1      32.892 -13.090 -20.389  0.00  0.00    +0.215 C 
ATOM      7  C   UNL     1      31.739 -11.476 -21.946  0.00  0.00    +0.080 C 
ATOM      8  C   UNL     1      30.973 -10.981 -20.719  0.00  0.00    +0.052 C 
ATOM      9  C   UNL     1      32.967 -14.590 -20.156  0.00  0.00    +0.147 C 
ATOM     10  C   UNL     1      31.788 -11.186 -19.458  0.00  0.00    +0.146 C 
ATOM     11  C   UNL     1      32.629 -13.608 -22.825  0.00  0.00    +0.267 C 
ATOM     12  C   UNL     1      33.523 -14.798 -22.562  0.00  0.00    +0.143 C 
ATOM     13  C   UNL     1      32.819 -10.476 -22.379  0.00  0.00    +0.022 C 
ATOM     14  C   UNL     1      34.510 -16.322 -20.994  0.00  0.00    +0.074 C 
ATOM     15  C   UNL     1      34.132 -15.400 -23.608  0.00  0.00    +0.191 C 
ATOM     16  C   UNL     1      35.172 -17.013 -21.930  0.00  0.00    +0.110 C 
ATOM     17  C   UNL     1      35.023 -16.575 -23.342  0.00  0.00    +0.236 C 
ENDROOT
BRANCH  16  20
ATOM     18  O   UNL     1      37.213 -18.149 -21.682  0.00  0.00    -0.270 OA
ATOM     19  N   UNL     1      35.253 -19.171 -20.937  0.00  0.00    -0.297 N 
ATOM     20  C   UNL     1      35.992 -18.150 -21.514  0.00  0.00    +0.251 C 
ATOM     21  H   UNL     1      34.279 -19.053 -20.858  0.00  0.00    +0.150 HD
BRANCH  19  22
ATOM     22  C   UNL     1      35.838 -20.398 -20.447  0.00  0.00    +0.119 C 
BRANCH  22  25
ATOM     23  F   UNL     1      36.749 -22.094 -18.374  0.00  0.00    -0.204 F 
ATOM     24  F   UNL     1      32.350 -23.161 -16.997  0.00  0.00    -0.204 F 
ATOM     25  C   UNL     1      34.909 -21.136 -19.527  0.00  0.00    +0.025 C 
ATOM     26  C   UNL     1      35.425 -21.957 -18.524  0.00  0.00    +0.140 C 
ATOM     27  C   UNL     1      33.529 -20.998 -19.675  0.00  0.00    +0.002 C 
ATOM     28  C   UNL     1      34.560 -22.641 -17.670  0.00  0.00    +0.059 C 
ATOM     29  C   UNL     1      32.664 -21.683 -18.820  0.00  0.00    +0.030 C 
ATOM     30  C   UNL     1      33.180 -22.505 -17.818  0.00  0.00    +0.142 C 
ENDBRANCH  22  25
ENDBRANCH  19  22
ENDBRANCH  16  20
BRANCH  15  31
ATOM     31  O   UNL     1      34.001 -14.994 -24.917  0.00  0.00    -0.502 OA
ATOM     32  H   UNL     1      34.077 -14.086 -25.136  0.00  0.00    +0.292 HD
ENDBRANCH  15  31
TORSDOF 4
ENDMDL
MODEL 4
REMARK VINA RESULT:     -10.9      3.958      9.253
REMARK  Name = 54726191
REMARK  4 active torsions:
REMARK  status: ('A' for Active; 'I' for Inactive)
REMARK    1  A    between atoms: C_15  and  O_31
REMARK    2  A    between atoms: C_16  and  C_20
REMARK    3  A    between atoms: N_19  and  C_22
REMARK    4  A    between atoms: C_22  and  C_25
REMARK                            x       y       z     vdW  Elec       q    Type
REMARK                         _______ _______ _______ _____ _____    ______ ____
ROOT
ATOM      1  O   UNL     1      32.729 -12.960 -20.217  0.00  0.00    -0.336 OA
ATOM      2  O   UNL     1      33.299 -14.911 -24.451  0.00  0.00    -0.268 OA
ATOM      3  O   UNL     1      36.485 -18.740 -23.402  0.00  0.00    -0.283 OA
ATOM      4  N   UNL     1      33.214 -13.801 -22.421  0.00  0.00    -0.253 N 
ATOM      5  N   UNL     1      34.390 -16.054 -21.205  0.00  0.00    -0.275 N 
ATOM      6  C   UNL     1      33.618 -13.753 -21.012  0.00  0.00    +0.215 C 
ATOM      7  C   UNL     1      32.724 -12.559 -23.045  0.00  0.00    +0.080 C 
ATOM      8  C   UNL     1      31.863 -11.746 -22.077  0.00  0.00    +0.052 C 
ATOM      9  C   UNL     1      33.585 -15.145 -20.403  0.00  0.00    +0.147 C 
ATOM     10  C   UNL     1      32.531 -11.645 -20.720  0.00  0.00    +0.146 C 
ATOM     11  C   UNL     1      33.581 -14.868 -23.254  0.00  0.00    +0.267 C 
ATOM     12  C   UNL     1      34.374 -15.976 -22.601  0.00  0.00    +0.143 C 
ATOM     13  C   UNL     1      33.897 -11.733 -23.588  0.00  0.00    +0.022 C 
ATOM     14  C   UNL     1      35.108 -17.075 -20.598  0.00  0.00    +0.074 C 
ATOM     15  C   UNL     1      35.054 -16.841 -23.386  0.00  0.00    +0.191 C 
ATOM     16  C   UNL     1      35.823 -18.001 -21.249  0.00  0.00    +0.110 C 
ATOM     17  C   UNL     1      35.846 -17.934 -22.733  0.00  0.00    +0.236 C 
ENDROOT
BRANCH  16  20
ATOM     18  O   UNL     1      37.611 -18.765 -19.931  0.00  0.00    -0.270 OA
ATOM     19  N   UNL     1      35.863 -20.228 -20.423  0.00  0.00    -0.297 N 
ATOM     20  C   UNL     1      36.532 -19.016 -20.470  0.00  0.00    +0.251 C 
ATOM     21  H   UNL     1      35.003 -20.305 -20.896  0.00  0.00    +0.150 HD
BRANCH  19  22
ATOM     22  C   UNL     1      36.362 -21.386 -19.716  0.00  0.00    +0.119 C 
BRANCH  22  25
ATOM     23  F   UNL     1      37.090 -22.303 -17.140  0.00  0.00    -0.204 F 
ATOM     24  F   UNL     1      32.621 -23.358 -15.998  0.00  0.00    -0.204 F 
ATOM     25  C   UNL     1      35.366 -21.912 -18.724  0.00  0.00    +0.025 C 
ATOM     26  C   UNL     1      35.793 -22.349 -17.469  0.00  0.00    +0.140 C 
ATOM     27  C   UNL     1      34.012 -21.963 -19.057  0.00  0.00    +0.002 C 
ATOM     28  C   UNL     1      34.865 -22.838 -16.549  0.00  0.00    +0.059 C 
ATOM     29  C   UNL     1      33.085 -22.452 -18.136  0.00  0.00    +0.030 C 
ATOM     30  C   UNL     1      33.511 -22.889 -16.882  0.00  0.00    +0.142 C 
ENDBRANCH  22  25
ENDBRANCH  19  22
ENDBRANCH  16  20
BRANCH  15  31
ATOM     31  O   UNL     1      35.083 -16.779 -24.761  0.00  0.00    -0.502 OA
ATOM     32  H   UNL     1      34.287 -16.668 -25.242  0.00  0.00    +0.292 HD
ENDBRANCH  15  31
TORSDOF 4
ENDMDL
MODEL 5
REMARK VINA RESULT:     -10.6      6.212     11.973
REMARK  Name = 54726191
REMARK  4 active torsions:
REMARK  status: ('A' for Active; 'I' for Inactive)
REMARK    1  A    between atoms: C_15  and  O_31
REMARK    2  A    between atoms: C_16  and  C_20
REMARK    3  A    between atoms: N_19  and  C_22
REMARK    4  A    between atoms: C_22  and  C_25
REMARK                            x       y       z     vdW  Elec       q    Type
REMARK                         _______ _______ _______ _____ _____    ______ ____
ROOT
ATOM      1  O   UNL     1      33.512  -6.540 -23.833  0.00  0.00    -0.336 OA
ATOM      2  O   UNL     1      31.901  -8.992 -20.164  0.00  0.00    -0.268 OA
ATOM      3  O   UNL     1      32.241 -13.770 -21.888  0.00  0.00    -0.283 OA
ATOM      4  N   UNL     1      32.456  -7.771 -22.052  0.00  0.00    -0.253 N 
ATOM      5  N   UNL     1      33.445 -10.136 -23.221  0.00  0.00    -0.275 N 
ATOM      6  C   UNL     1      32.895  -7.776 -23.452  0.00  0.00    +0.215 C 
ATOM      7  C   UNL     1      31.827  -6.547 -21.527  0.00  0.00    +0.080 C 
ATOM      8  C   UNL     1      32.504  -5.289 -22.071  0.00  0.00    +0.052 C 
ATOM      9  C   UNL     1      33.949  -8.848 -23.673  0.00  0.00    +0.147 C 
ATOM     10  C   UNL     1      32.710  -5.397 -23.570  0.00  0.00    +0.146 C 
ATOM     11  C   UNL     1      32.315  -8.961 -21.323  0.00  0.00    +0.267 C 
ATOM     12  C   UNL     1      32.684 -10.232 -22.052  0.00  0.00    +0.143 C 
ATOM     13  C   UNL     1      30.321  -6.549 -21.819  0.00  0.00    +0.022 C 
ATOM     14  C   UNL     1      33.797 -11.300 -23.890  0.00  0.00    +0.074 C 
ATOM     15  C   UNL     1      32.253 -11.415 -21.560  0.00  0.00    +0.191 C 
ATOM     16  C   UNL     1      33.442 -12.536 -23.517  0.00  0.00    +0.110 C 
ATOM     17  C   UNL     1      32.614 -12.672 -22.291  0.00  0.00    +0.236 C 
ENDROOT
BRANCH  16  20
ATOM     18  O   UNL     1      33.782 -13.653 -25.555  0.00  0.00    -0.270 OA
ATOM     19  N   UNL     1      34.414 -14.703 -23.571  0.00  0.00    -0.297 N 
ATOM     20  C   UNL     1      33.887 -13.669 -24.327  0.00  0.00    +0.251 C 
ATOM     21  H   UNL     1      34.444 -14.597 -22.593  0.00  0.00    +0.150 HD
BRANCH  19  22
ATOM     22  C   UNL     1      34.919 -15.931 -24.142  0.00  0.00    +0.119 C 
BRANCH  22  25
ATOM     23  F   UNL     1      34.638 -18.665 -24.815  0.00  0.00    -0.204 F 
ATOM     24  F   UNL     1      35.210 -20.066 -20.332  0.00  0.00    -0.204 F 
ATOM     25  C   UNL     1      34.997 -17.034 -23.128  0.00  0.00    +0.025 C 
ATOM     26  C   UNL     1      34.849 -18.363 -23.527  0.00  0.00    +0.140 C 
ATOM     27  C   UNL     1      35.217 -16.729 -21.784  0.00  0.00    +0.002 C 
ATOM     28  C   UNL     1      34.921 -19.387 -22.582  0.00  0.00    +0.059 C 
ATOM     29  C   UNL     1      35.289 -17.754 -20.840  0.00  0.00    +0.030 C 
ATOM     30  C   UNL     1      35.141 -19.083 -21.238  0.00  0.00    +0.142 C 
ENDBRANCH  22  25
ENDBRANCH  19  22
ENDBRANCH  16  20
BRANCH  15  31
ATOM     31  O   UNL     1      31.480 -11.546 -20.428  0.00  0.00    -0.502 OA
ATOM     32  H   UNL     1      31.698 -12.190 -19.783  0.00  0.00    +0.292 HD
ENDBRANCH  15  31
TORSDOF 4
ENDMDL
MODEL 6
REMARK VINA RESULT:     -10.3      5.037      8.542
REMARK  Name = 54726191
REMARK  4 active torsions:
REMARK  status: ('A' for Active; 'I' for Inactive)
REMARK    1  A    between atoms: C_15  and  O_31
REMARK    2  A    between atoms: C_16  and  C_20
REMARK    3  A    between atoms: N_19  and  C_22
REMARK    4  A    between atoms: C_22  and  C_25
REMARK                            x       y       z     vdW  Elec       q    Type
REMARK                         _______ _______ _______ _____ _____    ______ ____
ROOT
ATOM      1  O   UNL     1      35.723 -18.262 -20.498  0.00  0.00    -0.336 OA
ATOM      2  O   UNL     1      35.195 -16.206 -24.689  0.00  0.00    -0.268 OA
ATOM      3  O   UNL     1      32.160 -12.285 -23.540  0.00  0.00    -0.283 OA
ATOM      4  N   UNL     1      35.254 -17.359 -22.682  0.00  0.00    -0.253 N 
ATOM      5  N   UNL     1      34.169 -15.090 -21.413  0.00  0.00    -0.275 N 
ATOM      6  C   UNL     1      34.858 -17.421 -21.271  0.00  0.00    +0.215 C 
ATOM      7  C   UNL     1      35.693 -18.606 -23.334  0.00  0.00    +0.080 C 
ATOM      8  C   UNL     1      36.531 -19.468 -22.389  0.00  0.00    +0.052 C 
ATOM      9  C   UNL     1      34.946 -16.043 -20.635  0.00  0.00    +0.147 C 
ATOM     10  C   UNL     1      35.869 -19.572 -21.029  0.00  0.00    +0.146 C 
ATOM     11  C   UNL     1      34.921 -16.263 -23.491  0.00  0.00    +0.267 C 
ATOM     12  C   UNL     1      34.173 -15.140 -22.810  0.00  0.00    +0.143 C 
ATOM     13  C   UNL     1      34.488 -19.377 -23.884  0.00  0.00    +0.022 C 
ATOM     14  C   UNL     1      33.495 -14.055 -20.780  0.00  0.00    +0.074 C 
ATOM     15  C   UNL     1      33.520 -14.235 -23.572  0.00  0.00    +0.191 C 
ATOM     16  C   UNL     1      32.809 -13.091 -21.407  0.00  0.00    +0.110 C 
ATOM     17  C   UNL     1      32.773 -13.128 -22.892  0.00  0.00    +0.236 C 
ENDROOT
BRANCH  16  20
ATOM     18  O   UNL     1      31.621 -12.346 -19.522  0.00  0.00    -0.270 OA
ATOM     19  N   UNL     1      32.178 -10.811 -21.187  0.00  0.00    -0.297 N 
ATOM     20  C   UNL     1      32.143 -12.067 -20.603  0.00  0.00    +0.251 C 
ATOM     21  H   UNL     1      32.628 -10.715 -22.058  0.00  0.00    +0.150 HD
BRANCH  19  22
ATOM     22  C   UNL     1      31.588  -9.636 -20.587  0.00  0.00    +0.119 C 
BRANCH  22  25
ATOM     23  F   UNL     1      32.731  -7.267 -19.546  0.00  0.00    -0.204 F 
ATOM     24  F   UNL     1      32.437  -5.024 -23.702  0.00  0.00    -0.204 F 
ATOM     25  C   UNL     1      31.815  -8.406 -21.416  0.00  0.00    +0.025 C 
ATOM     26  C   UNL     1      32.384  -7.270 -20.840  0.00  0.00    +0.140 C 
ATOM     27  C   UNL     1      31.457  -8.400 -22.764  0.00  0.00    +0.002 C 
ATOM     28  C   UNL     1      32.594  -6.127 -21.613  0.00  0.00    +0.059 C 
ATOM     29  C   UNL     1      31.667  -7.257 -23.537  0.00  0.00    +0.030 C 
ATOM     30  C   UNL     1      32.235  -6.121 -22.961  0.00  0.00    +0.142 C 
ENDBRANCH  22  25
ENDBRANCH  19  22
ENDBRANCH  16  20
BRANCH  15  31
ATOM     31  O   UNL     1      33.479 -14.268 -24.948  0.00  0.00    -0.502 OA
ATOM     32  H   UNL     1      33.037 -14.968 -25.387  0.00  0.00    +0.292 HD
ENDBRANCH  15  31
TORSDOF 4
ENDMDL
MODEL 7
REMARK VINA RESULT:     -10.2      5.107      8.669
REMARK  Name = 54726191
REMARK  4 active torsions:
REMARK  status: ('A' for Active; 'I' for Inactive)
REMARK    1  A    between atoms: C_15  and  O_31
REMARK    2  A    between atoms: C_16  and  C_20
REMARK    3  A    between atoms: N_19  and  C_22
REMARK    4  A    between atoms: C_22  and  C_25
REMARK                            x       y       z     vdW  Elec       q    Type
REMARK                         _______ _______ _______ _____ _____    ______ ____
ROOT
ATOM      1  O   UNL     1      35.410 -18.089 -20.715  0.00  0.00    -0.336 OA
ATOM      2  O   UNL     1      35.336 -16.708 -25.205  0.00  0.00    -0.268 OA
ATOM      3  O   UNL     1      32.642 -12.398 -24.914  0.00  0.00    -0.283 OA
ATOM      4  N   UNL     1      35.162 -17.517 -23.042  0.00  0.00    -0.253 N 
ATOM      5  N   UNL     1      34.235 -14.984 -22.230  0.00  0.00    -0.275 N 
ATOM      6  C   UNL     1      34.680 -17.312 -21.672  0.00  0.00    +0.215 C 
ATOM      7  C   UNL     1      35.513 -18.888 -23.456  0.00  0.00    +0.080 C 
ATOM      8  C   UNL     1      36.204 -19.655 -22.328  0.00  0.00    +0.052 C 
ATOM      9  C   UNL     1      34.867 -15.863 -21.256  0.00  0.00    +0.147 C 
ATOM     10  C   UNL     1      35.456 -19.476 -21.021  0.00  0.00    +0.146 C 
ATOM     11  C   UNL     1      34.987 -16.543 -24.036  0.00  0.00    +0.267 C 
ATOM     12  C   UNL     1      34.316 -15.262 -23.597  0.00  0.00    +0.143 C 
ATOM     13  C   UNL     1      34.271 -19.629 -23.966  0.00  0.00    +0.022 C 
ATOM     14  C   UNL     1      33.630 -13.804 -21.819  0.00  0.00    +0.074 C 
ATOM     15  C   UNL     1      33.802 -14.440 -24.539  0.00  0.00    +0.191 C 
ATOM     16  C   UNL     1      33.082 -12.899 -22.639  0.00  0.00    +0.110 C 
ATOM     17  C   UNL     1      33.130 -13.175 -24.098  0.00  0.00    +0.236 C 
ENDROOT
BRANCH  16  20
ATOM     18  O   UNL     1      31.740 -11.776 -21.071  0.00  0.00    -0.270 OA
ATOM     19  N   UNL     1      32.820 -10.539 -22.728  0.00  0.00    -0.297 N 
ATOM     20  C   UNL     1      32.475 -11.702 -22.057  0.00  0.00    +0.251 C 
ATOM     21  H   UNL     1      33.418 -10.610 -23.506  0.00  0.00    +0.150 HD
BRANCH  19  22
ATOM     22  C   UNL     1      32.345  -9.229 -22.344  0.00  0.00    +0.119 C 
BRANCH  22  25
ATOM     23  F   UNL     1      31.020  -6.968 -23.409  0.00  0.00    -0.204 F 
ATOM     24  F   UNL     1      35.034  -5.124 -25.105  0.00  0.00    -0.204 F 
ATOM     25  C   UNL     1      33.061  -8.134 -23.081  0.00  0.00    +0.025 C 
ATOM     26  C   UNL     1      32.346  -7.045 -23.581  0.00  0.00    +0.140 C 
ATOM     27  C   UNL     1      34.442  -8.206 -23.263  0.00  0.00    +0.002 C 
ATOM     28  C   UNL     1      33.013  -6.029 -24.265  0.00  0.00    +0.059 C 
ATOM     29  C   UNL     1      35.108  -7.188 -23.948  0.00  0.00    +0.030 C 
ATOM     30  C   UNL     1      34.394  -6.100 -24.449  0.00  0.00    +0.142 C 
ENDBRANCH  22  25
ENDBRANCH  19  22
ENDBRANCH  16  20
BRANCH  15  31
ATOM     31  O   UNL     1      33.839 -14.694 -25.891  0.00  0.00    -0.502 OA
ATOM     32  H   UNL     1      33.928 -13.987 -26.499  0.00  0.00    +0.292 HD
ENDBRANCH  15  31
TORSDOF 4
ENDMDL
MODEL 8
REMARK VINA RESULT:      -9.7      6.795     10.609
REMARK  Name = 54726191
REMARK  4 active torsions:
REMARK  status: ('A' for Active; 'I' for Inactive)
REMARK    1  A    between atoms: C_15  and  O_31
REMARK    2  A    between atoms: C_16  and  C_20
REMARK    3  A    between atoms: N_19  and  C_22
REMARK    4  A    between atoms: C_22  and  C_25
REMARK                            x       y       z     vdW  Elec       q    Type
REMARK                         _______ _______ _______ _____ _____    ______ ____
ROOT
ATOM      1  O   UNL     1      34.636 -14.882 -24.476  0.00  0.00    -0.336 OA
ATOM      2  O   UNL     1      32.226 -14.863 -20.444  0.00  0.00    -0.268 OA
ATOM      3  O   UNL     1      31.366  -9.890 -19.779  0.00  0.00    -0.283 OA
ATOM      4  N   UNL     1      33.622 -14.856 -22.291  0.00  0.00    -0.253 N 
ATOM      5  N   UNL     1      32.896 -12.174 -22.758  0.00  0.00    -0.275 N 
ATOM      6  C   UNL     1      34.295 -14.080 -23.339  0.00  0.00    +0.215 C 
ATOM      7  C   UNL     1      34.127 -16.209 -21.999  0.00  0.00    +0.080 C 
ATOM      8  C   UNL     1      34.548 -16.939 -23.275  0.00  0.00    +0.052 C 
ATOM      9  C   UNL     1      33.376 -12.989 -23.864  0.00  0.00    +0.147 C 
ATOM     10  C   UNL     1      35.396 -16.038 -24.152  0.00  0.00    +0.146 C 
ATOM     11  C   UNL     1      32.764 -14.247 -21.364  0.00  0.00    +0.267 C 
ATOM     12  C   UNL     1      32.544 -12.762 -21.540  0.00  0.00    +0.143 C 
ATOM     13  C   UNL     1      35.270 -16.148 -20.979  0.00  0.00    +0.022 C 
ATOM     14  C   UNL     1      32.686 -10.813 -22.931  0.00  0.00    +0.074 C 
ATOM     15  C   UNL     1      32.032 -12.053 -20.510  0.00  0.00    +0.191 C 
ATOM     16  C   UNL     1      32.186  -9.990 -22.001  0.00  0.00    +0.110 C 
ATOM     17  C   UNL     1      31.823 -10.579 -20.686  0.00  0.00    +0.236 C 
ENDROOT
BRANCH  16  20
ATOM     18  O   UNL     1      31.111  -8.189 -23.058  0.00  0.00    -0.270 OA
ATOM     19  N   UNL     1      32.990  -7.769 -21.742  0.00  0.00    -0.297 N 
ATOM     20  C   UNL     1      32.027  -8.574 -22.329  0.00  0.00    +0.251 C 
ATOM     21  H   UNL     1      33.673  -8.197 -21.178  0.00  0.00    +0.150 HD
BRANCH  19  22
ATOM     22  C   UNL     1      33.044  -6.335 -21.917  0.00  0.00    +0.119 C 
BRANCH  22  25
ATOM     23  F   UNL     1      35.520  -7.052 -23.084  0.00  0.00    -0.204 F 
ATOM     24  F   UNL     1      34.482  -4.901 -27.169  0.00  0.00    -0.204 F 
ATOM     25  C   UNL     1      33.429  -5.954 -23.317  0.00  0.00    +0.025 C 
ATOM     26  C   UNL     1      34.667  -6.340 -23.832  0.00  0.00    +0.140 C 
ATOM     27  C   UNL     1      32.546  -5.213 -24.103  0.00  0.00    +0.002 C 
ATOM     28  C   UNL     1      35.022  -5.984 -25.133  0.00  0.00    +0.059 C 
ATOM     29  C   UNL     1      32.903  -4.857 -25.405  0.00  0.00    +0.030 C 
ATOM     30  C   UNL     1      34.140  -5.242 -25.920  0.00  0.00    +0.142 C 
ENDBRANCH  22  25
ENDBRANCH  19  22
ENDBRANCH  16  20
BRANCH  15  31
ATOM     31  O   UNL     1      31.699 -12.593 -19.288  0.00  0.00    -0.502 OA
ATOM     32  H   UNL     1      30.805 -12.795 -19.092  0.00  0.00    +0.292 HD
ENDBRANCH  15  31
TORSDOF 4
ENDMDL
MODEL 9
REMARK VINA RESULT:      -9.7      3.261      5.931
REMARK  Name = 54726191
REMARK  4 active torsions:
REMARK  status: ('A' for Active; 'I' for Inactive)
REMARK    1  A    between atoms: C_15  and  O_31
REMARK    2  A    between atoms: C_16  and  C_20
REMARK    3  A    between atoms: N_19  and  C_22
REMARK    4  A    between atoms: C_22  and  C_25
REMARK                            x       y       z     vdW  Elec       q    Type
REMARK                         _______ _______ _______ _____ _____    ______ ____
ROOT
ATOM      1  O   UNL     1      29.472 -23.061 -16.725  0.00  0.00    -0.336 OA
ATOM      2  O   UNL     1      31.857 -24.492 -12.940  0.00  0.00    -0.268 OA
ATOM      3  O   UNL     1      36.675 -23.956 -14.493  0.00  0.00    -0.283 OA
ATOM      4  N   UNL     1      30.683 -24.027 -14.880  0.00  0.00    -0.253 N 
ATOM      5  N   UNL     1      33.042 -22.948 -15.980  0.00  0.00    -0.275 N 
ATOM      6  C   UNL     1      30.719 -23.612 -16.287  0.00  0.00    +0.215 C 
ATOM      7  C   UNL     1      29.470 -24.705 -14.389  0.00  0.00    +0.080 C 
ATOM      8  C   UNL     1      28.204 -24.097 -14.992  0.00  0.00    +0.052 C 
ATOM      9  C   UNL     1      31.749 -22.513 -16.489  0.00  0.00    +0.147 C 
ATOM     10  C   UNL     1      28.358 -23.912 -16.489  0.00  0.00    +0.146 C 
ATOM     11  C   UNL     1      31.850 -24.100 -14.106  0.00  0.00    +0.267 C 
ATOM     12  C   UNL     1      33.129 -23.683 -14.795  0.00  0.00    +0.143 C 
ATOM     13  C   UNL     1      29.554 -26.213 -14.652  0.00  0.00    +0.022 C 
ATOM     14  C   UNL     1      34.212 -22.552 -16.613  0.00  0.00    +0.074 C 
ATOM     15  C   UNL     1      34.311 -24.050 -14.252  0.00  0.00    +0.191 C 
ATOM     16  C   UNL     1      35.448 -22.842 -16.189  0.00  0.00    +0.110 C 
ATOM     17  C   UNL     1      35.577 -23.642 -14.943  0.00  0.00    +0.236 C 
ENDROOT
BRANCH  16  20
ATOM     18  O   UNL     1      37.740 -22.470 -16.542  0.00  0.00    -0.270 OA
ATOM     19  N   UNL     1      36.219 -21.788 -18.174  0.00  0.00    -0.297 N 
ATOM     20  C   UNL     1      36.588 -22.358 -16.965  0.00  0.00    +0.251 C 
ATOM     21  H   UNL     1      35.262 -21.756 -18.401  0.00  0.00    +0.150 HD
BRANCH  19  22
ATOM     22  C   UNL     1      37.166 -21.237 -19.116  0.00  0.00    +0.119 C 
BRANCH  22  25
ATOM     23  F   UNL     1      34.432 -21.447 -19.815  0.00  0.00    -0.204 F 
ATOM     24  F   UNL     1      34.691 -17.828 -22.851  0.00  0.00    -0.204 F 
ATOM     25  C   UNL     1      36.505 -20.329 -20.112  0.00  0.00    +0.025 C 
ATOM     26  C   UNL     1      35.151 -20.487 -20.411  0.00  0.00    +0.140 C 
ATOM     27  C   UNL     1      37.245 -19.326 -20.737  0.00  0.00    +0.002 C 
ATOM     28  C   UNL     1      34.539 -19.642 -21.337  0.00  0.00    +0.059 C 
ATOM     29  C   UNL     1      36.632 -18.481 -21.663  0.00  0.00    +0.030 C 
ATOM     30  C   UNL     1      35.279 -18.639 -21.963  0.00  0.00    +0.142 C 
ENDBRANCH  22  25
ENDBRANCH  19  22
ENDBRANCH  16  20
BRANCH  15  31
ATOM     31  O   UNL     1      34.436 -24.796 -13.102  0.00  0.00    -0.502 OA
ATOM     32  H   UNL     1      33.897 -25.551 -12.972  0.00  0.00    +0.292 HD
ENDBRANCH  15  31
TORSDOF 4
ENDMDL
