MODEL 1
REMARK VINA RESULT:     -12.5      0.000      0.000
REMARK  Name = 216239
REMARK  6 active torsions:
REMARK  status: ('A' for Active; 'I' for Inactive)
REMARK    1  A    between atoms: C_1  and  N_9
REMARK    2  A    between atoms: C_2  and  O_24
REMARK    3  A    between atoms: N_8  and  C_14
REMARK    4  A    between atoms: C_15  and  C_23
REMARK    5  A    between atoms: O_24  and  C_26
REMARK    6  A    between atoms: C_28  and  C_33
REMARK                            x       y       z     vdW  Elec       q    Type
REMARK                         _______ _______ _______ _____ _____    ______ ____
ROOT
ATOM      1  C   UNL     1      35.188 -21.890 -18.420  0.00  0.00    +0.052 C 
ATOM      2  C   UNL     1      34.333 -23.516 -16.348  0.00  0.00    +0.145 C 
ATOM      3  C   UNL     1      35.991 -22.041 -17.303  0.00  0.00    +0.018 C 
ATOM      4  C   UNL     1      33.966 -22.534 -18.525  0.00  0.00    +0.018 C 
ATOM      5  C   UNL     1      35.560 -22.861 -16.259  0.00  0.00    +0.039 C 
ATOM      6  C   UNL     1      33.535 -23.352 -17.480  0.00  0.00    +0.039 C 
ENDROOT
BRANCH   1   9
ATOM      7  O   UNL     1      33.639 -20.047 -20.188  0.00  0.00    -0.252 OA
ATOM      8  N   UNL     1      35.679 -19.551 -21.228  0.00  0.00    -0.268 N 
ATOM      9  N   UNL     1      35.625 -21.059 -19.479  0.00  0.00    -0.268 N 
ATOM     10  C   UNL     1      34.851 -20.206 -20.283  0.00  0.00    +0.308 C 
ATOM     11  H   UNL     1      36.636 -19.778 -21.188  0.00  0.00    +0.156 HD
ATOM     12  H   UNL     1      36.589 -21.080 -19.676  0.00  0.00    +0.156 HD
BRANCH   8  14
ATOM     13 CL   UNL     1      34.159 -15.670 -25.419  0.00  0.00    -0.082 Cl
ATOM     14  C   UNL     1      35.318 -18.627 -22.210  0.00  0.00    +0.052 C 
ATOM     15  C   UNL     1      34.703 -16.379 -22.844  0.00  0.00    +0.083 C 
ATOM     16  C   UNL     1      35.062 -17.302 -21.862  0.00  0.00    +0.019 C 
ATOM     17  C   UNL     1      35.215 -19.032 -23.541  0.00  0.00    +0.016 C 
ATOM     18  C   UNL     1      34.599 -16.783 -24.176  0.00  0.00    +0.062 C 
ATOM     19  C   UNL     1      34.856 -18.109 -24.523  0.00  0.00    +0.013 C 
BRANCH  15  23
ATOM     20  F   UNL     1      34.856 -14.685 -21.162  0.00  0.00    -0.166 F 
ATOM     21  F   UNL     1      35.053 -14.044 -23.225  0.00  0.00    -0.166 F 
ATOM     22  F   UNL     1      33.112 -14.655 -22.460  0.00  0.00    -0.166 F 
ATOM     23  C   UNL     1      34.439 -14.967 -22.430  0.00  0.00    +0.419 C 
ENDBRANCH  15  23
ENDBRANCH   8  14
ENDBRANCH   1   9
BRANCH   2  24
ATOM     24  O   UNL     1      33.912 -24.314 -15.329  0.00  0.00    -0.453 OA
BRANCH  24  26
ATOM     25  N   UNL     1      36.654 -25.244 -12.347  0.00  0.00    -0.239 NA
ATOM     26  C   UNL     1      34.825 -24.625 -14.336  0.00  0.00    +0.149 C 
ATOM     27  C   UNL     1      35.989 -25.283 -14.672  0.00  0.00    +0.061 C 
ATOM     28  C   UNL     1      36.871 -25.570 -13.642  0.00  0.00    +0.137 C 
ATOM     29  C   UNL     1      34.551 -24.267 -13.032  0.00  0.00    +0.058 C 
ATOM     30  C   UNL     1      35.497 -24.601 -12.076  0.00  0.00    +0.102 C 
BRANCH  28  33
ATOM     31  O   UNL     1      38.114 -27.444 -14.304  0.00  0.00    -0.268 OA
ATOM     32  N   UNL     1      39.301 -25.531 -13.750  0.00  0.00    -0.298 N 
ATOM     33  C   UNL     1      38.118 -26.262 -13.917  0.00  0.00    +0.264 C 
ATOM     34  C   UNL     1      40.617 -26.072 -14.006  0.00  0.00    +0.111 C 
ATOM     35  H   UNL     1      39.234 -24.599 -13.441  0.00  0.00    +0.150 HD
ENDBRANCH  28  33
ENDBRANCH  24  26
ENDBRANCH   2  24
TORSDOF 6
ENDMDL
MODEL 2
REMARK VINA RESULT:     -12.3      5.590      9.552
REMARK  Name = 216239
REMARK  6 active torsions:
REMARK  status: ('A' for Active; 'I' for Inactive)
REMARK    1  A    between atoms: C_1  and  N_9
REMARK    2  A    between atoms: C_2  and  O_24
REMARK    3  A    between atoms: N_8  and  C_14
REMARK    4  A    between atoms: C_15  and  C_23
REMARK    5  A    between atoms: O_24  and  C_26
REMARK    6  A    between atoms: C_28  and  C_33
REMARK                            x       y       z     vdW  Elec       q    Type
REMARK                         _______ _______ _______ _____ _____    ______ ____
ROOT
ATOM      1  C   UNL     1      33.685 -14.122 -22.582  0.00  0.00    +0.052 C 
ATOM      2  C   UNL     1      34.834 -16.596 -23.061  0.00  0.00    +0.145 C 
ATOM      3  C   UNL     1      33.700 -14.623 -23.872  0.00  0.00    +0.018 C 
ATOM      4  C   UNL     1      34.232 -14.830 -21.525  0.00  0.00    +0.018 C 
ATOM      5  C   UNL     1      34.278 -15.869 -24.114  0.00  0.00    +0.039 C 
ATOM      6  C   UNL     1      34.812 -16.076 -21.767  0.00  0.00    +0.039 C 
ENDROOT
BRANCH   1   9
ATOM      7  O   UNL     1      34.213 -11.473 -23.857  0.00  0.00    -0.252 OA
ATOM      8  N   UNL     1      32.569 -10.611 -22.428  0.00  0.00    -0.268 N 
ATOM      9  N   UNL     1      33.098 -12.858 -22.338  0.00  0.00    -0.268 N 
ATOM     10  C   UNL     1      33.383 -11.636 -22.969  0.00  0.00    +0.308 C 
ATOM     11  H   UNL     1      31.947 -10.889 -21.717  0.00  0.00    +0.156 HD
ATOM     12  H   UNL     1      32.404 -12.831 -21.640  0.00  0.00    +0.156 HD
BRANCH   8  14
ATOM     13 CL   UNL     1      32.366  -4.879 -23.855  0.00  0.00    -0.082 Cl
ATOM     14  C   UNL     1      32.532  -9.258 -22.767  0.00  0.00    +0.052 C 
ATOM     15  C   UNL     1      33.633  -7.279 -23.609  0.00  0.00    +0.083 C 
ATOM     16  C   UNL     1      33.672  -8.632 -23.270  0.00  0.00    +0.019 C 
ATOM     17  C   UNL     1      31.352  -8.531 -22.602  0.00  0.00    +0.016 C 
ATOM     18  C   UNL     1      32.453  -6.552 -23.445  0.00  0.00    +0.062 C 
ATOM     19  C   UNL     1      31.313  -7.179 -22.942  0.00  0.00    +0.013 C 
BRANCH  15  23
ATOM     20  F   UNL     1      34.721  -5.328 -24.463  0.00  0.00    -0.166 F 
ATOM     21  F   UNL     1      35.927  -6.687 -23.278  0.00  0.00    -0.166 F 
ATOM     22  F   UNL     1      35.316  -7.249 -25.288  0.00  0.00    -0.166 F 
ATOM     23  C   UNL     1      34.875  -6.646 -24.147  0.00  0.00    +0.419 C 
ENDBRANCH  15  23
ENDBRANCH   8  14
ENDBRANCH   1   9
BRANCH   2  24
ATOM     24  O   UNL     1      35.401 -17.810 -23.297  0.00  0.00    -0.453 OA
BRANCH  24  26
ATOM     25  N   UNL     1      36.266 -20.210 -20.016  0.00  0.00    -0.239 NA
ATOM     26  C   UNL     1      35.688 -18.609 -22.204  0.00  0.00    +0.149 C 
ATOM     27  C   UNL     1      34.677 -19.342 -21.619  0.00  0.00    +0.061 C 
ATOM     28  C   UNL     1      35.017 -20.126 -20.529  0.00  0.00    +0.137 C 
ATOM     29  C   UNL     1      36.981 -18.655 -21.724  0.00  0.00    +0.058 C 
ATOM     30  C   UNL     1      37.217 -19.470 -20.628  0.00  0.00    +0.102 C 
BRANCH  28  33
ATOM     31  O   UNL     1      32.801 -20.784 -20.134  0.00  0.00    -0.268 OA
ATOM     32  N   UNL     1      34.456 -21.867 -18.924  0.00  0.00    -0.298 N 
ATOM     33  C   UNL     1      34.006 -20.927 -19.859  0.00  0.00    +0.264 C 
ATOM     34  C   UNL     1      33.576 -22.752 -18.194  0.00  0.00    +0.111 C 
ATOM     35  H   UNL     1      35.424 -21.928 -18.753  0.00  0.00    +0.150 HD
ENDBRANCH  28  33
ENDBRANCH  24  26
ENDBRANCH   2  24
TORSDOF 6
ENDMDL
MODEL 3
REMARK VINA RESULT:     -12.2      5.905     11.824
REMARK  Name = 216239
REMARK  6 active torsions:
REMARK  status: ('A' for Active; 'I' for Inactive)
REMARK    1  A    between atoms: C_1  and  N_9
REMARK    2  A    between atoms: C_2  and  O_24
REMARK    3  A    between atoms: N_8  and  C_14
REMARK    4  A    between atoms: C_15  and  C_23
REMARK    5  A    between atoms: O_24  and  C_26
REMARK    6  A    between atoms: C_28  and  C_33
REMARK                            x       y       z     vdW  Elec       q    Type
REMARK                         _______ _______ _______ _____ _____    ______ ____
ROOT
ATOM      1  C   UNL     1      35.231 -21.339 -19.377  0.00  0.00    +0.052 C 
ATOM      2  C   UNL     1      35.572 -19.405 -21.330  0.00  0.00    +0.145 C 
ATOM      3  C   UNL     1      34.121 -20.837 -20.034  0.00  0.00    +0.018 C 
ATOM      4  C   UNL     1      36.508 -20.895 -19.675  0.00  0.00    +0.018 C 
ATOM      5  C   UNL     1      34.292 -19.863 -21.018  0.00  0.00    +0.039 C 
ATOM      6  C   UNL     1      36.680 -19.920 -20.658  0.00  0.00    +0.039 C 
ENDROOT
BRANCH   1   9
ATOM      7  O   UNL     1      36.288 -21.468 -16.587  0.00  0.00    -0.252 OA
ATOM      8  N   UNL     1      35.163 -23.513 -16.400  0.00  0.00    -0.268 N 
ATOM      9  N   UNL     1      35.056 -22.327 -18.380  0.00  0.00    -0.268 N 
ATOM     10  C   UNL     1      35.578 -22.339 -17.075  0.00  0.00    +0.308 C 
ATOM     11  H   UNL     1      34.593 -24.126 -16.919  0.00  0.00    +0.156 HD
ATOM     12  H   UNL     1      34.501 -23.100 -18.629  0.00  0.00    +0.156 HD
BRANCH   8  14
ATOM     13 CL   UNL     1      36.356 -25.218 -10.868  0.00  0.00    -0.082 Cl
ATOM     14  C   UNL     1      35.454 -23.918 -15.097  0.00  0.00    +0.052 C 
ATOM     15  C   UNL     1      37.040 -24.714 -13.458  0.00  0.00    +0.083 C 
ATOM     16  C   UNL     1      36.749 -24.310 -14.761  0.00  0.00    +0.019 C 
ATOM     17  C   UNL     1      34.448 -23.931 -14.131  0.00  0.00    +0.016 C 
ATOM     18  C   UNL     1      36.034 -24.727 -12.491  0.00  0.00    +0.062 C 
ATOM     19  C   UNL     1      34.739 -24.335 -12.828  0.00  0.00    +0.013 C 
BRANCH  15  23
ATOM     20  F   UNL     1      38.981 -24.438 -12.088  0.00  0.00    -0.166 F 
ATOM     21  F   UNL     1      38.559 -26.442 -12.805  0.00  0.00    -0.166 F 
ATOM     22  F   UNL     1      39.294 -24.929 -14.183  0.00  0.00    -0.166 F 
ATOM     23  C   UNL     1      38.441 -25.124 -13.137  0.00  0.00    +0.419 C 
ENDBRANCH  15  23
ENDBRANCH   8  14
ENDBRANCH   1   9
BRANCH   2  24
ATOM     24  O   UNL     1      35.739 -18.453 -22.289  0.00  0.00    -0.453 OA
BRANCH  24  26
ATOM     25  N   UNL     1      34.051 -14.716 -21.611  0.00  0.00    -0.239 NA
ATOM     26  C   UNL     1      35.178 -17.208 -22.064  0.00  0.00    +0.149 C 
ATOM     27  C   UNL     1      34.878 -16.399 -23.139  0.00  0.00    +0.061 C 
ATOM     28  C   UNL     1      34.316 -15.164 -22.860  0.00  0.00    +0.137 C 
ATOM     29  C   UNL     1      34.930 -16.805 -20.768  0.00  0.00    +0.058 C 
ATOM     30  C   UNL     1      34.367 -15.551 -20.596  0.00  0.00    +0.102 C 
BRANCH  28  33
ATOM     31  O   UNL     1      34.150 -13.030 -23.818  0.00  0.00    -0.268 OA
ATOM     32  N   UNL     1      33.461 -14.825 -25.113  0.00  0.00    -0.298 N 
ATOM     33  C   UNL     1      33.972 -14.255 -23.941  0.00  0.00    +0.264 C 
ATOM     34  C   UNL     1      33.095 -14.056 -26.282  0.00  0.00    +0.111 C 
ATOM     35  H   UNL     1      33.345 -15.802 -25.144  0.00  0.00    +0.150 HD
ENDBRANCH  28  33
ENDBRANCH  24  26
ENDBRANCH   2  24
TORSDOF 6
ENDMDL
MODEL 4
REMARK VINA RESULT:     -12.2      2.869      4.636
REMARK  Name = 216239
REMARK  6 active torsions:
REMARK  status: ('A' for Active; 'I' for Inactive)
REMARK    1  A    between atoms: C_1  and  N_9
REMARK    2  A    between atoms: C_2  and  O_24
REMARK    3  A    between atoms: N_8  and  C_14
REMARK    4  A    between atoms: C_15  and  C_23
REMARK    5  A    between atoms: O_24  and  C_26
REMARK    6  A    between atoms: C_28  and  C_33
REMARK                            x       y       z     vdW  Elec       q    Type
REMARK                         _______ _______ _______ _____ _____    ______ ____
ROOT
ATOM      1  C   UNL     1      35.349 -21.575 -18.898  0.00  0.00    +0.052 C 
ATOM      2  C   UNL     1      34.618 -23.278 -16.840  0.00  0.00    +0.145 C 
ATOM      3  C   UNL     1      34.156 -22.270 -18.987  0.00  0.00    +0.018 C 
ATOM      4  C   UNL     1      36.186 -21.712 -17.803  0.00  0.00    +0.018 C 
ATOM      5  C   UNL     1      33.787 -23.128 -17.950  0.00  0.00    +0.039 C 
ATOM      6  C   UNL     1      35.818 -22.571 -16.767  0.00  0.00    +0.039 C 
ENDROOT
BRANCH   1   9
ATOM      7  O   UNL     1      33.713 -19.618 -20.452  0.00  0.00    -0.252 OA
ATOM      8  N   UNL     1      35.676 -19.118 -21.628  0.00  0.00    -0.268 N 
ATOM      9  N   UNL     1      35.722 -20.705 -19.950  0.00  0.00    -0.268 N 
ATOM     10  C   UNL     1      34.909 -19.798 -20.651  0.00  0.00    +0.308 C 
ATOM     11  H   UNL     1      36.628 -19.368 -21.675  0.00  0.00    +0.156 HD
ATOM     12  H   UNL     1      36.666 -20.738 -20.224  0.00  0.00    +0.156 HD
BRANCH   8  14
ATOM     13 CL   UNL     1      33.932 -15.012 -25.506  0.00  0.00    -0.082 Cl
ATOM     14  C   UNL     1      35.263 -18.142 -22.536  0.00  0.00    +0.052 C 
ATOM     15  C   UNL     1      34.578 -15.873 -23.001  0.00  0.00    +0.083 C 
ATOM     16  C   UNL     1      34.990 -16.848 -22.094  0.00  0.00    +0.019 C 
ATOM     17  C   UNL     1      35.123 -18.462 -23.887  0.00  0.00    +0.016 C 
ATOM     18  C   UNL     1      34.438 -16.192 -24.353  0.00  0.00    +0.062 C 
ATOM     19  C   UNL     1      34.711 -17.486 -24.794  0.00  0.00    +0.013 C 
BRANCH  15  23
ATOM     20  F   UNL     1      32.971 -14.175 -22.493  0.00  0.00    -0.166 F 
ATOM     21  F   UNL     1      34.709 -14.302 -21.202  0.00  0.00    -0.166 F 
ATOM     22  F   UNL     1      34.914 -13.530 -23.225  0.00  0.00    -0.166 F 
ATOM     23  C   UNL     1      34.297 -14.497 -22.488  0.00  0.00    +0.419 C 
ENDBRANCH  15  23
ENDBRANCH   8  14
ENDBRANCH   1   9
BRANCH   2  24
ATOM     24  O   UNL     1      34.259 -24.117 -15.830  0.00  0.00    -0.453 OA
BRANCH  24  26
ATOM     25  N   UNL     1      30.803 -23.217 -13.705  0.00  0.00    -0.239 NA
ATOM     26  C   UNL     1      33.108 -23.816 -15.123  0.00  0.00    +0.149 C 
ATOM     27  C   UNL     1      31.970 -23.450 -15.810  0.00  0.00    +0.061 C 
ATOM     28  C   UNL     1      30.845 -23.161 -15.056  0.00  0.00    +0.137 C 
ATOM     29  C   UNL     1      33.124 -23.891 -13.746  0.00  0.00    +0.058 C 
ATOM     30  C   UNL     1      31.947 -23.581 -13.084  0.00  0.00    +0.102 C 
BRANCH  28  33
ATOM     31  O   UNL     1      29.599 -22.456 -16.913  0.00  0.00    -0.268 OA
ATOM     32  N   UNL     1      28.444 -22.781 -14.928  0.00  0.00    -0.298 N 
ATOM     33  C   UNL     1      29.607 -22.767 -15.708  0.00  0.00    +0.264 C 
ATOM     34  C   UNL     1      27.136 -22.438 -15.439  0.00  0.00    +0.111 C 
ATOM     35  H   UNL     1      28.522 -23.036 -13.981  0.00  0.00    +0.150 HD
ENDBRANCH  28  33
ENDBRANCH  24  26
ENDBRANCH   2  24
TORSDOF 6
ENDMDL
MODEL 5
REMARK VINA RESULT:     -11.9      4.297      7.325
REMARK  Name = 216239
REMARK  6 active torsions:
REMARK  status: ('A' for Active; 'I' for Inactive)
REMARK    1  A    between atoms: C_1  and  N_9
REMARK    2  A    between atoms: C_2  and  O_24
REMARK    3  A    between atoms: N_8  and  C_14
REMARK    4  A    between atoms: C_15  and  C_23
REMARK    5  A    between atoms: O_24  and  C_26
REMARK    6  A    between atoms: C_28  and  C_33
REMARK                            x       y       z     vdW  Elec       q    Type
REMARK                         _______ _______ _______ _____ _____    ______ ____
ROOT
ATOM      1  C   UNL     1      34.784 -16.272 -22.961  0.00  0.00    +0.052 C 
ATOM      2  C   UNL     1      35.436 -18.711 -21.821  0.00  0.00    +0.145 C 
ATOM      3  C   UNL     1      34.928 -16.361 -21.587  0.00  0.00    +0.018 C 
ATOM      4  C   UNL     1      34.959 -17.376 -23.779  0.00  0.00    +0.018 C 
ATOM      5  C   UNL     1      35.256 -17.589 -21.013  0.00  0.00    +0.039 C 
ATOM      6  C   UNL     1      35.287 -18.605 -23.205  0.00  0.00    +0.039 C 
ENDROOT
BRANCH   1   9
ATOM      7  O   UNL     1      34.925 -13.515 -21.821  0.00  0.00    -0.252 OA
ATOM      8  N   UNL     1      34.106 -12.768 -23.885  0.00  0.00    -0.268 N 
ATOM      9  N   UNL     1      34.451 -15.026 -23.543  0.00  0.00    -0.268 N 
ATOM     10  C   UNL     1      34.537 -13.751 -22.960  0.00  0.00    +0.308 C 
ATOM     11  H   UNL     1      33.820 -13.105 -24.765  0.00  0.00    +0.156 HD
ATOM     12  H   UNL     1      34.119 -15.056 -24.468  0.00  0.00    +0.156 HD
BRANCH   8  14
ATOM     13 CL   UNL     1      33.829  -6.906 -23.184  0.00  0.00    -0.082 Cl
ATOM     14  C   UNL     1      34.031 -11.385 -23.715  0.00  0.00    +0.052 C 
ATOM     15  C   UNL     1      32.891  -9.442 -22.844  0.00  0.00    +0.083 C 
ATOM     16  C   UNL     1      32.964 -10.824 -23.014  0.00  0.00    +0.019 C 
ATOM     17  C   UNL     1      35.026 -10.564 -24.247  0.00  0.00    +0.016 C 
ATOM     18  C   UNL     1      33.885  -8.620 -23.376  0.00  0.00    +0.062 C 
ATOM     19  C   UNL     1      34.952  -9.181 -24.077  0.00  0.00    +0.013 C 
BRANCH  15  23
ATOM     20  F   UNL     1      32.099  -8.173 -20.977  0.00  0.00    -0.166 F 
ATOM     21  F   UNL     1      30.964  -8.024 -22.819  0.00  0.00    -0.166 F 
ATOM     22  F   UNL     1      30.882  -9.849 -21.638  0.00  0.00    -0.166 F 
ATOM     23  C   UNL     1      31.732  -8.880 -22.084  0.00  0.00    +0.419 C 
ENDBRANCH  15  23
ENDBRANCH   8  14
ENDBRANCH   1   9
BRANCH   2  24
ATOM     24  O   UNL     1      35.754 -19.910 -21.261  0.00  0.00    -0.453 OA
BRANCH  24  26
ATOM     25  N   UNL     1      32.961 -21.657 -18.728  0.00  0.00    -0.239 NA
ATOM     26  C   UNL     1      34.824 -20.493 -20.418  0.00  0.00    +0.149 C 
ATOM     27  C   UNL     1      35.260 -21.293 -19.383  0.00  0.00    +0.061 C 
ATOM     28  C   UNL     1      34.290 -21.851 -18.567  0.00  0.00    +0.137 C 
ATOM     29  C   UNL     1      33.482 -20.260 -20.631  0.00  0.00    +0.058 C 
ATOM     30  C   UNL     1      32.591 -20.865 -19.759  0.00  0.00    +0.102 C 
BRANCH  28  33
ATOM     31  O   UNL     1      33.905 -23.600 -17.053  0.00  0.00    -0.268 OA
ATOM     32  N   UNL     1      35.932 -22.487 -16.888  0.00  0.00    -0.298 N 
ATOM     33  C   UNL     1      34.671 -22.705 -17.455  0.00  0.00    +0.264 C 
ATOM     34  C   UNL     1      36.462 -23.268 -15.793  0.00  0.00    +0.111 C 
ATOM     35  H   UNL     1      36.489 -21.762 -17.253  0.00  0.00    +0.150 HD
ENDBRANCH  28  33
ENDBRANCH  24  26
ENDBRANCH   2  24
TORSDOF 6
ENDMDL
MODEL 6
REMARK VINA RESULT:     -11.9      5.790     11.629
REMARK  Name = 216239
REMARK  6 active torsions:
REMARK  status: ('A' for Active; 'I' for Inactive)
REMARK    1  A    between atoms: C_1  and  N_9
REMARK    2  A    between atoms: C_2  and  O_24
REMARK    3  A    between atoms: N_8  and  C_14
REMARK    4  A    between atoms: C_15  and  C_23
REMARK    5  A    between atoms: O_24  and  C_26
REMARK    6  A    between atoms: C_28  and  C_33
REMARK                            x       y       z     vdW  Elec       q    Type
REMARK                         _______ _______ _______ _____ _____    ______ ____
ROOT
ATOM      1  C   UNL     1      36.581 -19.855 -20.157  0.00  0.00    +0.052 C 
ATOM      2  C   UNL     1      35.702 -18.879 -22.596  0.00  0.00    +0.145 C 
ATOM      3  C   UNL     1      37.431 -19.074 -20.920  0.00  0.00    +0.018 C 
ATOM      4  C   UNL     1      35.300 -20.161 -20.586  0.00  0.00    +0.018 C 
ATOM      5  C   UNL     1      36.988 -18.582 -22.148  0.00  0.00    +0.039 C 
ATOM      6  C   UNL     1      34.858 -19.670 -21.815  0.00  0.00    +0.039 C 
ENDROOT
BRANCH   1   9
ATOM      7  O   UNL     1      35.598 -22.164 -18.538  0.00  0.00    -0.252 OA
ATOM      8  N   UNL     1      37.266 -21.612 -16.988  0.00  0.00    -0.268 N 
ATOM      9  N   UNL     1      37.031 -20.354 -18.912  0.00  0.00    -0.268 N 
ATOM     10  C   UNL     1      36.531 -21.450 -18.189  0.00  0.00    +0.308 C 
ATOM     11  H   UNL     1      37.990 -20.961 -16.839  0.00  0.00    +0.156 HD
ATOM     12  H   UNL     1      37.786 -19.875 -18.502  0.00  0.00    +0.156 HD
BRANCH   8  14
ATOM     13 CL   UNL     1      36.521 -25.656 -12.743  0.00  0.00    -0.082 Cl
ATOM     14  C   UNL     1      37.100 -22.570 -15.988  0.00  0.00    +0.052 C 
ATOM     15  C   UNL     1      38.005 -24.335 -14.610  0.00  0.00    +0.083 C 
ATOM     16  C   UNL     1      38.171 -23.378 -15.610  0.00  0.00    +0.019 C 
ATOM     17  C   UNL     1      35.860 -22.719 -15.365  0.00  0.00    +0.016 C 
ATOM     18  C   UNL     1      36.765 -24.485 -13.986  0.00  0.00    +0.062 C 
ATOM     19  C   UNL     1      35.693 -23.675 -14.364  0.00  0.00    +0.013 C 
BRANCH  15  23
ATOM     20  F   UNL     1      38.960 -26.517 -14.394  0.00  0.00    -0.166 F 
ATOM     21  F   UNL     1      40.300 -24.909 -14.959  0.00  0.00    -0.166 F 
ATOM     22  F   UNL     1      39.537 -25.021 -12.926  0.00  0.00    -0.166 F 
ATOM     23  C   UNL     1      39.178 -25.181 -14.232  0.00  0.00    +0.419 C 
ENDBRANCH  15  23
ENDBRANCH   8  14
ENDBRANCH   1   9
BRANCH   2  24
ATOM     24  O   UNL     1      35.270 -18.401 -23.794  0.00  0.00    -0.453 OA
BRANCH  24  26
ATOM     25  N   UNL     1      33.883 -14.486 -23.927  0.00  0.00    -0.239 NA
ATOM     26  C   UNL     1      34.807 -17.097 -23.838  0.00  0.00    +0.149 C 
ATOM     27  C   UNL     1      34.549 -16.433 -22.658  0.00  0.00    +0.061 C 
ATOM     28  C   UNL     1      34.089 -15.130 -22.755  0.00  0.00    +0.137 C 
ATOM     29  C   UNL     1      34.616 -16.491 -25.062  0.00  0.00    +0.058 C 
ATOM     30  C   UNL     1      34.152 -15.185 -25.052  0.00  0.00    +0.102 C 
BRANCH  28  33
ATOM     31  O   UNL     1      34.585 -14.367 -20.594  0.00  0.00    -0.268 OA
ATOM     32  N   UNL     1      32.609 -13.621 -21.550  0.00  0.00    -0.298 N 
ATOM     33  C   UNL     1      33.795 -14.365 -21.556  0.00  0.00    +0.264 C 
ATOM     34  C   UNL     1      32.190 -12.793 -20.441  0.00  0.00    +0.111 C 
ATOM     35  H   UNL     1      32.028 -13.665 -22.343  0.00  0.00    +0.150 HD
ENDBRANCH  28  33
ENDBRANCH  24  26
ENDBRANCH   2  24
TORSDOF 6
ENDMDL
MODEL 7
REMARK VINA RESULT:     -11.9      3.671      5.552
REMARK  Name = 216239
REMARK  6 active torsions:
REMARK  status: ('A' for Active; 'I' for Inactive)
REMARK    1  A    between atoms: C_1  and  N_9
REMARK    2  A    between atoms: C_2  and  O_24
REMARK    3  A    between atoms: N_8  and  C_14
REMARK    4  A    between atoms: C_15  and  C_23
REMARK    5  A    between atoms: O_24  and  C_26
REMARK    6  A    between atoms: C_28  and  C_33
REMARK                            x       y       z     vdW  Elec       q    Type
REMARK                         _______ _______ _______ _____ _____    ______ ____
ROOT
ATOM      1  C   UNL     1      35.388 -18.472 -21.461  0.00  0.00    +0.052 C 
ATOM      2  C   UNL     1      36.355 -20.657 -20.060  0.00  0.00    +0.145 C 
ATOM      3  C   UNL     1      36.745 -18.567 -21.207  0.00  0.00    +0.018 C 
ATOM      4  C   UNL     1      34.503 -19.446 -21.030  0.00  0.00    +0.018 C 
ATOM      5  C   UNL     1      37.233 -19.667 -20.501  0.00  0.00    +0.039 C 
ATOM      6  C   UNL     1      34.990 -20.546 -20.324  0.00  0.00    +0.039 C 
ENDROOT
BRANCH   1   9
ATOM      7  O   UNL     1      34.681 -15.732 -20.506  0.00  0.00    -0.252 OA
ATOM      8  N   UNL     1      34.114 -15.252 -22.727  0.00  0.00    -0.268 N 
ATOM      9  N   UNL     1      34.895 -17.356 -22.176  0.00  0.00    -0.268 N 
ATOM     10  C   UNL     1      34.577 -16.081 -21.677  0.00  0.00    +0.308 C 
ATOM     11  H   UNL     1      34.081 -15.670 -23.619  0.00  0.00    +0.156 HD
ATOM     12  H   UNL     1      34.757 -17.487 -23.141  0.00  0.00    +0.156 HD
BRANCH   8  14
ATOM     13 CL   UNL     1      32.366  -9.610 -22.514  0.00  0.00    -0.082 Cl
ATOM     14  C   UNL     1      33.695 -13.923 -22.669  0.00  0.00    +0.052 C 
ATOM     15  C   UNL     1      32.481 -12.158 -21.552  0.00  0.00    +0.083 C 
ATOM     16  C   UNL     1      32.898 -13.487 -21.611  0.00  0.00    +0.019 C 
ATOM     17  C   UNL     1      34.075 -13.029 -23.670  0.00  0.00    +0.016 C 
ATOM     18  C   UNL     1      32.860 -11.263 -22.553  0.00  0.00    +0.062 C 
ATOM     19  C   UNL     1      33.658 -11.699 -23.611  0.00  0.00    +0.013 C 
BRANCH  15  23
ATOM     20  F   UNL     1      32.049 -10.572 -19.815  0.00  0.00    -0.166 F 
ATOM     21  F   UNL     1      30.326 -11.511 -20.740  0.00  0.00    -0.166 F 
ATOM     22  F   UNL     1      31.599 -12.658 -19.402  0.00  0.00    -0.166 F 
ATOM     23  C   UNL     1      31.629 -11.730 -20.401  0.00  0.00    +0.419 C 
ENDBRANCH  15  23
ENDBRANCH   8  14
ENDBRANCH   1   9
BRANCH   2  24
ATOM     24  O   UNL     1      36.830 -21.730 -19.371  0.00  0.00    -0.453 OA
BRANCH  24  26
ATOM     25  N   UNL     1      35.065 -22.614 -15.713  0.00  0.00    -0.239 NA
ATOM     26  C   UNL     1      36.241 -22.024 -18.152  0.00  0.00    +0.149 C 
ATOM     27  C   UNL     1      34.906 -22.364 -18.113  0.00  0.00    +0.061 C 
ATOM     28  C   UNL     1      34.365 -22.650 -16.870  0.00  0.00    +0.137 C 
ATOM     29  C   UNL     1      37.005 -21.970 -17.005  0.00  0.00    +0.058 C 
ATOM     30  C   UNL     1      36.369 -22.273 -15.811  0.00  0.00    +0.102 C 
BRANCH  28  33
ATOM     31  O   UNL     1      32.172 -22.809 -17.684  0.00  0.00    -0.268 OA
ATOM     32  N   UNL     1      32.569 -23.629 -15.552  0.00  0.00    -0.298 N 
ATOM     33  C   UNL     1      32.965 -23.018 -16.748  0.00  0.00    +0.264 C 
ATOM     34  C   UNL     1      31.218 -24.072 -15.290  0.00  0.00    +0.111 C 
ATOM     35  H   UNL     1      33.247 -23.765 -14.852  0.00  0.00    +0.150 HD
ENDBRANCH  28  33
ENDBRANCH  24  26
ENDBRANCH   2  24
TORSDOF 6
ENDMDL
MODEL 8
REMARK VINA RESULT:     -11.9      5.866     11.857
REMARK  Name = 216239
REMARK  6 active torsions:
REMARK  status: ('A' for Active; 'I' for Inactive)
REMARK    1  A    between atoms: C_1  and  N_9
REMARK    2  A    between atoms: C_2  and  O_24
REMARK    3  A    between atoms: N_8  and  C_14
REMARK    4  A    between atoms: C_15  and  C_23
REMARK    5  A    between atoms: O_24  and  C_26
REMARK    6  A    between atoms: C_28  and  C_33
REMARK                            x       y       z     vdW  Elec       q    Type
REMARK                         _______ _______ _______ _____ _____    ______ ____
ROOT
ATOM      1  C   UNL     1      35.650 -20.888 -19.664  0.00  0.00    +0.052 C 
ATOM      2  C   UNL     1      35.672 -18.967 -21.659  0.00  0.00    +0.145 C 
ATOM      3  C   UNL     1      34.468 -20.569 -20.309  0.00  0.00    +0.018 C 
ATOM      4  C   UNL     1      36.844 -20.268 -19.993  0.00  0.00    +0.018 C 
ATOM      5  C   UNL     1      34.479 -19.602 -21.315  0.00  0.00    +0.039 C 
ATOM      6  C   UNL     1      36.855 -19.299 -20.998  0.00  0.00    +0.039 C 
ENDROOT
BRANCH   1   9
ATOM      7  O   UNL     1      37.153 -21.006 -17.086  0.00  0.00    -0.252 OA
ATOM      8  N   UNL     1      36.066 -23.045 -16.702  0.00  0.00    -0.268 N 
ATOM      9  N   UNL     1      35.638 -21.869 -18.645  0.00  0.00    -0.268 N 
ATOM     10  C   UNL     1      36.368 -21.877 -17.444  0.00  0.00    +0.308 C 
ATOM     11  H   UNL     1      35.415 -23.658 -17.116  0.00  0.00    +0.156 HD
ATOM     12  H   UNL     1      35.047 -22.641 -18.794  0.00  0.00    +0.156 HD
BRANCH   8  14
ATOM     13 CL   UNL     1      38.228 -24.742 -11.470  0.00  0.00    -0.082 Cl
ATOM     14  C   UNL     1      36.567 -23.444 -15.462  0.00  0.00    +0.052 C 
ATOM     15  C   UNL     1      36.215 -23.945 -13.126  0.00  0.00    +0.083 C 
ATOM     16  C   UNL     1      35.714 -23.546 -14.364  0.00  0.00    +0.019 C 
ATOM     17  C   UNL     1      37.923 -23.741 -15.323  0.00  0.00    +0.016 C 
ATOM     18  C   UNL     1      37.571 -24.243 -12.985  0.00  0.00    +0.062 C 
ATOM     19  C   UNL     1      38.424 -24.141 -14.084  0.00  0.00    +0.013 C 
BRANCH  15  23
ATOM     20  F   UNL     1      33.984 -23.717 -12.296  0.00  0.00    -0.166 F 
ATOM     21  F   UNL     1      35.196 -25.296 -11.435  0.00  0.00    -0.166 F 
ATOM     22  F   UNL     1      35.612 -23.219 -10.944  0.00  0.00    -0.166 F 
ATOM     23  C   UNL     1      35.268 -24.045 -11.974  0.00  0.00    +0.419 C 
ENDBRANCH  15  23
ENDBRANCH   8  14
ENDBRANCH   1   9
BRANCH   2  24
ATOM     24  O   UNL     1      35.682 -18.022 -22.638  0.00  0.00    -0.453 OA
BRANCH  24  26
ATOM     25  N   UNL     1      33.955 -14.340 -21.783  0.00  0.00    -0.239 NA
ATOM     26  C   UNL     1      35.108 -16.795 -22.354  0.00  0.00    +0.149 C 
ATOM     27  C   UNL     1      34.813 -15.933 -23.388  0.00  0.00    +0.061 C 
ATOM     28  C   UNL     1      34.237 -14.718 -23.051  0.00  0.00    +0.137 C 
ATOM     29  C   UNL     1      34.843 -16.464 -21.042  0.00  0.00    +0.058 C 
ATOM     30  C   UNL     1      34.267 -15.224 -20.810  0.00  0.00    +0.102 C 
BRANCH  28  33
ATOM     31  O   UNL     1      34.008 -12.535 -23.874  0.00  0.00    -0.268 OA
ATOM     32  N   UNL     1      33.469 -14.270 -25.316  0.00  0.00    -0.298 N 
ATOM     33  C   UNL     1      33.897 -13.756 -24.085  0.00  0.00    +0.264 C 
ATOM     34  C   UNL     1      33.118 -13.442 -26.448  0.00  0.00    +0.111 C 
ATOM     35  H   UNL     1      33.403 -15.247 -25.415  0.00  0.00    +0.150 HD
ENDBRANCH  28  33
ENDBRANCH  24  26
ENDBRANCH   2  24
TORSDOF 6
ENDMDL
MODEL 9
REMARK VINA RESULT:     -11.8      3.153      5.140
REMARK  Name = 216239
REMARK  6 active torsions:
REMARK  status: ('A' for Active; 'I' for Inactive)
REMARK    1  A    between atoms: C_1  and  N_9
REMARK    2  A    between atoms: C_2  and  O_24
REMARK    3  A    between atoms: N_8  and  C_14
REMARK    4  A    between atoms: C_15  and  C_23
REMARK    5  A    between atoms: O_24  and  C_26
REMARK    6  A    between atoms: C_28  and  C_33
REMARK                            x       y       z     vdW  Elec       q    Type
REMARK                         _______ _______ _______ _____ _____    ______ ____
ROOT
ATOM      1  C   UNL     1      35.420 -18.362 -21.477  0.00  0.00    +0.052 C 
ATOM      2  C   UNL     1      36.353 -20.553 -20.063  0.00  0.00    +0.145 C 
ATOM      3  C   UNL     1      36.756 -18.417 -21.118  0.00  0.00    +0.018 C 
ATOM      4  C   UNL     1      34.540 -19.378 -21.145  0.00  0.00    +0.018 C 
ATOM      5  C   UNL     1      37.226 -19.521 -20.406  0.00  0.00    +0.039 C 
ATOM      6  C   UNL     1      35.009 -20.482 -20.432  0.00  0.00    +0.039 C 
ENDROOT
BRANCH   1   9
ATOM      7  O   UNL     1      34.599 -15.657 -20.515  0.00  0.00    -0.252 OA
ATOM      8  N   UNL     1      34.150 -15.146 -22.757  0.00  0.00    -0.268 N 
ATOM      9  N   UNL     1      34.945 -17.242 -22.199  0.00  0.00    -0.268 N 
ATOM     10  C   UNL     1      34.570 -15.985 -21.696  0.00  0.00    +0.308 C 
ATOM     11  H   UNL     1      34.179 -15.546 -23.656  0.00  0.00    +0.156 HD
ATOM     12  H   UNL     1      34.866 -17.357 -23.173  0.00  0.00    +0.156 HD
BRANCH   8  14
ATOM     13 CL   UNL     1      32.266  -9.548 -22.544  0.00  0.00    -0.082 Cl
ATOM     14  C   UNL     1      33.700 -13.827 -22.698  0.00  0.00    +0.052 C 
ATOM     15  C   UNL     1      32.449 -12.090 -21.578  0.00  0.00    +0.083 C 
ATOM     16  C   UNL     1      32.898 -13.409 -21.637  0.00  0.00    +0.019 C 
ATOM     17  C   UNL     1      34.052 -12.925 -23.704  0.00  0.00    +0.016 C 
ATOM     18  C   UNL     1      32.801 -11.188 -22.583  0.00  0.00    +0.062 C 
ATOM     19  C   UNL     1      33.603 -11.606 -23.645  0.00  0.00    +0.013 C 
BRANCH  15  23
ATOM     20  F   UNL     1      30.289 -11.467 -20.760  0.00  0.00    -0.166 F 
ATOM     21  F   UNL     1      31.559 -12.604 -19.418  0.00  0.00    -0.166 F 
ATOM     22  F   UNL     1      32.019 -10.521 -19.844  0.00  0.00    -0.166 F 
ATOM     23  C   UNL     1      31.594 -11.681 -20.422  0.00  0.00    +0.419 C 
ENDBRANCH  15  23
ENDBRANCH   8  14
ENDBRANCH   1   9
BRANCH   2  24
ATOM     24  O   UNL     1      36.811 -21.629 -19.367  0.00  0.00    -0.453 OA
BRANCH  24  26
ATOM     25  N   UNL     1      34.540 -22.950 -16.146  0.00  0.00    -0.239 NA
ATOM     26  C   UNL     1      36.055 -22.070 -18.293  0.00  0.00    +0.149 C 
ATOM     27  C   UNL     1      36.659 -22.235 -17.065  0.00  0.00    +0.061 C 
ATOM     28  C   UNL     1      35.859 -22.676 -16.024  0.00  0.00    +0.137 C 
ATOM     29  C   UNL     1      34.714 -22.333 -18.477  0.00  0.00    +0.058 C 
ATOM     30  C   UNL     1      34.001 -22.771 -17.372  0.00  0.00    +0.102 C 
BRANCH  28  33
ATOM     31  O   UNL     1      37.631 -22.663 -14.489  0.00  0.00    -0.268 OA
ATOM     32  N   UNL     1      35.545 -23.283 -13.688  0.00  0.00    -0.298 N 
ATOM     33  C   UNL     1      36.423 -22.874 -14.700  0.00  0.00    +0.264 C 
ATOM     34  C   UNL     1      35.950 -23.498 -12.317  0.00  0.00    +0.111 C 
ATOM     35  H   UNL     1      34.601 -23.432 -13.923  0.00  0.00    +0.150 HD
ENDBRANCH  28  33
ENDBRANCH  24  26
ENDBRANCH   2  24
TORSDOF 6
ENDMDL
