MODEL 1
REMARK VINA RESULT:     -12.0      0.000      0.000
REMARK  Name = 6102777
REMARK  2 active torsions:
REMARK  status: ('A' for Active; 'I' for Inactive)
REMARK    1  A    between atoms: C_4  and  S_16
REMARK    2  A    between atoms: S_16  and  N_19
REMARK                            x       y       z     vdW  Elec       q    Type
REMARK                         _______ _______ _______ _____ _____    ______ ____
ROOT
ATOM      1  O   UNL     1      36.918 -20.952 -18.756  0.00  0.00    -0.453 OA
ATOM      2  O   UNL     1      33.021 -22.187 -18.562  0.00  0.00    -0.286 OA
ATOM      3  C   UNL     1      35.173 -22.215 -17.605  0.00  0.00    +0.075 A 
ATOM      4  C   UNL     1      35.765 -23.394 -15.584  0.00  0.00    +0.126 C 
ATOM      5  C   UNL     1      36.484 -21.757 -17.732  0.00  0.00    +0.148 A 
ATOM      6  C   UNL     1      34.808 -23.032 -16.533  0.00  0.00    +0.026 C 
ATOM      7  C   UNL     1      34.668 -20.954 -19.708  0.00  0.00    +0.074 A 
ATOM      8  C   UNL     1      34.185 -21.818 -18.619  0.00  0.00    +0.201 A 
ATOM      9  C   UNL     1      36.009 -20.570 -19.713  0.00  0.00    +0.148 A 
ATOM     10  C   UNL     1      37.078 -22.940 -15.708  0.00  0.00    +0.023 C 
ATOM     11  C   UNL     1      37.438 -22.123 -16.780  0.00  0.00    +0.039 C 
ATOM     12  C   UNL     1      33.803 -20.525 -20.717  0.00  0.00    +0.006 C 
ATOM     13  C   UNL     1      36.490 -19.751 -20.736  0.00  0.00    +0.038 C 
ATOM     14  C   UNL     1      34.289 -19.706 -21.737  0.00  0.00    +0.000 C 
ATOM     15  C   UNL     1      35.629 -19.320 -21.747  0.00  0.00    +0.003 C 
ENDROOT
BRANCH   4  16
ATOM     16  S   UNL     1      35.319 -24.416 -14.240  0.00  0.00    +0.081 S 
ATOM     17  O   UNL     1      33.892 -24.249 -13.996  0.00  0.00    -0.149 OA
ATOM     18  O   UNL     1      35.853 -25.748 -14.489  0.00  0.00    -0.149 OA
BRANCH  16  19
ATOM     19  N   UNL     1      36.193 -23.692 -12.965  0.00  0.00    -0.156 N 
ATOM     20  N   UNL     1      36.777 -23.432 -10.645  0.00  0.00    -0.094 NA
ATOM     21  N   UNL     1      35.217 -24.991 -11.161  0.00  0.00    -0.071 NA
ATOM     22  N   UNL     1      36.298 -24.098  -9.584  0.00  0.00    -0.139 N 
ATOM     23  N   UNL     1      35.371 -25.030  -9.843  0.00  0.00    -0.020 NA
ATOM     24  C   UNL     1      36.070 -24.029 -11.596  0.00  0.00    +0.145 C 
ATOM     25  H   UNL     1      36.834 -22.982 -13.200  0.00  0.00    +0.186 HD
ATOM     26  H   UNL     1      36.609 -23.912  -8.669  0.00  0.00    +0.197 HD
ENDBRANCH  16  19
ENDBRANCH   4  16
TORSDOF 2
ENDMDL
MODEL 2
REMARK VINA RESULT:     -11.8      2.741      4.014
REMARK  Name = 6102777
REMARK  2 active torsions:
REMARK  status: ('A' for Active; 'I' for Inactive)
REMARK    1  A    between atoms: C_4  and  S_16
REMARK    2  A    between atoms: S_16  and  N_19
REMARK                            x       y       z     vdW  Elec       q    Type
REMARK                         _______ _______ _______ _____ _____    ______ ____
ROOT
ATOM      1  O   UNL     1      33.997 -23.083 -16.490  0.00  0.00    -0.453 OA
ATOM      2  O   UNL     1      37.963 -22.088 -16.333  0.00  0.00    -0.286 OA
ATOM      3  C   UNL     1      36.109 -23.070 -15.263  0.00  0.00    +0.075 A 
ATOM      4  C   UNL     1      36.153 -24.053 -13.060  0.00  0.00    +0.126 C 
ATOM      5  C   UNL     1      34.754 -23.379 -15.383  0.00  0.00    +0.148 A 
ATOM      6  C   UNL     1      36.813 -23.404 -14.104  0.00  0.00    +0.026 C 
ATOM      7  C   UNL     1      35.951 -22.079 -17.557  0.00  0.00    +0.074 A 
ATOM      8  C   UNL     1      36.779 -22.387 -16.380  0.00  0.00    +0.201 A 
ATOM      9  C   UNL     1      34.605 -22.446 -17.543  0.00  0.00    +0.148 A 
ATOM     10  C   UNL     1      34.798 -24.363 -13.174  0.00  0.00    +0.023 C 
ATOM     11  C   UNL     1      34.099 -24.028 -14.334  0.00  0.00    +0.039 C 
ATOM     12  C   UNL     1      36.499 -21.432 -18.667  0.00  0.00    +0.006 C 
ATOM     13  C   UNL     1      33.800 -22.164 -18.648  0.00  0.00    +0.038 C 
ATOM     14  C   UNL     1      35.690 -21.152 -19.768  0.00  0.00    +0.000 C 
ATOM     15  C   UNL     1      34.344 -21.517 -19.760  0.00  0.00    +0.003 C 
ENDROOT
BRANCH   4  16
ATOM     16  S   UNL     1      37.024 -24.475 -11.606  0.00  0.00    +0.081 S 
ATOM     17  O   UNL     1      36.810 -23.418 -10.625  0.00  0.00    -0.149 OA
ATOM     18  O   UNL     1      36.691 -25.851 -11.262  0.00  0.00    -0.149 OA
BRANCH  16  19
ATOM     19  N   UNL     1      38.640 -24.410 -12.153  0.00  0.00    -0.156 N 
ATOM     20  N   UNL     1      40.500 -25.228 -13.443  0.00  0.00    -0.094 NA
ATOM     21  N   UNL     1      38.552 -26.377 -13.573  0.00  0.00    -0.071 NA
ATOM     22  N   UNL     1      40.548 -26.297 -14.251  0.00  0.00    -0.139 N 
ATOM     23  N   UNL     1      39.417 -27.008 -14.358  0.00  0.00    -0.020 NA
ATOM     24  C   UNL     1      39.235 -25.328 -13.051  0.00  0.00    +0.145 C 
ATOM     25  H   UNL     1      39.203 -23.675 -11.818  0.00  0.00    +0.186 HD
ATOM     26  H   UNL     1      41.368 -26.545 -14.738  0.00  0.00    +0.197 HD
ENDBRANCH  16  19
ENDBRANCH   4  16
TORSDOF 2
ENDMDL
MODEL 3
REMARK VINA RESULT:     -11.4      6.946      9.388
REMARK  Name = 6102777
REMARK  2 active torsions:
REMARK  status: ('A' for Active; 'I' for Inactive)
REMARK    1  A    between atoms: C_4  and  S_16
REMARK    2  A    between atoms: S_16  and  N_19
REMARK                            x       y       z     vdW  Elec       q    Type
REMARK                         _______ _______ _______ _____ _____    ______ ____
ROOT
ATOM      1  O   UNL     1      33.631 -13.030 -22.922  0.00  0.00    -0.453 OA
ATOM      2  O   UNL     1      32.360 -14.706 -19.412  0.00  0.00    -0.286 OA
ATOM      3  C   UNL     1      33.638 -14.922 -21.379  0.00  0.00    +0.075 A 
ATOM      4  C   UNL     1      34.939 -16.868 -21.967  0.00  0.00    +0.126 C 
ATOM      5  C   UNL     1      34.032 -14.292 -22.559  0.00  0.00    +0.148 A 
ATOM      6  C   UNL     1      34.089 -16.210 -21.078  0.00  0.00    +0.026 C 
ATOM      7  C   UNL     1      32.324 -12.854 -20.867  0.00  0.00    +0.074 A 
ATOM      8  C   UNL     1      32.741 -14.205 -20.460  0.00  0.00    +0.201 A 
ATOM      9  C   UNL     1      32.793 -12.344 -22.077  0.00  0.00    +0.148 A 
ATOM     10  C   UNL     1      35.335 -16.242 -23.149  0.00  0.00    +0.023 C 
ATOM     11  C   UNL     1      34.883 -14.956 -23.445  0.00  0.00    +0.039 C 
ATOM     12  C   UNL     1      31.473 -12.096 -20.059  0.00  0.00    +0.006 C 
ATOM     13  C   UNL     1      32.411 -11.064 -22.483  0.00  0.00    +0.038 C 
ATOM     14  C   UNL     1      31.093 -10.818 -20.471  0.00  0.00    +0.000 C 
ATOM     15  C   UNL     1      31.561 -10.303 -21.679  0.00  0.00    +0.003 C 
ENDROOT
BRANCH   4  16
ATOM     16  S   UNL     1      35.508 -18.478 -21.600  0.00  0.00    +0.081 S 
ATOM     17  O   UNL     1      35.953 -19.096 -22.843  0.00  0.00    -0.149 OA
ATOM     18  O   UNL     1      36.429 -18.387 -20.474  0.00  0.00    -0.149 OA
BRANCH  16  19
ATOM     19  N   UNL     1      34.066 -19.233 -21.085  0.00  0.00    -0.156 N 
ATOM     20  N   UNL     1      32.844 -20.955 -19.932  0.00  0.00    -0.094 NA
ATOM     21  N   UNL     1      35.105 -21.069 -19.883  0.00  0.00    -0.071 NA
ATOM     22  N   UNL     1      33.324 -22.002 -19.245  0.00  0.00    -0.139 N 
ATOM     23  N   UNL     1      34.659 -22.109 -19.190  0.00  0.00    -0.020 NA
ATOM     24  C   UNL     1      33.996 -20.412 -20.305  0.00  0.00    +0.145 C 
ATOM     25  H   UNL     1      33.215 -18.815 -21.352  0.00  0.00    +0.186 HD
ATOM     26  H   UNL     1      32.730 -22.653 -18.806  0.00  0.00    +0.197 HD
ENDBRANCH  16  19
ENDBRANCH   4  16
TORSDOF 2
ENDMDL
MODEL 4
REMARK VINA RESULT:     -11.2      4.246      5.867
REMARK  Name = 6102777
REMARK  2 active torsions:
REMARK  status: ('A' for Active; 'I' for Inactive)
REMARK    1  A    between atoms: C_4  and  S_16
REMARK    2  A    between atoms: S_16  and  N_19
REMARK                            x       y       z     vdW  Elec       q    Type
REMARK                         _______ _______ _______ _____ _____    ______ ____
ROOT
ATOM      1  O   UNL     1      32.616 -22.884 -15.679  0.00  0.00    -0.453 OA
ATOM      2  O   UNL     1      31.502 -25.372 -12.626  0.00  0.00    -0.286 OA
ATOM      3  C   UNL     1      33.233 -24.210 -13.722  0.00  0.00    +0.075 A 
ATOM      4  C   UNL     1      35.550 -24.240 -13.051  0.00  0.00    +0.126 C 
ATOM      5  C   UNL     1      33.542 -23.360 -14.784  0.00  0.00    +0.148 A 
ATOM      6  C   UNL     1      34.232 -24.652 -12.853  0.00  0.00    +0.026 C 
ATOM      7  C   UNL     1      30.857 -24.107 -14.505  0.00  0.00    +0.074 A 
ATOM      8  C   UNL     1      31.835 -24.628 -13.537  0.00  0.00    +0.201 A 
ATOM      9  C   UNL     1      31.305 -23.264 -15.522  0.00  0.00    +0.148 A 
ATOM     10  C   UNL     1      35.866 -23.391 -14.112  0.00  0.00    +0.023 C 
ATOM     11  C   UNL     1      34.864 -22.952 -14.978  0.00  0.00    +0.039 C 
ATOM     12  C   UNL     1      29.506 -24.448 -14.410  0.00  0.00    +0.006 C 
ATOM     13  C   UNL     1      30.395 -22.758 -16.451  0.00  0.00    +0.038 C 
ATOM     14  C   UNL     1      28.601 -23.940 -15.342  0.00  0.00    +0.000 C 
ATOM     15  C   UNL     1      29.044 -23.096 -16.360  0.00  0.00    +0.003 C 
ENDROOT
BRANCH   4  16
ATOM     16  S   UNL     1      36.808 -24.787 -11.970  0.00  0.00    +0.081 S 
ATOM     17  O   UNL     1      37.729 -23.679 -11.747  0.00  0.00    -0.149 OA
ATOM     18  O   UNL     1      36.174 -25.434 -10.829  0.00  0.00    -0.149 OA
BRANCH  16  19
ATOM     19  N   UNL     1      37.580 -25.971 -12.928  0.00  0.00    -0.156 N 
ATOM     20  N   UNL     1      39.428 -26.811 -14.220  0.00  0.00    -0.094 NA
ATOM     21  N   UNL     1      39.649 -24.755 -13.295  0.00  0.00    -0.071 NA
ATOM     22  N   UNL     1      40.604 -26.219 -14.477  0.00  0.00    -0.139 N 
ATOM     23  N   UNL     1      40.777 -24.999 -13.950  0.00  0.00    -0.020 NA
ATOM     24  C   UNL     1      38.877 -25.855 -13.482  0.00  0.00    +0.145 C 
ATOM     25  H   UNL     1      37.083 -26.802 -13.109  0.00  0.00    +0.186 HD
ATOM     26  H   UNL     1      41.298 -26.655 -15.022  0.00  0.00    +0.197 HD
ENDBRANCH  16  19
ENDBRANCH   4  16
TORSDOF 2
ENDMDL
MODEL 5
REMARK VINA RESULT:     -11.2      0.968      2.245
REMARK  Name = 6102777
REMARK  2 active torsions:
REMARK  status: ('A' for Active; 'I' for Inactive)
REMARK    1  A    between atoms: C_4  and  S_16
REMARK    2  A    between atoms: S_16  and  N_19
REMARK                            x       y       z     vdW  Elec       q    Type
REMARK                         _______ _______ _______ _____ _____    ______ ____
ROOT
ATOM      1  O   UNL     1      33.161 -21.480 -19.104  0.00  0.00    -0.453 OA
ATOM      2  O   UNL     1      37.113 -21.769 -18.081  0.00  0.00    -0.286 OA
ATOM      3  C   UNL     1      34.878 -22.316 -17.580  0.00  0.00    +0.075 A 
ATOM      4  C   UNL     1      34.175 -23.632 -15.683  0.00  0.00    +0.126 C 
ATOM      5  C   UNL     1      33.550 -22.177 -17.986  0.00  0.00    +0.148 A 
ATOM      6  C   UNL     1      35.195 -23.042 -16.430  0.00  0.00    +0.026 C 
ATOM      7  C   UNL     1      35.496 -20.943 -19.580  0.00  0.00    +0.074 A 
ATOM      8  C   UNL     1      35.933 -21.684 -18.387  0.00  0.00    +0.201 A 
ATOM      9  C   UNL     1      34.133 -20.883 -19.869  0.00  0.00    +0.148 A 
ATOM     10  C   UNL     1      32.846 -23.495 -16.085  0.00  0.00    +0.023 C 
ATOM     11  C   UNL     1      32.533 -22.769 -17.234  0.00  0.00    +0.039 C 
ATOM     12  C   UNL     1      36.425 -20.309 -20.408  0.00  0.00    +0.006 C 
ATOM     13  C   UNL     1      33.695 -20.185 -20.996  0.00  0.00    +0.038 C 
ATOM     14  C   UNL     1      35.982 -19.613 -21.533  0.00  0.00    +0.000 C 
ATOM     15  C   UNL     1      34.620 -19.551 -21.827  0.00  0.00    +0.003 C 
ENDROOT
BRANCH   4  16
ATOM     16  S   UNL     1      34.561 -24.541 -14.243  0.00  0.00    +0.081 S 
ATOM     17  O   UNL     1      33.332 -24.727 -13.481  0.00  0.00    -0.149 OA
ATOM     18  O   UNL     1      35.343 -25.705 -14.639  0.00  0.00    -0.149 OA
BRANCH  16  19
ATOM     19  N   UNL     1      35.572 -23.443 -13.415  0.00  0.00    -0.156 N 
ATOM     20  N   UNL     1      36.898 -22.757 -11.528  0.00  0.00    -0.094 NA
ATOM     21  N   UNL     1      35.874 -24.774 -11.406  0.00  0.00    -0.071 NA
ATOM     22  N   UNL     1      37.124 -23.417 -10.383  0.00  0.00    -0.139 N 
ATOM     23  N   UNL     1      36.536 -24.616 -10.267  0.00  0.00    -0.020 NA
ATOM     24  C   UNL     1      36.115 -23.648 -12.125  0.00  0.00    +0.145 C 
ATOM     25  H   UNL     1      35.794 -22.599 -13.872  0.00  0.00    +0.186 HD
ATOM     26  H   UNL     1      37.689 -23.043  -9.669  0.00  0.00    +0.197 HD
ENDBRANCH  16  19
ENDBRANCH   4  16
TORSDOF 2
ENDMDL
MODEL 6
REMARK VINA RESULT:     -11.2      4.624      5.530
REMARK  Name = 6102777
REMARK  2 active torsions:
REMARK  status: ('A' for Active; 'I' for Inactive)
REMARK    1  A    between atoms: C_4  and  S_16
REMARK    2  A    between atoms: S_16  and  N_19
REMARK                            x       y       z     vdW  Elec       q    Type
REMARK                         _______ _______ _______ _____ _____    ______ ____
ROOT
ATOM      1  O   UNL     1      35.669 -22.742 -16.292  0.00  0.00    -0.453 OA
ATOM      2  O   UNL     1      32.219 -22.326 -18.453  0.00  0.00    -0.286 OA
ATOM      3  C   UNL     1      33.255 -23.064 -16.470  0.00  0.00    +0.075 A 
ATOM      4  C   UNL     1      32.104 -24.105 -14.622  0.00  0.00    +0.126 C 
ATOM      5  C   UNL     1      34.467 -23.175 -15.789  0.00  0.00    +0.148 A 
ATOM      6  C   UNL     1      32.071 -23.527 -15.892  0.00  0.00    +0.026 C 
ATOM      7  C   UNL     1      34.547 -21.992 -18.327  0.00  0.00    +0.074 A 
ATOM      8  C   UNL     1      33.249 -22.449 -17.807  0.00  0.00    +0.201 A 
ATOM      9  C   UNL     1      35.684 -22.166 -17.539  0.00  0.00    +0.148 A 
ATOM     10  C   UNL     1      33.314 -24.220 -13.938  0.00  0.00    +0.023 C 
ATOM     11  C   UNL     1      34.494 -23.755 -14.519  0.00  0.00    +0.039 C 
ATOM     12  C   UNL     1      34.641 -21.396 -19.587  0.00  0.00    +0.006 C 
ATOM     13  C   UNL     1      36.926 -21.739 -18.012  0.00  0.00    +0.038 C 
ATOM     14  C   UNL     1      35.886 -20.972 -20.056  0.00  0.00    +0.000 C 
ATOM     15  C   UNL     1      37.025 -21.143 -19.271  0.00  0.00    +0.003 C 
ENDROOT
BRANCH   4  16
ATOM     16  S   UNL     1      30.630 -24.689 -13.890  0.00  0.00    +0.081 S 
ATOM     17  O   UNL     1      30.193 -25.868 -14.626  0.00  0.00    -0.149 OA
ATOM     18  O   UNL     1      30.844 -24.778 -12.452  0.00  0.00    -0.149 OA
BRANCH  16  19
ATOM     19  N   UNL     1      29.561 -23.398 -14.217  0.00  0.00    -0.156 N 
ATOM     20  N   UNL     1      27.893 -22.282 -15.545  0.00  0.00    -0.094 NA
ATOM     21  N   UNL     1      28.659 -24.278 -16.292  0.00  0.00    -0.071 NA
ATOM     22  N   UNL     1      27.336 -22.685 -16.696  0.00  0.00    -0.139 N 
ATOM     23  N   UNL     1      27.761 -23.862 -17.176  0.00  0.00    -0.020 NA
ATOM     24  C   UNL     1      28.706 -23.311 -15.342  0.00  0.00    +0.145 C 
ATOM     25  H   UNL     1      29.537 -22.655 -13.571  0.00  0.00    +0.186 HD
ATOM     26  H   UNL     1      26.655 -22.147 -17.161  0.00  0.00    +0.197 HD
ENDBRANCH  16  19
ENDBRANCH   4  16
TORSDOF 2
ENDMDL
MODEL 7
REMARK VINA RESULT:     -11.2      3.249      5.025
REMARK  Name = 6102777
REMARK  2 active torsions:
REMARK  status: ('A' for Active; 'I' for Inactive)
REMARK    1  A    between atoms: C_4  and  S_16
REMARK    2  A    between atoms: S_16  and  N_19
REMARK                            x       y       z     vdW  Elec       q    Type
REMARK                         _______ _______ _______ _____ _____    ______ ____
ROOT
ATOM      1  O   UNL     1      32.522 -22.854 -16.314  0.00  0.00    -0.453 OA
ATOM      2  O   UNL     1      32.282 -25.220 -12.983  0.00  0.00    -0.286 OA
ATOM      3  C   UNL     1      33.649 -24.111 -14.548  0.00  0.00    +0.075 A 
ATOM      4  C   UNL     1      36.062 -24.133 -14.527  0.00  0.00    +0.126 C 
ATOM      5  C   UNL     1      33.658 -23.303 -15.686  0.00  0.00    +0.148 A 
ATOM      6  C   UNL     1      34.847 -24.528 -13.965  0.00  0.00    +0.026 C 
ATOM      7  C   UNL     1      31.150 -24.020 -14.664  0.00  0.00    +0.074 A 
ATOM      8  C   UNL     1      32.354 -24.512 -13.978  0.00  0.00    +0.201 A 
ATOM      9  C   UNL     1      31.304 -23.218 -15.795  0.00  0.00    +0.148 A 
ATOM     10  C   UNL     1      36.076 -23.326 -15.665  0.00  0.00    +0.023 C 
ATOM     11  C   UNL     1      34.876 -22.911 -16.244  0.00  0.00    +0.039 C 
ATOM     12  C   UNL     1      29.875 -24.348 -14.195  0.00  0.00    +0.006 C 
ATOM     13  C   UNL     1      30.175 -22.739 -16.463  0.00  0.00    +0.038 C 
ATOM     14  C   UNL     1      28.751 -23.867 -14.867  0.00  0.00    +0.000 C 
ATOM     15  C   UNL     1      28.900 -23.065 -15.998  0.00  0.00    +0.003 C 
ENDROOT
BRANCH   4  16
ATOM     16  S   UNL     1      37.566 -24.649 -13.806  0.00  0.00    +0.081 S 
ATOM     17  O   UNL     1      37.445 -26.061 -13.464  0.00  0.00    -0.149 OA
ATOM     18  O   UNL     1      38.655 -24.210 -14.668  0.00  0.00    -0.149 OA
BRANCH  16  19
ATOM     19  N   UNL     1      37.583 -23.726 -12.370  0.00  0.00    -0.156 N 
ATOM     20  N   UNL     1      36.935 -23.294 -10.093  0.00  0.00    -0.094 NA
ATOM     21  N   UNL     1      36.114 -25.162 -11.076  0.00  0.00    -0.071 NA
ATOM     22  N   UNL     1      36.136 -24.023  -9.300  0.00  0.00    -0.139 N 
ATOM     23  N   UNL     1      35.626 -25.137  -9.842  0.00  0.00    -0.020 NA
ATOM     24  C   UNL     1      36.885 -24.051 -11.182  0.00  0.00    +0.145 C 
ATOM     25  H   UNL     1      38.122 -22.901 -12.367  0.00  0.00    +0.186 HD
ATOM     26  H   UNL     1      35.935 -23.754  -8.375  0.00  0.00    +0.197 HD
ENDBRANCH  16  19
ENDBRANCH   4  16
TORSDOF 2
ENDMDL
MODEL 8
REMARK VINA RESULT:     -11.2      2.361      3.599
REMARK  Name = 6102777
REMARK  2 active torsions:
REMARK  status: ('A' for Active; 'I' for Inactive)
REMARK    1  A    between atoms: C_4  and  S_16
REMARK    2  A    between atoms: S_16  and  N_19
REMARK                            x       y       z     vdW  Elec       q    Type
REMARK                         _______ _______ _______ _____ _____    ______ ____
ROOT
ATOM      1  O   UNL     1      33.377 -22.531 -17.403  0.00  0.00    -0.453 OA
ATOM      2  O   UNL     1      37.423 -22.091 -16.974  0.00  0.00    -0.286 OA
ATOM      3  C   UNL     1      35.394 -22.874 -16.070  0.00  0.00    +0.075 A 
ATOM      4  C   UNL     1      35.176 -23.981 -13.937  0.00  0.00    +0.126 C 
ATOM      5  C   UNL     1      34.021 -22.991 -16.281  0.00  0.00    +0.148 A 
ATOM      6  C   UNL     1      35.977 -23.368 -14.900  0.00  0.00    +0.026 C 
ATOM      7  C   UNL     1      35.507 -21.738 -18.298  0.00  0.00    +0.074 A 
ATOM      8  C   UNL     1      36.215 -22.223 -17.103  0.00  0.00    +0.201 A 
ATOM      9  C   UNL     1      34.127 -21.920 -18.379  0.00  0.00    +0.148 A 
ATOM     10  C   UNL     1      33.801 -24.099 -14.142  0.00  0.00    +0.023 C 
ATOM     11  C   UNL     1      33.223 -23.605 -15.312  0.00  0.00    +0.039 C 
ATOM     12  C   UNL     1      36.202 -21.107 -19.332  0.00  0.00    +0.006 C 
ATOM     13  C   UNL     1      33.435 -21.468 -19.504  0.00  0.00    +0.038 C 
ATOM     14  C   UNL     1      35.505 -20.657 -20.454  0.00  0.00    +0.000 C 
ATOM     15  C   UNL     1      34.125 -20.837 -20.540  0.00  0.00    +0.003 C 
ENDROOT
BRANCH   4  16
ATOM     16  S   UNL     1      35.894 -24.601 -12.471  0.00  0.00    +0.081 S 
ATOM     17  O   UNL     1      36.814 -23.596 -11.955  0.00  0.00    -0.149 OA
ATOM     18  O   UNL     1      34.822 -25.099 -11.618  0.00  0.00    -0.149 OA
BRANCH  16  19
ATOM     19  N   UNL     1      36.791 -25.924 -13.071  0.00  0.00    -0.156 N 
ATOM     20  N   UNL     1      38.798 -26.941 -13.926  0.00  0.00    -0.094 NA
ATOM     21  N   UNL     1      38.884 -24.739 -13.401  0.00  0.00    -0.071 NA
ATOM     22  N   UNL     1      39.994 -26.374 -14.141  0.00  0.00    -0.139 N 
ATOM     23  N   UNL     1      40.090 -25.070 -13.844  0.00  0.00    -0.020 NA
ATOM     24  C   UNL     1      38.149 -25.877 -13.466  0.00  0.00    +0.145 C 
ATOM     25  H   UNL     1      36.326 -26.789 -13.149  0.00  0.00    +0.186 HD
ATOM     26  H   UNL     1      40.756 -26.885 -14.496  0.00  0.00    +0.197 HD
ENDBRANCH  16  19
ENDBRANCH   4  16
TORSDOF 2
ENDMDL
MODEL 9
REMARK VINA RESULT:     -11.0      2.248      2.782
REMARK  Name = 6102777
REMARK  2 active torsions:
REMARK  status: ('A' for Active; 'I' for Inactive)
REMARK    1  A    between atoms: C_4  and  S_16
REMARK    2  A    between atoms: S_16  and  N_19
REMARK                            x       y       z     vdW  Elec       q    Type
REMARK                         _______ _______ _______ _____ _____    ______ ____
ROOT
ATOM      1  O   UNL     1      36.822 -21.030 -18.658  0.00  0.00    -0.453 OA
ATOM      2  O   UNL     1      33.136 -22.576 -17.781  0.00  0.00    -0.286 OA
ATOM      3  C   UNL     1      35.406 -22.370 -17.187  0.00  0.00    +0.075 A 
ATOM      4  C   UNL     1      36.417 -23.383 -15.244  0.00  0.00    +0.126 C 
ATOM      5  C   UNL     1      36.633 -21.812 -17.545  0.00  0.00    +0.148 A 
ATOM      6  C   UNL     1      35.292 -23.156 -16.038  0.00  0.00    +0.026 C 
ATOM      7  C   UNL     1      34.460 -21.273 -19.229  0.00  0.00    +0.074 A 
ATOM      8  C   UNL     1      34.237 -22.114 -18.042  0.00  0.00    +0.201 A 
ATOM      9  C   UNL     1      35.742 -20.779 -19.468  0.00  0.00    +0.148 A 
ATOM     10  C   UNL     1      37.647 -22.828 -15.599  0.00  0.00    +0.023 C 
ATOM     11  C   UNL     1      37.755 -22.043 -16.747  0.00  0.00    +0.039 C 
ATOM     12  C   UNL     1      33.409 -20.974 -20.100  0.00  0.00    +0.006 C 
ATOM     13  C   UNL     1      35.976 -19.979 -20.588  0.00  0.00    +0.038 C 
ATOM     14  C   UNL     1      33.650 -20.174 -21.218  0.00  0.00    +0.000 C 
ATOM     15  C   UNL     1      34.930 -19.678 -21.462  0.00  0.00    +0.003 C 
ENDROOT
BRANCH   4  16
ATOM     16  S   UNL     1      36.286 -24.364 -13.806  0.00  0.00    +0.081 S 
ATOM     17  O   UNL     1      36.931 -23.652 -12.710  0.00  0.00    -0.149 OA
ATOM     18  O   UNL     1      34.898 -24.786 -13.670  0.00  0.00    -0.149 OA
BRANCH  16  19
ATOM     19  N   UNL     1      37.241 -25.714 -14.233  0.00  0.00    -0.156 N 
ATOM     20  N   UNL     1      39.338 -26.878 -14.435  0.00  0.00    -0.094 NA
ATOM     21  N   UNL     1      39.384 -24.784 -13.572  0.00  0.00    -0.071 NA
ATOM     22  N   UNL     1      40.564 -26.451 -14.099  0.00  0.00    -0.139 N 
ATOM     23  N   UNL     1      40.638 -25.216 -13.585  0.00  0.00    -0.020 NA
ATOM     24  C   UNL     1      38.646 -25.800 -14.085  0.00  0.00    +0.145 C 
ATOM     25  H   UNL     1      36.777 -26.495 -14.614  0.00  0.00    +0.186 HD
ATOM     26  H   UNL     1      41.363 -27.013 -14.223  0.00  0.00    +0.197 HD
ENDBRANCH  16  19
ENDBRANCH   4  16
TORSDOF 2
ENDMDL
