MODEL 1
REMARK VINA RESULT:     -12.9      0.000      0.000
REMARK  Name = 72734520
REMARK  6 active torsions:
REMARK  status: ('A' for Active; 'I' for Inactive)
REMARK    1  A    between atoms: N_1  and  C_19
REMARK    2  A    between atoms: C_8  and  O_28
REMARK    3  A    between atoms: C_14  and  N_20
REMARK    4  A    between atoms: O_28  and  C_29
REMARK    5  A    between atoms: C_32  and  N_36
REMARK    6  A    between atoms: C_37  and  C_39
REMARK                            x       y       z     vdW  Elec       q    Type
REMARK                         _______ _______ _______ _____ _____    ______ ____
ROOT
ATOM      1  N   UNL     1      35.014 -20.928 -21.211  0.00  0.00    -0.238 N 
ATOM      2  N   UNL     1      34.983 -19.552 -23.095  0.00  0.00    -0.316 NA
ATOM      3  N   UNL     1      35.004 -18.620 -20.846  0.00  0.00    -0.294 NA
ATOM      4  N   UNL     1      34.950 -17.860 -24.814  0.00  0.00    -0.289 N 
ATOM      5  C   UNL     1      35.000 -19.626 -21.749  0.00  0.00    +0.207 C 
ATOM      6  C   UNL     1      34.971 -17.141 -22.702  0.00  0.00    +0.181 C 
ATOM      7  C   UNL     1      34.969 -18.272 -23.508  0.00  0.00    +0.188 C 
ATOM      8  C   UNL     1      34.989 -17.354 -21.324  0.00  0.00    +0.281 C 
ATOM      9  C   UNL     1      34.952 -16.017 -23.567  0.00  0.00    +0.008 C 
ATOM     10  C   UNL     1      34.939 -16.490 -24.862  0.00  0.00    +0.060 C 
ATOM     11  H   UNL     1      35.011 -21.638 -21.892  0.00  0.00    +0.166 HD
ATOM     12  H   UNL     1      34.945 -18.456 -25.598  0.00  0.00    +0.154 HD
ENDROOT
BRANCH   1  19
ATOM     13  F   UNL     1      37.428 -22.078 -17.233  0.00  0.00    -0.203 F 
ATOM     14  C   UNL     1      35.072 -22.374 -17.267  0.00  0.00    +0.076 C 
ATOM     15  C   UNL     1      36.261 -21.989 -17.886  0.00  0.00    +0.155 C 
ATOM     16  C   UNL     1      33.864 -22.280 -17.959  0.00  0.00    +0.018 C 
ATOM     17  C   UNL     1      36.242 -21.508 -19.196  0.00  0.00    +0.046 C 
ATOM     18  C   UNL     1      33.845 -21.799 -19.268  0.00  0.00    +0.017 C 
ATOM     19  C   UNL     1      35.034 -21.413 -19.886  0.00  0.00    +0.061 C 
BRANCH  14  20
ATOM     20  N   UNL     1      35.089 -22.858 -15.954  0.00  0.00    -0.310 N 
ATOM     21  N   UNL     1      35.059 -23.605 -13.198  0.00  0.00    +0.388 N 
ATOM     22  C   UNL     1      36.105 -22.327 -15.037  0.00  0.00    +0.068 C 
ATOM     23  C   UNL     1      33.841 -23.306 -15.328  0.00  0.00    +0.068 C 
ATOM     24  C   UNL     1      36.327 -23.288 -13.867  0.00  0.00    -0.056 C 
ATOM     25  C   UNL     1      34.136 -24.236 -14.148  0.00  0.00    -0.056 C 
ATOM     26  C   UNL     1      35.290 -24.480 -12.049  0.00  0.00    -0.101 C 
ATOM     27  H   UNL     1      34.641 -22.739 -12.859  0.00  0.00    -0.080 HD
ENDBRANCH  14  20
ENDBRANCH   1  19
BRANCH   8  28
ATOM     28  O   UNL     1      34.994 -16.321 -20.421  0.00  0.00    -0.429 OA
BRANCH  28  29
ATOM     29  C   UNL     1      34.167 -15.248 -20.683  0.00  0.00    +0.149 C 
ATOM     30  C   UNL     1      34.573 -14.258 -21.578  0.00  0.00    +0.052 C 
ATOM     31  C   UNL     1      32.925 -15.154 -20.055  0.00  0.00    +0.038 C 
ATOM     32  C   UNL     1      33.737 -13.174 -21.845  0.00  0.00    +0.054 C 
ATOM     33  C   UNL     1      32.495 -13.080 -21.217  0.00  0.00    +0.015 C 
ATOM     34  C   UNL     1      32.089 -14.070 -20.323  0.00  0.00    +0.004 C 
BRANCH  32  36
ATOM     35  O   UNL     1      33.617 -13.098 -24.844  0.00  0.00    -0.270 OA
ATOM     36  N   UNL     1      34.143 -12.184 -22.740  0.00  0.00    -0.280 N 
ATOM     37  C   UNL     1      34.063 -12.200 -24.140  0.00  0.00    +0.250 C 
ATOM     38  H   UNL     1      34.533 -11.373 -22.340  0.00  0.00    +0.155 HD
BRANCH  37  39
ATOM     39  C   UNL     1      34.605 -10.945 -24.736  0.00  0.00    +0.058 C 
ATOM     40  C   UNL     1      34.903  -9.898 -23.961  0.00  0.00    +0.005 C 
ENDBRANCH  37  39
ENDBRANCH  32  36
ENDBRANCH  28  29
ENDBRANCH   8  28
TORSDOF 6
ENDMDL
MODEL 2
REMARK VINA RESULT:     -11.9      4.072     10.479
REMARK  Name = 72734520
REMARK  6 active torsions:
REMARK  status: ('A' for Active; 'I' for Inactive)
REMARK    1  A    between atoms: N_1  and  C_19
REMARK    2  A    between atoms: C_8  and  O_28
REMARK    3  A    between atoms: C_14  and  N_20
REMARK    4  A    between atoms: O_28  and  C_29
REMARK    5  A    between atoms: C_32  and  N_36
REMARK    6  A    between atoms: C_37  and  C_39
REMARK                            x       y       z     vdW  Elec       q    Type
REMARK                         _______ _______ _______ _____ _____    ______ ____
ROOT
ATOM      1  N   UNL     1      36.298 -22.807 -17.251  0.00  0.00    -0.238 N 
ATOM      2  N   UNL     1      36.124 -24.066 -15.293  0.00  0.00    -0.316 NA
ATOM      3  N   UNL     1      34.351 -22.547 -15.984  0.00  0.00    -0.294 NA
ATOM      4  N   UNL     1      35.631 -25.208 -13.228  0.00  0.00    -0.289 N 
ATOM      5  C   UNL     1      35.549 -23.161 -16.111  0.00  0.00    +0.207 C 
ATOM      6  C   UNL     1      34.085 -23.784 -13.976  0.00  0.00    +0.181 C 
ATOM      7  C   UNL     1      35.334 -24.333 -14.238  0.00  0.00    +0.188 C 
ATOM      8  C   UNL     1      33.603 -22.860 -14.902  0.00  0.00    +0.281 C 
ATOM      9  C   UNL     1      33.628 -24.357 -12.762  0.00  0.00    +0.008 C 
ATOM     10  C   UNL     1      34.600 -25.231 -12.324  0.00  0.00    +0.060 C 
ATOM     11  H   UNL     1      37.164 -23.270 -17.315  0.00  0.00    +0.166 HD
ATOM     12  H   UNL     1      36.457 -25.740 -13.160  0.00  0.00    +0.154 HD
ENDROOT
BRANCH   1  19
ATOM     13  F   UNL     1      33.280 -20.846 -20.416  0.00  0.00    -0.203 F 
ATOM     14  C   UNL     1      35.556 -20.167 -20.433  0.00  0.00    +0.076 C 
ATOM     15  C   UNL     1      34.518 -20.938 -19.910  0.00  0.00    +0.155 C 
ATOM     16  C   UNL     1      36.841 -20.274 -19.899  0.00  0.00    +0.018 C 
ATOM     17  C   UNL     1      34.764 -21.814 -18.853  0.00  0.00    +0.046 C 
ATOM     18  C   UNL     1      37.087 -21.150 -18.843  0.00  0.00    +0.017 C 
ATOM     19  C   UNL     1      36.049 -21.920 -18.319  0.00  0.00    +0.061 C 
BRANCH  14  20
ATOM     20  N   UNL     1      35.313 -19.288 -21.494  0.00  0.00    -0.310 N 
ATOM     21  N   UNL     1      35.074 -17.470 -23.684  0.00  0.00    +0.388 N 
ATOM     22  C   UNL     1      35.715 -17.885 -21.333  0.00  0.00    +0.068 C 
ATOM     23  C   UNL     1      35.309 -19.793 -22.871  0.00  0.00    +0.068 C 
ATOM     24  C   UNL     1      34.940 -16.990 -22.303  0.00  0.00    -0.056 C 
ATOM     25  C   UNL     1      34.548 -18.835 -23.791  0.00  0.00    -0.056 C 
ATOM     26  C   UNL     1      34.375 -16.576 -24.607  0.00  0.00    -0.101 C 
ATOM     27  H   UNL     1      36.062 -17.477 -23.935  0.00  0.00    -0.080 HD
ENDBRANCH  14  20
ENDBRANCH   1  19
BRANCH   8  28
ATOM     28  O   UNL     1      32.383 -22.246 -14.759  0.00  0.00    -0.429 OA
BRANCH  28  29
ATOM     29  C   UNL     1      31.268 -22.954 -15.160  0.00  0.00    +0.149 C 
ATOM     30  C   UNL     1      30.223 -22.297 -15.809  0.00  0.00    +0.052 C 
ATOM     31  C   UNL     1      31.187 -24.325 -14.917  0.00  0.00    +0.038 C 
ATOM     32  C   UNL     1      29.096 -23.012 -16.216  0.00  0.00    +0.054 C 
ATOM     33  C   UNL     1      29.015 -24.383 -15.973  0.00  0.00    +0.015 C 
ATOM     34  C   UNL     1      30.061 -25.040 -15.325  0.00  0.00    +0.004 C 
BRANCH  32  36
ATOM     35  O   UNL     1      26.321 -22.363 -15.271  0.00  0.00    -0.270 OA
ATOM     36  N   UNL     1      28.051 -22.355 -16.867  0.00  0.00    -0.280 N 
ATOM     37  C   UNL     1      26.768 -22.077 -16.376  0.00  0.00    +0.250 C 
ATOM     38  H   UNL     1      28.238 -22.049 -17.783  0.00  0.00    +0.155 HD
BRANCH  37  39
ATOM     39  C   UNL     1      25.938 -21.354 -17.383  0.00  0.00    +0.058 C 
ATOM     40  C   UNL     1      25.910 -21.759 -18.656  0.00  0.00    +0.005 C 
ENDBRANCH  37  39
ENDBRANCH  32  36
ENDBRANCH  28  29
ENDBRANCH   8  28
TORSDOF 6
ENDMDL
MODEL 3
REMARK VINA RESULT:     -11.8      2.569      4.040
REMARK  Name = 72734520
REMARK  6 active torsions:
REMARK  status: ('A' for Active; 'I' for Inactive)
REMARK    1  A    between atoms: N_1  and  C_19
REMARK    2  A    between atoms: C_8  and  O_28
REMARK    3  A    between atoms: C_14  and  N_20
REMARK    4  A    between atoms: O_28  and  C_29
REMARK    5  A    between atoms: C_32  and  N_36
REMARK    6  A    between atoms: C_37  and  C_39
REMARK                            x       y       z     vdW  Elec       q    Type
REMARK                         _______ _______ _______ _____ _____    ______ ____
ROOT
ATOM      1  N   UNL     1      34.834 -18.086 -23.772  0.00  0.00    -0.238 N 
ATOM      2  N   UNL     1      34.243 -16.479 -25.358  0.00  0.00    -0.316 NA
ATOM      3  N   UNL     1      34.769 -15.861 -23.062  0.00  0.00    -0.294 NA
ATOM      4  N   UNL     1      33.670 -14.583 -26.734  0.00  0.00    -0.289 N 
ATOM      5  C   UNL     1      34.603 -16.732 -24.083  0.00  0.00    +0.207 C 
ATOM      6  C   UNL     1      34.176 -14.156 -24.603  0.00  0.00    +0.181 C 
ATOM      7  C   UNL     1      34.043 -15.163 -25.551  0.00  0.00    +0.188 C 
ATOM      8  C   UNL     1      34.554 -14.550 -23.321  0.00  0.00    +0.281 C 
ATOM      9  C   UNL     1      33.869 -12.934 -25.253  0.00  0.00    +0.008 C 
ATOM     10  C   UNL     1      33.560 -13.227 -26.564  0.00  0.00    +0.060 C 
ATOM     11  H   UNL     1      34.705 -18.695 -24.535  0.00  0.00    +0.166 HD
ATOM     12  H   UNL     1      33.506 -15.065 -27.576  0.00  0.00    +0.154 HD
ENDROOT
BRANCH   1  19
ATOM     13  F   UNL     1      33.747 -20.819 -19.988  0.00  0.00    -0.203 F 
ATOM     14  C   UNL     1      35.976 -20.035 -20.230  0.00  0.00    +0.076 C 
ATOM     15  C   UNL     1      34.658 -20.120 -20.679  0.00  0.00    +0.155 C 
ATOM     16  C   UNL     1      36.914 -19.302 -20.958  0.00  0.00    +0.018 C 
ATOM     17  C   UNL     1      34.279 -19.473 -21.856  0.00  0.00    +0.046 C 
ATOM     18  C   UNL     1      36.535 -18.656 -22.134  0.00  0.00    +0.017 C 
ATOM     19  C   UNL     1      35.218 -18.741 -22.583  0.00  0.00    +0.061 C 
BRANCH  14  20
ATOM     20  N   UNL     1      36.359 -20.682 -19.050  0.00  0.00    -0.310 N 
ATOM     21  N   UNL     1      37.270 -22.171 -16.790  0.00  0.00    +0.388 N 
ATOM     22  C   UNL     1      35.872 -22.048 -18.824  0.00  0.00    +0.068 C 
ATOM     23  C   UNL     1      37.643 -20.354 -18.425  0.00  0.00    +0.068 C 
ATOM     24  C   UNL     1      35.926 -22.399 -17.335  0.00  0.00    -0.056 C 
ATOM     25  C   UNL     1      37.641 -20.760 -16.949  0.00  0.00    -0.056 C 
ATOM     26  C   UNL     1      37.324 -22.560 -15.380  0.00  0.00    -0.101 C 
ATOM     27  H   UNL     1      37.936 -22.746 -17.304  0.00  0.00    -0.080 HD
ENDBRANCH  14  20
ENDBRANCH   1  19
BRANCH   8  28
ATOM     28  O   UNL     1      34.721 -13.653 -22.296  0.00  0.00    -0.429 OA
BRANCH  28  29
ATOM     29  C   UNL     1      33.582 -13.086 -21.760  0.00  0.00    +0.149 C 
ATOM     30  C   UNL     1      33.202 -11.798 -22.138  0.00  0.00    +0.052 C 
ATOM     31  C   UNL     1      32.812 -13.800 -20.843  0.00  0.00    +0.038 C 
ATOM     32  C   UNL     1      32.050 -11.225 -21.599  0.00  0.00    +0.054 C 
ATOM     33  C   UNL     1      31.279 -11.939 -20.681  0.00  0.00    +0.015 C 
ATOM     34  C   UNL     1      31.660 -13.227 -20.304  0.00  0.00    +0.004 C 
BRANCH  32  36
ATOM     35  O   UNL     1      32.614  -8.572 -20.310  0.00  0.00    -0.270 OA
ATOM     36  N   UNL     1      31.669  -9.937 -21.978  0.00  0.00    -0.280 N 
ATOM     37  C   UNL     1      31.962  -8.726 -21.336  0.00  0.00    +0.250 C 
ATOM     38  H   UNL     1      31.128  -9.872 -22.798  0.00  0.00    +0.155 HD
BRANCH  37  39
ATOM     39  C   UNL     1      31.369  -7.563 -22.059  0.00  0.00    +0.058 C 
ATOM     40  C   UNL     1      31.068  -7.653 -23.357  0.00  0.00    +0.005 C 
ENDBRANCH  37  39
ENDBRANCH  32  36
ENDBRANCH  28  29
ENDBRANCH   8  28
TORSDOF 6
ENDMDL
MODEL 4
REMARK VINA RESULT:     -11.7      1.631      1.863
REMARK  Name = 72734520
REMARK  6 active torsions:
REMARK  status: ('A' for Active; 'I' for Inactive)
REMARK    1  A    between atoms: N_1  and  C_19
REMARK    2  A    between atoms: C_8  and  O_28
REMARK    3  A    between atoms: C_14  and  N_20
REMARK    4  A    between atoms: O_28  and  C_29
REMARK    5  A    between atoms: C_32  and  N_36
REMARK    6  A    between atoms: C_37  and  C_39
REMARK                            x       y       z     vdW  Elec       q    Type
REMARK                         _______ _______ _______ _____ _____    ______ ____
ROOT
ATOM      1  N   UNL     1      35.090 -20.545 -21.533  0.00  0.00    -0.238 N 
ATOM      2  N   UNL     1      34.899 -19.146 -23.392  0.00  0.00    -0.316 NA
ATOM      3  N   UNL     1      35.121 -18.241 -21.143  0.00  0.00    -0.294 NA
ATOM      4  N   UNL     1      34.722 -17.435 -25.081  0.00  0.00    -0.289 N 
ATOM      5  C   UNL     1      35.035 -19.237 -22.053  0.00  0.00    +0.207 C 
ATOM      6  C   UNL     1      34.931 -16.740 -22.971  0.00  0.00    +0.181 C 
ATOM      7  C   UNL     1      34.854 -17.862 -23.786  0.00  0.00    +0.188 C 
ATOM      8  C   UNL     1      35.070 -16.970 -21.603  0.00  0.00    +0.281 C 
ATOM      9  C   UNL     1      34.841 -15.606 -23.819  0.00  0.00    +0.008 C 
ATOM     10  C   UNL     1      34.712 -16.065 -25.112  0.00  0.00    +0.060 C 
ATOM     11  H   UNL     1      35.024 -21.247 -22.219  0.00  0.00    +0.166 HD
ATOM     12  H   UNL     1      34.645 -18.022 -25.868  0.00  0.00    +0.154 HD
ENDROOT
BRANCH   1  19
ATOM     13  F   UNL     1      33.162 -22.507 -17.608  0.00  0.00    -0.203 F 
ATOM     14  C   UNL     1      35.490 -22.035 -17.625  0.00  0.00    +0.076 C 
ATOM     15  C   UNL     1      34.241 -22.035 -18.247  0.00  0.00    +0.155 C 
ATOM     16  C   UNL     1      36.605 -21.539 -18.301  0.00  0.00    +0.018 C 
ATOM     17  C   UNL     1      34.109 -21.541 -19.546  0.00  0.00    +0.046 C 
ATOM     18  C   UNL     1      36.472 -21.044 -19.598  0.00  0.00    +0.017 C 
ATOM     19  C   UNL     1      35.225 -21.045 -20.220  0.00  0.00    +0.061 C 
BRANCH  14  20
ATOM     20  N   UNL     1      35.625 -22.529 -16.323  0.00  0.00    -0.310 N 
ATOM     21  N   UNL     1      35.895 -23.290 -13.584  0.00  0.00    +0.388 N 
ATOM     22  C   UNL     1      36.849 -22.195 -15.583  0.00  0.00    +0.068 C 
ATOM     23  C   UNL     1      34.432 -22.759 -15.504  0.00  0.00    +0.068 C 
ATOM     24  C   UNL     1      37.079 -23.193 -14.447  0.00  0.00    -0.056 C 
ATOM     25  C   UNL     1      34.740 -23.739 -14.369  0.00  0.00    -0.056 C 
ATOM     26  C   UNL     1      36.146 -24.206 -12.471  0.00  0.00    -0.101 C 
ATOM     27  H   UNL     1      35.693 -22.369 -13.198  0.00  0.00    -0.080 HD
ENDBRANCH  14  20
ENDBRANCH   1  19
BRANCH   8  28
ATOM     28  O   UNL     1      35.158 -15.947 -20.692  0.00  0.00    -0.429 OA
BRANCH  28  29
ATOM     29  C   UNL     1      34.046 -15.147 -20.530  0.00  0.00    +0.149 C 
ATOM     30  C   UNL     1      33.963 -13.926 -21.201  0.00  0.00    +0.052 C 
ATOM     31  C   UNL     1      33.004 -15.558 -19.699  0.00  0.00    +0.038 C 
ATOM     32  C   UNL     1      32.839 -13.116 -21.039  0.00  0.00    +0.054 C 
ATOM     33  C   UNL     1      31.797 -13.527 -20.208  0.00  0.00    +0.015 C 
ATOM     34  C   UNL     1      31.879 -14.748 -19.538  0.00  0.00    +0.004 C 
BRANCH  32  36
ATOM     35  O   UNL     1      30.842 -10.888 -20.783  0.00  0.00    -0.270 OA
ATOM     36  N   UNL     1      32.756 -11.895 -21.710  0.00  0.00    -0.280 N 
ATOM     37  C   UNL     1      31.797 -10.885 -21.550  0.00  0.00    +0.250 C 
ATOM     38  H   UNL     1      33.459 -11.722 -22.377  0.00  0.00    +0.155 HD
BRANCH  37  39
ATOM     39  C   UNL     1      32.058  -9.730 -22.457  0.00  0.00    +0.058 C 
ATOM     40  C   UNL     1      32.933  -8.780 -22.113  0.00  0.00    +0.005 C 
ENDBRANCH  37  39
ENDBRANCH  32  36
ENDBRANCH  28  29
ENDBRANCH   8  28
TORSDOF 6
ENDMDL
MODEL 5
REMARK VINA RESULT:     -10.8      3.846     10.372
REMARK  Name = 72734520
REMARK  6 active torsions:
REMARK  status: ('A' for Active; 'I' for Inactive)
REMARK    1  A    between atoms: N_1  and  C_19
REMARK    2  A    between atoms: C_8  and  O_28
REMARK    3  A    between atoms: C_14  and  N_20
REMARK    4  A    between atoms: O_28  and  C_29
REMARK    5  A    between atoms: C_32  and  N_36
REMARK    6  A    between atoms: C_37  and  C_39
REMARK                            x       y       z     vdW  Elec       q    Type
REMARK                         _______ _______ _______ _____ _____    ______ ____
ROOT
ATOM      1  N   UNL     1      37.023 -21.228 -18.073  0.00  0.00    -0.238 N 
ATOM      2  N   UNL     1      37.120 -22.732 -16.291  0.00  0.00    -0.316 NA
ATOM      3  N   UNL     1      35.072 -22.411 -17.568  0.00  0.00    -0.294 NA
ATOM      4  N   UNL     1      36.881 -24.352 -14.521  0.00  0.00    -0.289 N 
ATOM      5  C   UNL     1      36.369 -22.178 -17.265  0.00  0.00    +0.207 C 
ATOM      6  C   UNL     1      35.074 -23.962 -15.772  0.00  0.00    +0.181 C 
ATOM      7  C   UNL     1      36.407 -23.620 -15.578  0.00  0.00    +0.188 C 
ATOM      8  C   UNL     1      34.409 -23.316 -16.813  0.00  0.00    +0.281 C 
ATOM      9  C   UNL     1      34.749 -24.933 -14.791  0.00  0.00    +0.008 C 
ATOM     10  C   UNL     1      35.880 -25.153 -14.034  0.00  0.00    +0.060 C 
ATOM     11  H   UNL     1      37.965 -21.080 -17.828  0.00  0.00    +0.166 HD
ATOM     12  H   UNL     1      37.798 -24.309 -14.166  0.00  0.00    +0.154 HD
ENDROOT
BRANCH   1  19
ATOM     13  F   UNL     1      33.705 -20.121 -21.350  0.00  0.00    -0.203 F 
ATOM     14  C   UNL     1      35.745 -18.904 -21.331  0.00  0.00    +0.076 C 
ATOM     15  C   UNL     1      34.913 -19.898 -20.814  0.00  0.00    +0.155 C 
ATOM     16  C   UNL     1      37.001 -18.683 -20.766  0.00  0.00    +0.018 C 
ATOM     17  C   UNL     1      35.338 -20.669 -19.732  0.00  0.00    +0.046 C 
ATOM     18  C   UNL     1      37.425 -19.454 -19.684  0.00  0.00    +0.017 C 
ATOM     19  C   UNL     1      36.594 -20.447 -19.167  0.00  0.00    +0.061 C 
BRANCH  14  20
ATOM     20  N   UNL     1      35.322 -18.130 -22.417  0.00  0.00    -0.310 N 
ATOM     21  N   UNL     1      34.709 -16.481 -24.667  0.00  0.00    +0.388 N 
ATOM     22  C   UNL     1      35.476 -16.672 -22.325  0.00  0.00    +0.068 C 
ATOM     23  C   UNL     1      35.370 -18.688 -23.771  0.00  0.00    +0.068 C 
ATOM     24  C   UNL     1      34.530 -15.970 -23.302  0.00  0.00    -0.056 C 
ATOM     25  C   UNL     1      34.428 -17.921 -24.703  0.00  0.00    -0.056 C 
ATOM     26  C   UNL     1      33.840 -15.765 -25.601  0.00  0.00    -0.101 C 
ATOM     27  H   UNL     1      35.676 -16.327 -24.951  0.00  0.00    -0.080 HD
ENDBRANCH  14  20
ENDBRANCH   1  19
BRANCH   8  28
ATOM     28  O   UNL     1      33.092 -23.565 -17.109  0.00  0.00    -0.429 OA
BRANCH  28  29
ATOM     29  C   UNL     1      32.162 -23.299 -16.125  0.00  0.00    +0.149 C 
ATOM     30  C   UNL     1      30.886 -22.854 -16.475  0.00  0.00    +0.052 C 
ATOM     31  C   UNL     1      32.495 -23.475 -14.783  0.00  0.00    +0.038 C 
ATOM     32  C   UNL     1      29.945 -22.586 -15.481  0.00  0.00    +0.054 C 
ATOM     33  C   UNL     1      30.278 -22.762 -14.139  0.00  0.00    +0.015 C 
ATOM     34  C   UNL     1      31.553 -23.208 -13.789  0.00  0.00    +0.004 C 
BRANCH  32  36
ATOM     35  O   UNL     1      27.850 -23.860 -17.215  0.00  0.00    -0.270 OA
ATOM     36  N   UNL     1      28.669 -22.142 -15.831  0.00  0.00    -0.280 N 
ATOM     37  C   UNL     1      27.726 -22.781 -16.649  0.00  0.00    +0.250 C 
ATOM     38  H   UNL     1      28.397 -21.274 -15.456  0.00  0.00    +0.155 HD
BRANCH  37  39
ATOM     39  C   UNL     1      26.476 -21.978 -16.778  0.00  0.00    +0.058 C 
ATOM     40  C   UNL     1      26.063 -21.551 -17.975  0.00  0.00    +0.005 C 
ENDBRANCH  37  39
ENDBRANCH  32  36
ENDBRANCH  28  29
ENDBRANCH   8  28
TORSDOF 6
ENDMDL
MODEL 6
REMARK VINA RESULT:     -10.8      5.231     13.533
REMARK  Name = 72734520
REMARK  6 active torsions:
REMARK  status: ('A' for Active; 'I' for Inactive)
REMARK    1  A    between atoms: N_1  and  C_19
REMARK    2  A    between atoms: C_8  and  O_28
REMARK    3  A    between atoms: C_14  and  N_20
REMARK    4  A    between atoms: O_28  and  C_29
REMARK    5  A    between atoms: C_32  and  N_36
REMARK    6  A    between atoms: C_37  and  C_39
REMARK                            x       y       z     vdW  Elec       q    Type
REMARK                         _______ _______ _______ _____ _____    ______ ____
ROOT
ATOM      1  N   UNL     1      31.743  -9.341 -21.677  0.00  0.00    -0.238 N 
ATOM      2  N   UNL     1      31.620 -11.436 -20.657  0.00  0.00    -0.316 NA
ATOM      3  N   UNL     1      33.090 -11.037 -22.556  0.00  0.00    -0.294 NA
ATOM      4  N   UNL     1      31.730 -13.703 -19.843  0.00  0.00    -0.289 N 
ATOM      5  C   UNL     1      32.176 -10.680 -21.626  0.00  0.00    +0.207 C 
ATOM      6  C   UNL     1      33.031 -13.201 -21.585  0.00  0.00    +0.181 C 
ATOM      7  C   UNL     1      32.094 -12.693 -20.693  0.00  0.00    +0.188 C 
ATOM      8  C   UNL     1      33.529 -12.316 -22.540  0.00  0.00    +0.281 C 
ATOM      9  C   UNL     1      33.226 -14.565 -21.248  0.00  0.00    +0.008 C 
ATOM     10  C   UNL     1      32.411 -14.847 -20.172  0.00  0.00    +0.060 C 
ATOM     11  H   UNL     1      31.078  -9.112 -20.989  0.00  0.00    +0.166 HD
ATOM     12  H   UNL     1      31.078 -13.622 -19.109  0.00  0.00    +0.154 HD
ENDROOT
BRANCH   1  19
ATOM     13  F   UNL     1      35.017  -6.391 -23.564  0.00  0.00    -0.203 F 
ATOM     14  C   UNL     1      32.741  -6.125 -24.190  0.00  0.00    +0.076 C 
ATOM     15  C   UNL     1      33.738  -6.780 -23.466  0.00  0.00    +0.155 C 
ATOM     16  C   UNL     1      31.413  -6.538 -24.078  0.00  0.00    +0.018 C 
ATOM     17  C   UNL     1      33.406  -7.849 -22.632  0.00  0.00    +0.046 C 
ATOM     18  C   UNL     1      31.082  -7.606 -23.244  0.00  0.00    +0.017 C 
ATOM     19  C   UNL     1      32.078  -8.261 -22.521  0.00  0.00    +0.061 C 
BRANCH  14  20
ATOM     20  N   UNL     1      33.070  -5.053 -25.026  0.00  0.00    -0.310 N 
ATOM     21  N   UNL     1      33.593  -2.976 -26.915  0.00  0.00    +0.388 N 
ATOM     22  C   UNL     1      33.856  -5.337 -26.233  0.00  0.00    +0.068 C 
ATOM     23  C   UNL     1      32.176  -3.894 -25.109  0.00  0.00    +0.068 C 
ATOM     24  C   UNL     1      34.555  -4.069 -26.729  0.00  0.00    -0.056 C 
ATOM     25  C   UNL     1      32.929  -2.672 -25.642  0.00  0.00    -0.056 C 
ATOM     26  C   UNL     1      34.263  -1.786 -27.441  0.00  0.00    -0.101 C 
ATOM     27  H   UNL     1      32.889  -3.269 -27.592  0.00  0.00    -0.080 HD
ENDBRANCH  14  20
ENDBRANCH   1  19
BRANCH   8  28
ATOM     28  O   UNL     1      34.458 -12.693 -23.477  0.00  0.00    -0.429 OA
BRANCH  28  29
ATOM     29  C   UNL     1      34.382 -13.983 -23.959  0.00  0.00    +0.149 C 
ATOM     30  C   UNL     1      35.128 -14.997 -23.357  0.00  0.00    +0.052 C 
ATOM     31  C   UNL     1      33.560 -14.275 -25.048  0.00  0.00    +0.038 C 
ATOM     32  C   UNL     1      35.050 -16.303 -23.843  0.00  0.00    +0.054 C 
ATOM     33  C   UNL     1      34.228 -16.594 -24.932  0.00  0.00    +0.015 C 
ATOM     34  C   UNL     1      33.482 -15.580 -25.533  0.00  0.00    +0.004 C 
BRANCH  32  36
ATOM     35  O   UNL     1      35.099 -17.248 -20.994  0.00  0.00    -0.270 OA
ATOM     36  N   UNL     1      35.795 -17.317 -23.240  0.00  0.00    -0.280 N 
ATOM     37  C   UNL     1      35.778 -17.719 -21.898  0.00  0.00    +0.250 C 
ATOM     38  H   UNL     1      36.408 -17.812 -23.831  0.00  0.00    +0.155 HD
BRANCH  37  39
ATOM     39  C   UNL     1      36.724 -18.845 -21.649  0.00  0.00    +0.058 C 
ATOM     40  C   UNL     1      36.532 -19.680 -20.623  0.00  0.00    +0.005 C 
ENDBRANCH  37  39
ENDBRANCH  32  36
ENDBRANCH  28  29
ENDBRANCH   8  28
TORSDOF 6
ENDMDL
MODEL 7
REMARK VINA RESULT:     -10.6      6.214     14.423
REMARK  Name = 72734520
REMARK  6 active torsions:
REMARK  status: ('A' for Active; 'I' for Inactive)
REMARK    1  A    between atoms: N_1  and  C_19
REMARK    2  A    between atoms: C_8  and  O_28
REMARK    3  A    between atoms: C_14  and  N_20
REMARK    4  A    between atoms: O_28  and  C_29
REMARK    5  A    between atoms: C_32  and  N_36
REMARK    6  A    between atoms: C_37  and  C_39
REMARK                            x       y       z     vdW  Elec       q    Type
REMARK                         _______ _______ _______ _____ _____    ______ ____
ROOT
ATOM      1  N   UNL     1      32.302  -7.573 -22.953  0.00  0.00    -0.238 N 
ATOM      2  N   UNL     1      31.557  -9.393 -21.697  0.00  0.00    -0.316 NA
ATOM      3  N   UNL     1      33.396  -9.612 -23.277  0.00  0.00    -0.294 NA
ATOM      4  N   UNL     1      31.036 -11.459 -20.568  0.00  0.00    -0.289 N 
ATOM      5  C   UNL     1      32.425  -8.936 -22.623  0.00  0.00    +0.207 C 
ATOM      6  C   UNL     1      32.706 -11.520 -22.046  0.00  0.00    +0.181 C 
ATOM      7  C   UNL     1      31.753 -10.700 -21.455  0.00  0.00    +0.188 C 
ATOM      8  C   UNL     1      33.544 -10.925 -22.988  0.00  0.00    +0.281 C 
ATOM      9  C   UNL     1      32.544 -12.813 -21.486  0.00  0.00    +0.008 C 
ATOM     10  C   UNL     1      31.508 -12.746 -20.579  0.00  0.00    +0.060 C 
ATOM     11  H   UNL     1      31.587  -7.108 -22.461  0.00  0.00    +0.166 HD
ATOM     12  H   UNL     1      30.295 -11.130 -20.008  0.00  0.00    +0.154 HD
ENDROOT
BRANCH   1  19
ATOM     13  F   UNL     1      36.434  -5.925 -24.738  0.00  0.00    -0.203 F 
ATOM     14  C   UNL     1      34.394  -5.095 -25.624  0.00  0.00    +0.076 C 
ATOM     15  C   UNL     1      35.094  -5.918 -24.743  0.00  0.00    +0.155 C 
ATOM     16  C   UNL     1      32.999  -5.094 -25.618  0.00  0.00    +0.018 C 
ATOM     17  C   UNL     1      34.399  -6.741 -23.856  0.00  0.00    +0.046 C 
ATOM     18  C   UNL     1      32.304  -5.917 -24.732  0.00  0.00    +0.017 C 
ATOM     19  C   UNL     1      33.005  -6.741 -23.851  0.00  0.00    +0.061 C 
BRANCH  14  20
ATOM     20  N   UNL     1      35.087  -4.267 -26.514  0.00  0.00    -0.310 N 
ATOM     21  N   UNL     1      36.342  -2.661 -28.515  0.00  0.00    +0.388 N 
ATOM     22  C   UNL     1      35.838  -4.903 -27.604  0.00  0.00    +0.068 C 
ATOM     23  C   UNL     1      34.589  -2.916 -26.790  0.00  0.00    +0.068 C 
ATOM     24  C   UNL     1      36.918  -3.957 -28.135  0.00  0.00    -0.056 C 
ATOM     25  C   UNL     1      35.709  -2.035 -27.349  0.00  0.00    -0.056 C 
ATOM     26  C   UNL     1      37.373  -1.786 -29.072  0.00  0.00    -0.101 C 
ATOM     27  H   UNL     1      35.633  -2.814 -29.232  0.00  0.00    -0.080 HD
ENDBRANCH  14  20
ENDBRANCH   1  19
BRANCH   8  28
ATOM     28  O   UNL     1      34.526 -11.625 -23.643  0.00  0.00    -0.429 OA
BRANCH  28  29
ATOM     29  C   UNL     1      34.152 -12.786 -24.289  0.00  0.00    +0.149 C 
ATOM     30  C   UNL     1      34.546 -14.024 -23.780  0.00  0.00    +0.052 C 
ATOM     31  C   UNL     1      33.380 -12.723 -25.449  0.00  0.00    +0.038 C 
ATOM     32  C   UNL     1      34.167 -15.198 -24.431  0.00  0.00    +0.054 C 
ATOM     33  C   UNL     1      33.395 -15.134 -25.590  0.00  0.00    +0.015 C 
ATOM     34  C   UNL     1      33.000 -13.897 -26.099  0.00  0.00    +0.004 C 
BRANCH  32  36
ATOM     35  O   UNL     1      34.878 -16.010 -21.629  0.00  0.00    -0.270 OA
ATOM     36  N   UNL     1      34.560 -16.436 -23.921  0.00  0.00    -0.280 N 
ATOM     37  C   UNL     1      34.882 -16.762 -22.596  0.00  0.00    +0.250 C 
ATOM     38  H   UNL     1      34.617 -17.172 -24.572  0.00  0.00    +0.155 HD
BRANCH  37  39
ATOM     39  C   UNL     1      35.254 -18.200 -22.458  0.00  0.00    +0.058 C 
ATOM     40  C   UNL     1      34.787 -19.108 -23.319  0.00  0.00    +0.005 C 
ENDBRANCH  37  39
ENDBRANCH  32  36
ENDBRANCH  28  29
ENDBRANCH   8  28
TORSDOF 6
ENDMDL
MODEL 8
REMARK VINA RESULT:     -10.1      6.106     11.339
REMARK  Name = 72734520
REMARK  6 active torsions:
REMARK  status: ('A' for Active; 'I' for Inactive)
REMARK    1  A    between atoms: N_1  and  C_19
REMARK    2  A    between atoms: C_8  and  O_28
REMARK    3  A    between atoms: C_14  and  N_20
REMARK    4  A    between atoms: O_28  and  C_29
REMARK    5  A    between atoms: C_32  and  N_36
REMARK    6  A    between atoms: C_37  and  C_39
REMARK                            x       y       z     vdW  Elec       q    Type
REMARK                         _______ _______ _______ _____ _____    ______ ____
ROOT
ATOM      1  N   UNL     1      31.197  -9.178 -22.080  0.00  0.00    -0.238 N 
ATOM      2  N   UNL     1      30.639  -6.915 -22.203  0.00  0.00    -0.316 NA
ATOM      3  N   UNL     1      32.805  -7.729 -22.961  0.00  0.00    -0.294 NA
ATOM      4  N   UNL     1      30.385  -4.532 -22.466  0.00  0.00    -0.289 N 
ATOM      5  C   UNL     1      31.567  -7.866 -22.435  0.00  0.00    +0.207 C 
ATOM      6  C   UNL     1      32.328  -5.410 -23.124  0.00  0.00    +0.181 C 
ATOM      7  C   UNL     1      31.087  -5.703 -22.572  0.00  0.00    +0.188 C 
ATOM      8  C   UNL     1      33.197  -6.483 -23.313  0.00  0.00    +0.281 C 
ATOM      9  C   UNL     1      32.359  -4.010 -23.352  0.00  0.00    +0.008 C 
ATOM     10  C   UNL     1      31.149  -3.496 -22.937  0.00  0.00    +0.060 C 
ATOM     11  H   UNL     1      30.291  -9.246 -21.700  0.00  0.00    +0.166 HD
ATOM     12  H   UNL     1      29.472  -4.447 -22.108  0.00  0.00    +0.154 HD
ENDROOT
BRANCH   1  19
ATOM     13  F   UNL     1      31.835 -13.681 -20.567  0.00  0.00    -0.203 F 
ATOM     14  C   UNL     1      33.202 -12.862 -22.329  0.00  0.00    +0.076 C 
ATOM     15  C   UNL     1      32.183 -12.684 -21.393  0.00  0.00    +0.155 C 
ATOM     16  C   UNL     1      33.555 -11.815 -23.181  0.00  0.00    +0.018 C 
ATOM     17  C   UNL     1      31.517 -11.461 -21.311  0.00  0.00    +0.046 C 
ATOM     18  C   UNL     1      32.889 -10.593 -23.099  0.00  0.00    +0.017 C 
ATOM     19  C   UNL     1      31.870 -10.415 -22.164  0.00  0.00    +0.061 C 
BRANCH  14  20
ATOM     20  N   UNL     1      33.872 -14.087 -22.413  0.00  0.00    -0.310 N 
ATOM     21  N   UNL     1      35.458 -16.452 -22.633  0.00  0.00    +0.388 N 
ATOM     22  C   UNL     1      34.443 -14.473 -23.709  0.00  0.00    +0.068 C 
ATOM     23  C   UNL     1      34.557 -14.624 -21.233  0.00  0.00    +0.068 C 
ATOM     24  C   UNL     1      34.658 -15.986 -23.773  0.00  0.00    -0.056 C 
ATOM     25  C   UNL     1      34.770 -16.133 -21.376  0.00  0.00    -0.056 C 
ATOM     26  C   UNL     1      35.703 -17.891 -22.732  0.00  0.00    -0.101 C 
ATOM     27  H   UNL     1      36.358 -15.974 -22.645  0.00  0.00    -0.080 HD
ENDBRANCH  14  20
ENDBRANCH   1  19
BRANCH   8  28
ATOM     28  O   UNL     1      34.451  -6.327 -23.849  0.00  0.00    -0.429 OA
BRANCH  28  29
ATOM     29  C   UNL     1      34.538  -5.721 -25.086  0.00  0.00    +0.149 C 
ATOM     30  C   UNL     1      35.786  -5.375 -25.606  0.00  0.00    +0.052 C 
ATOM     31  C   UNL     1      33.381  -5.454 -25.816  0.00  0.00    +0.038 C 
ATOM     32  C   UNL     1      35.876  -4.764 -26.856  0.00  0.00    +0.054 C 
ATOM     33  C   UNL     1      34.718  -4.497 -27.587  0.00  0.00    +0.015 C 
ATOM     34  C   UNL     1      33.470  -4.843 -27.067  0.00  0.00    +0.004 C 
BRANCH  32  36
ATOM     35  O   UNL     1      37.623  -6.201 -28.831  0.00  0.00    -0.270 OA
ATOM     36  N   UNL     1      37.124  -4.419 -27.377  0.00  0.00    -0.280 N 
ATOM     37  C   UNL     1      37.900  -5.131 -28.302  0.00  0.00    +0.250 C 
ATOM     38  H   UNL     1      37.506  -3.571 -27.054  0.00  0.00    +0.155 HD
BRANCH  37  39
ATOM     39  C   UNL     1      39.179  -4.425 -28.606  0.00  0.00    +0.058 C 
ATOM     40  C   UNL     1      40.228  -4.537 -27.786  0.00  0.00    +0.005 C 
ENDBRANCH  37  39
ENDBRANCH  32  36
ENDBRANCH  28  29
ENDBRANCH   8  28
TORSDOF 6
ENDMDL
