MODEL 1
REMARK VINA RESULT:     -11.4      0.000      0.000
REMARK  Name = 46861612
REMARK  7 active torsions:
REMARK  status: ('A' for Active; 'I' for Inactive)
REMARK    1  A    between atoms: C_1  and  N_2
REMARK    2  A    between atoms: C_1  and  C_17
REMARK    3  A    between atoms: N_3  and  C_11
REMARK    4  A    between atoms: C_17  and  C_18
REMARK    5  A    between atoms: C_18  and  C_19
REMARK    6  A    between atoms: C_19  and  O_20
REMARK    7  A    between atoms: O_20  and  C_24
REMARK                            x       y       z     vdW  Elec       q    Type
REMARK                         _______ _______ _______ _____ _____    ______ ____
ROOT
ATOM      1  C   UNL     1      31.412 -10.195 -19.499  0.00  0.00    -0.077 C 
ENDROOT
BRANCH   1   2
ATOM      2  N   UNL     1      32.246  -9.507 -20.483  0.00  0.00    +0.389 N 
ATOM      3  N   UNL     1      32.855  -7.552 -22.474  0.00  0.00    -0.311 N 
ATOM      4  C   UNL     1      31.647  -9.597 -21.820  0.00  0.00    -0.055 C 
ATOM      5  C   UNL     1      32.426  -8.099 -20.111  0.00  0.00    -0.055 C 
ATOM      6  C   UNL     1      33.344  -7.380 -21.102  0.00  0.00    +0.068 C 
ATOM      7  C   UNL     1      32.539  -8.931 -22.869  0.00  0.00    +0.068 C 
ATOM      8  H   UNL     1      33.159  -9.963 -20.499  0.00  0.00    -0.080 HD
BRANCH   3  11
ATOM      9 CL   UNL     1      30.931  -5.335 -23.076  0.00  0.00    -0.080 Cl
ATOM     10 CL   UNL     1      31.966  -3.354 -25.381  0.00  0.00    -0.081 Cl
ATOM     11  C   UNL     1      33.261  -6.659 -23.472  0.00  0.00    +0.059 C 
ATOM     12  C   UNL     1      32.464  -5.580 -23.856  0.00  0.00    +0.081 C 
ATOM     13  C   UNL     1      34.495  -6.869 -24.088  0.00  0.00    +0.015 C 
ATOM     14  C   UNL     1      32.901  -4.711 -24.855  0.00  0.00    +0.069 C 
ATOM     15  C   UNL     1      34.932  -5.999 -25.087  0.00  0.00    +0.002 C 
ATOM     16  C   UNL     1      34.135  -4.920 -25.471  0.00  0.00    +0.012 C 
ENDBRANCH   3  11
ENDBRANCH   1   2
BRANCH   1  17
ATOM     17  C   UNL     1      30.891 -11.512 -20.070  0.00  0.00    -0.019 C 
BRANCH  17  18
ATOM     18  C   UNL     1      31.979 -12.585 -20.067  0.00  0.00    +0.045 C 
BRANCH  18  19
ATOM     19  C   UNL     1      32.291 -13.074 -21.475  0.00  0.00    +0.205 C 
BRANCH  19  20
ATOM     20  O   UNL     1      33.691 -13.270 -21.617  0.00  0.00    -0.475 OA
BRANCH  20  24
ATOM     21  O   UNL     1      35.369 -18.166 -23.553  0.00  0.00    -0.464 OA
ATOM     22  O   UNL     1      36.218 -19.814 -20.451  0.00  0.00    -0.271 OA
ATOM     23  N   UNL     1      35.406 -17.686 -20.766  0.00  0.00    -0.278 N 
ATOM     24  C   UNL     1      34.099 -14.494 -22.081  0.00  0.00    +0.140 C 
ATOM     25  C   UNL     1      34.530 -15.471 -21.183  0.00  0.00    +0.055 C 
ATOM     26  C   UNL     1      34.938 -16.718 -21.661  0.00  0.00    +0.088 C 
ATOM     27  C   UNL     1      34.089 -14.759 -23.450  0.00  0.00    +0.040 C 
ATOM     28  C   UNL     1      34.925 -16.985 -23.028  0.00  0.00    +0.153 C 
ATOM     29  C   UNL     1      34.508 -16.002 -23.926  0.00  0.00    +0.041 C 
ATOM     30  C   UNL     1      35.380 -19.242 -22.634  0.00  0.00    +0.290 C 
ATOM     31  C   UNL     1      35.740 -18.952 -21.187  0.00  0.00    +0.271 C 
ATOM     32  H   UNL     1      35.497 -17.457 -19.814  0.00  0.00    +0.155 HD
ENDBRANCH  20  24
ENDBRANCH  19  20
ENDBRANCH  18  19
ENDBRANCH  17  18
ENDBRANCH   1  17
TORSDOF 7
ENDMDL
MODEL 2
REMARK VINA RESULT:     -11.4      1.267      1.792
REMARK  Name = 46861612
REMARK  7 active torsions:
REMARK  status: ('A' for Active; 'I' for Inactive)
REMARK    1  A    between atoms: C_1  and  N_2
REMARK    2  A    between atoms: C_1  and  C_17
REMARK    3  A    between atoms: N_3  and  C_11
REMARK    4  A    between atoms: C_17  and  C_18
REMARK    5  A    between atoms: C_18  and  C_19
REMARK    6  A    between atoms: C_19  and  O_20
REMARK    7  A    between atoms: O_20  and  C_24
REMARK                            x       y       z     vdW  Elec       q    Type
REMARK                         _______ _______ _______ _____ _____    ______ ____
ROOT
ATOM      1  C   UNL     1      31.885 -10.192 -19.504  0.00  0.00    -0.077 C 
ENDROOT
BRANCH   1   2
ATOM      2  N   UNL     1      31.722  -9.060 -20.415  0.00  0.00    +0.389 N 
ATOM      3  N   UNL     1      32.511  -7.211 -22.444  0.00  0.00    -0.311 N 
ATOM      4  C   UNL     1      32.716  -8.019 -20.125  0.00  0.00    -0.055 C 
ATOM      5  C   UNL     1      31.850  -9.498 -21.809  0.00  0.00    -0.055 C 
ATOM      6  C   UNL     1      31.625  -8.332 -22.775  0.00  0.00    +0.068 C 
ATOM      7  C   UNL     1      32.519  -6.803 -21.033  0.00  0.00    +0.068 C 
ATOM      8  H   UNL     1      30.789  -8.672 -20.275  0.00  0.00    -0.080 HD
BRANCH   3  11
ATOM      9 CL   UNL     1      35.067  -7.604 -23.958  0.00  0.00    -0.080 Cl
ATOM     10 CL   UNL     1      35.606  -5.316 -26.144  0.00  0.00    -0.081 Cl
ATOM     11  C   UNL     1      32.792  -6.239 -23.412  0.00  0.00    +0.059 C 
ATOM     12  C   UNL     1      33.948  -6.296 -24.190  0.00  0.00    +0.081 C 
ATOM     13  C   UNL     1      31.883  -5.196 -23.587  0.00  0.00    +0.015 C 
ATOM     14  C   UNL     1      34.195  -5.309 -25.144  0.00  0.00    +0.069 C 
ATOM     15  C   UNL     1      32.130  -4.210 -24.541  0.00  0.00    +0.002 C 
ATOM     16  C   UNL     1      33.286  -4.266 -25.320  0.00  0.00    +0.012 C 
ENDBRANCH   3  11
ENDBRANCH   1   2
BRANCH   1  17
ATOM     17  C   UNL     1      31.219 -11.439 -20.082  0.00  0.00    -0.019 C 
BRANCH  17  18
ATOM     18  C   UNL     1      32.206 -12.601 -20.177  0.00  0.00    +0.045 C 
BRANCH  18  19
ATOM     19  C   UNL     1      32.280 -13.162 -21.591  0.00  0.00    +0.205 C 
BRANCH  19  20
ATOM     20  O   UNL     1      33.638 -13.264 -21.998  0.00  0.00    -0.475 OA
BRANCH  20  24
ATOM     21  O   UNL     1      35.451 -18.240 -23.573  0.00  0.00    -0.464 OA
ATOM     22  O   UNL     1      36.162 -19.704 -20.346  0.00  0.00    -0.271 OA
ATOM     23  N   UNL     1      35.348 -17.606 -20.818  0.00  0.00    -0.278 N 
ATOM     24  C   UNL     1      34.079 -14.507 -22.371  0.00  0.00    +0.140 C 
ATOM     25  C   UNL     1      34.474 -15.428 -21.400  0.00  0.00    +0.055 C 
ATOM     26  C   UNL     1      34.916 -16.694 -21.787  0.00  0.00    +0.088 C 
ATOM     27  C   UNL     1      34.138 -14.848 -23.723  0.00  0.00    +0.040 C 
ATOM     28  C   UNL     1      34.972 -17.038 -23.136  0.00  0.00    +0.153 C 
ATOM     29  C   UNL     1      34.591 -16.111 -24.107  0.00  0.00    +0.041 C 
ATOM     30  C   UNL     1      35.427 -19.263 -22.595  0.00  0.00    +0.290 C 
ATOM     31  C   UNL     1      35.713 -18.890 -21.150  0.00  0.00    +0.271 C 
ATOM     32  H   UNL     1      35.390 -17.323 -19.877  0.00  0.00    +0.155 HD
ENDBRANCH  20  24
ENDBRANCH  19  20
ENDBRANCH  18  19
ENDBRANCH  17  18
ENDBRANCH   1  17
TORSDOF 7
ENDMDL
MODEL 3
REMARK VINA RESULT:     -11.2      3.909      7.077
REMARK  Name = 46861612
REMARK  7 active torsions:
REMARK  status: ('A' for Active; 'I' for Inactive)
REMARK    1  A    between atoms: C_1  and  N_2
REMARK    2  A    between atoms: C_1  and  C_17
REMARK    3  A    between atoms: N_3  and  C_11
REMARK    4  A    between atoms: C_17  and  C_18
REMARK    5  A    between atoms: C_18  and  C_19
REMARK    6  A    between atoms: C_19  and  O_20
REMARK    7  A    between atoms: O_20  and  C_24
REMARK                            x       y       z     vdW  Elec       q    Type
REMARK                         _______ _______ _______ _____ _____    ______ ____
ROOT
ATOM      1  C   UNL     1      35.073 -17.073 -24.220  0.00  0.00    -0.077 C 
ENDROOT
BRANCH   1   2
ATOM      2  N   UNL     1      34.884 -15.667 -23.868  0.00  0.00    +0.389 N 
ATOM      3  N   UNL     1      33.497 -13.410 -22.800  0.00  0.00    -0.311 N 
ATOM      4  C   UNL     1      33.718 -15.113 -24.567  0.00  0.00    -0.055 C 
ATOM      5  C   UNL     1      34.713 -15.518 -22.418  0.00  0.00    -0.055 C 
ATOM      6  C   UNL     1      34.571 -14.044 -22.029  0.00  0.00    +0.068 C 
ATOM      7  C   UNL     1      33.543 -13.626 -24.252  0.00  0.00    +0.068 C 
ATOM      8  H   UNL     1      35.716 -15.152 -24.157  0.00  0.00    -0.080 HD
BRANCH   3  11
ATOM      9 CL   UNL     1      32.006 -13.662 -20.213  0.00  0.00    -0.080 Cl
ATOM     10 CL   UNL     1      30.697 -10.898 -19.234  0.00  0.00    -0.081 Cl
ATOM     11  C   UNL     1      32.908 -12.231 -22.329  0.00  0.00    +0.059 C 
ATOM     12  C   UNL     1      32.182 -12.202 -21.138  0.00  0.00    +0.081 C 
ATOM     13  C   UNL     1      33.059 -11.067 -23.083  0.00  0.00    +0.015 C 
ATOM     14  C   UNL     1      31.608 -11.008 -20.700  0.00  0.00    +0.069 C 
ATOM     15  C   UNL     1      32.486  -9.873 -22.644  0.00  0.00    +0.002 C 
ATOM     16  C   UNL     1      31.760  -9.844 -21.454  0.00  0.00    +0.012 C 
ENDBRANCH   3  11
ENDBRANCH   1   2
BRANCH   1  17
ATOM     17  C   UNL     1      34.964 -17.953 -22.976  0.00  0.00    -0.019 C 
BRANCH  17  18
ATOM     18  C   UNL     1      36.312 -18.575 -22.618  0.00  0.00    +0.045 C 
BRANCH  18  19
ATOM     19  C   UNL     1      36.482 -18.721 -21.112  0.00  0.00    +0.205 C 
BRANCH  19  20
ATOM     20  O   UNL     1      36.631 -20.094 -20.775  0.00  0.00    -0.475 OA
BRANCH  20  24
ATOM     21  O   UNL     1      32.440 -22.444 -18.047  0.00  0.00    -0.464 OA
ATOM     22  O   UNL     1      34.276 -24.300 -15.548  0.00  0.00    -0.271 OA
ATOM     23  N   UNL     1      35.097 -22.956 -17.222  0.00  0.00    -0.278 N 
ATOM     24  C   UNL     1      35.602 -20.676 -20.080  0.00  0.00    +0.140 C 
ATOM     25  C   UNL     1      35.876 -21.508 -18.995  0.00  0.00    +0.055 C 
ATOM     26  C   UNL     1      34.824 -22.091 -18.288  0.00  0.00    +0.088 C 
ATOM     27  C   UNL     1      34.282 -20.439 -20.464  0.00  0.00    +0.040 C 
ATOM     28  C   UNL     1      33.504 -21.853 -18.667  0.00  0.00    +0.153 C 
ATOM     29  C   UNL     1      33.232 -21.033 -19.762  0.00  0.00    +0.041 C 
ATOM     30  C   UNL     1      32.715 -22.908 -16.738  0.00  0.00    +0.290 C 
ATOM     31  C   UNL     1      34.090 -23.486 -16.450  0.00  0.00    +0.271 C 
ATOM     32  H   UNL     1      36.031 -23.188 -17.020  0.00  0.00    +0.155 HD
ENDBRANCH  20  24
ENDBRANCH  19  20
ENDBRANCH  18  19
ENDBRANCH  17  18
ENDBRANCH   1  17
TORSDOF 7
ENDMDL
MODEL 4
REMARK VINA RESULT:     -11.1      5.051     11.693
REMARK  Name = 46861612
REMARK  7 active torsions:
REMARK  status: ('A' for Active; 'I' for Inactive)
REMARK    1  A    between atoms: C_1  and  N_2
REMARK    2  A    between atoms: C_1  and  C_17
REMARK    3  A    between atoms: N_3  and  C_11
REMARK    4  A    between atoms: C_17  and  C_18
REMARK    5  A    between atoms: C_18  and  C_19
REMARK    6  A    between atoms: C_19  and  O_20
REMARK    7  A    between atoms: O_20  and  C_24
REMARK                            x       y       z     vdW  Elec       q    Type
REMARK                         _______ _______ _______ _____ _____    ______ ____
ROOT
ATOM      1  C   UNL     1      34.769 -16.281 -24.275  0.00  0.00    -0.077 C 
ENDROOT
BRANCH   1   2
ATOM      2  N   UNL     1      35.321 -17.314 -23.400  0.00  0.00    +0.389 N 
ATOM      3  N   UNL     1      35.264 -19.283 -21.333  0.00  0.00    -0.311 N 
ATOM      4  C   UNL     1      35.212 -16.910 -21.993  0.00  0.00    -0.055 C 
ATOM      5  C   UNL     1      34.626 -18.590 -23.608  0.00  0.00    -0.055 C 
ATOM      6  C   UNL     1      35.232 -19.695 -22.740  0.00  0.00    +0.068 C 
ATOM      7  C   UNL     1      35.839 -17.957 -21.071  0.00  0.00    +0.068 C 
ATOM      8  H   UNL     1      36.307 -17.434 -23.633  0.00  0.00    -0.080 HD
BRANCH   3  11
ATOM      9 CL   UNL     1      32.658 -20.396 -20.357  0.00  0.00    -0.080 Cl
ATOM     10 CL   UNL     1      33.010 -22.607 -18.056  0.00  0.00    -0.081 Cl
ATOM     11  C   UNL     1      35.363 -20.253 -20.328  0.00  0.00    +0.059 C 
ATOM     12  C   UNL     1      34.231 -20.856 -19.780  0.00  0.00    +0.081 C 
ATOM     13  C   UNL     1      36.633 -20.613 -19.877  0.00  0.00    +0.015 C 
ATOM     14  C   UNL     1      34.369 -21.819 -18.780  0.00  0.00    +0.069 C 
ATOM     15  C   UNL     1      36.771 -21.576 -18.877  0.00  0.00    +0.002 C 
ATOM     16  C   UNL     1      35.638 -22.178 -18.328  0.00  0.00    +0.012 C 
ENDBRANCH   3  11
ENDBRANCH   1   2
BRANCH   1  17
ATOM     17  C   UNL     1      34.854 -14.912 -23.602  0.00  0.00    -0.019 C 
BRANCH  17  18
ATOM     18  C   UNL     1      33.473 -14.275 -23.467  0.00  0.00    +0.045 C 
BRANCH  18  19
ATOM     19  C   UNL     1      33.210 -13.801 -22.043  0.00  0.00    +0.205 C 
BRANCH  19  20
ATOM     20  O   UNL     1      31.978 -13.094 -21.991  0.00  0.00    -0.475 OA
BRANCH  20  24
ATOM     21  O   UNL     1      32.059  -8.216 -19.399  0.00  0.00    -0.464 OA
ATOM     22  O   UNL     1      32.873  -6.042 -22.168  0.00  0.00    -0.271 OA
ATOM     23  N   UNL     1      32.600  -8.325 -22.172  0.00  0.00    -0.278 N 
ATOM     24  C   UNL     1      31.990 -11.875 -21.365  0.00  0.00    +0.140 C 
ATOM     25  C   UNL     1      32.274 -10.720 -22.094  0.00  0.00    +0.055 C 
ATOM     26  C   UNL     1      32.279  -9.480 -21.452  0.00  0.00    +0.088 C 
ATOM     27  C   UNL     1      31.724 -11.791 -19.998  0.00  0.00    +0.040 C 
ATOM     28  C   UNL     1      32.010  -9.394 -20.088  0.00  0.00    +0.153 C 
ATOM     29  C   UNL     1      31.741 -10.552 -19.357  0.00  0.00    +0.041 C 
ATOM     30  C   UNL     1      31.920  -7.064 -20.209  0.00  0.00    +0.290 C 
ATOM     31  C   UNL     1      32.537  -7.077 -21.597  0.00  0.00    +0.271 C 
ATOM     32  H   UNL     1      32.876  -8.407 -23.113  0.00  0.00    +0.155 HD
ENDBRANCH  20  24
ENDBRANCH  19  20
ENDBRANCH  18  19
ENDBRANCH  17  18
ENDBRANCH   1  17
TORSDOF 7
ENDMDL
MODEL 5
REMARK VINA RESULT:     -11.1      3.610      7.029
REMARK  Name = 46861612
REMARK  7 active torsions:
REMARK  status: ('A' for Active; 'I' for Inactive)
REMARK    1  A    between atoms: C_1  and  N_2
REMARK    2  A    between atoms: C_1  and  C_17
REMARK    3  A    between atoms: N_3  and  C_11
REMARK    4  A    between atoms: C_17  and  C_18
REMARK    5  A    between atoms: C_18  and  C_19
REMARK    6  A    between atoms: C_19  and  O_20
REMARK    7  A    between atoms: O_20  and  C_24
REMARK                            x       y       z     vdW  Elec       q    Type
REMARK                         _______ _______ _______ _____ _____    ______ ____
ROOT
ATOM      1  C   UNL     1      35.308 -16.910 -23.798  0.00  0.00    -0.077 C 
ENDROOT
BRANCH   1   2
ATOM      2  N   UNL     1      34.280 -15.991 -23.312  0.00  0.00    +0.389 N 
ATOM      3  N   UNL     1      33.234 -13.498 -22.391  0.00  0.00    -0.311 N 
ATOM      4  C   UNL     1      34.626 -15.489 -21.977  0.00  0.00    -0.055 C 
ATOM      5  C   UNL     1      34.113 -14.867 -24.241  0.00  0.00    -0.055 C 
ATOM      6  C   UNL     1      32.999 -13.927 -23.773  0.00  0.00    +0.068 C 
ATOM      7  C   UNL     1      33.529 -14.572 -21.433  0.00  0.00    +0.068 C 
ATOM      8  H   UNL     1      33.399 -16.504 -23.253  0.00  0.00    -0.080 HD
BRANCH   3  11
ATOM      9 CL   UNL     1      33.917 -10.973 -23.853  0.00  0.00    -0.080 Cl
ATOM     10 CL   UNL     1      32.443  -8.383 -22.660  0.00  0.00    -0.081 Cl
ATOM     11  C   UNL     1      32.615 -12.339 -21.909  0.00  0.00    +0.059 C 
ATOM     12  C   UNL     1      32.843 -11.093 -22.494  0.00  0.00    +0.081 C 
ATOM     13  C   UNL     1      31.754 -12.452 -20.818  0.00  0.00    +0.015 C 
ATOM     14  C   UNL     1      32.208  -9.959 -21.986  0.00  0.00    +0.069 C 
ATOM     15  C   UNL     1      31.119 -11.318 -20.311  0.00  0.00    +0.002 C 
ATOM     16  C   UNL     1      31.347 -10.071 -20.894  0.00  0.00    +0.012 C 
ENDBRANCH   3  11
ENDBRANCH   1   2
BRANCH   1  17
ATOM     17  C   UNL     1      35.115 -18.296 -23.187  0.00  0.00    -0.019 C 
BRANCH  17  18
ATOM     18  C   UNL     1      36.423 -18.833 -22.608  0.00  0.00    +0.045 C 
BRANCH  18  19
ATOM     19  C   UNL     1      36.413 -18.811 -21.085  0.00  0.00    +0.205 C 
BRANCH  19  20
ATOM     20  O   UNL     1      36.667 -20.116 -20.583  0.00  0.00    -0.475 OA
BRANCH  20  24
ATOM     21  O   UNL     1      32.490 -22.603 -17.956  0.00  0.00    -0.464 OA
ATOM     22  O   UNL     1      34.320 -24.356 -15.380  0.00  0.00    -0.271 OA
ATOM     23  N   UNL     1      35.138 -22.998 -17.044  0.00  0.00    -0.278 N 
ATOM     24  C   UNL     1      35.641 -20.731 -19.913  0.00  0.00    +0.140 C 
ATOM     25  C   UNL     1      35.914 -21.539 -18.810  0.00  0.00    +0.055 C 
ATOM     26  C   UNL     1      34.865 -22.157 -18.128  0.00  0.00    +0.088 C 
ATOM     27  C   UNL     1      34.325 -20.551 -20.339  0.00  0.00    +0.040 C 
ATOM     28  C   UNL     1      33.549 -21.976 -18.550  0.00  0.00    +0.153 C 
ATOM     29  C   UNL     1      33.278 -21.179 -19.663  0.00  0.00    +0.041 C 
ATOM     30  C   UNL     1      32.742 -23.040 -16.634  0.00  0.00    +0.290 C 
ATOM     31  C   UNL     1      34.130 -23.560 -16.297  0.00  0.00    +0.271 C 
ATOM     32  H   UNL     1      36.074 -23.191 -16.810  0.00  0.00    +0.155 HD
ENDBRANCH  20  24
ENDBRANCH  19  20
ENDBRANCH  18  19
ENDBRANCH  17  18
ENDBRANCH   1  17
TORSDOF 7
ENDMDL
MODEL 6
REMARK VINA RESULT:     -11.0      7.086     11.071
REMARK  Name = 46861612
REMARK  7 active torsions:
REMARK  status: ('A' for Active; 'I' for Inactive)
REMARK    1  A    between atoms: C_1  and  N_2
REMARK    2  A    between atoms: C_1  and  C_17
REMARK    3  A    between atoms: N_3  and  C_11
REMARK    4  A    between atoms: C_17  and  C_18
REMARK    5  A    between atoms: C_18  and  C_19
REMARK    6  A    between atoms: C_19  and  O_20
REMARK    7  A    between atoms: O_20  and  C_24
REMARK                            x       y       z     vdW  Elec       q    Type
REMARK                         _______ _______ _______ _____ _____    ______ ____
ROOT
ATOM      1  C   UNL     1      36.604 -21.551 -19.402  0.00  0.00    -0.077 C 
ENDROOT
BRANCH   1   2
ATOM      2  N   UNL     1      36.145 -20.245 -19.872  0.00  0.00    +0.389 N 
ATOM      3  N   UNL     1      35.380 -18.293 -21.812  0.00  0.00    -0.311 N 
ATOM      4  C   UNL     1      37.154 -19.625 -20.739  0.00  0.00    -0.055 C 
ATOM      5  C   UNL     1      34.876 -20.376 -20.598  0.00  0.00    -0.055 C 
ATOM      6  C   UNL     1      34.355 -19.009 -21.047  0.00  0.00    +0.068 C 
ATOM      7  C   UNL     1      36.710 -18.232 -21.191  0.00  0.00    +0.068 C 
ATOM      8  H   UNL     1      35.998 -19.648 -19.058  0.00  0.00    -0.080 HD
BRANCH   3  11
ATOM      9 CL   UNL     1      34.457 -15.785 -20.456  0.00  0.00    -0.080 Cl
ATOM     10 CL   UNL     1      33.623 -13.468 -22.517  0.00  0.00    -0.081 Cl
ATOM     11  C   UNL     1      35.006 -17.250 -22.667  0.00  0.00    +0.059 C 
ATOM     12  C   UNL     1      34.555 -16.026 -22.174  0.00  0.00    +0.081 C 
ATOM     13  C   UNL     1      35.092 -17.459 -24.044  0.00  0.00    +0.015 C 
ATOM     14  C   UNL     1      34.190 -15.010 -23.058  0.00  0.00    +0.069 C 
ATOM     15  C   UNL     1      34.727 -16.443 -24.927  0.00  0.00    +0.002 C 
ATOM     16  C   UNL     1      34.275 -15.219 -24.434  0.00  0.00    +0.012 C 
ENDBRANCH   3  11
ENDBRANCH   1   2
BRANCH   1  17
ATOM     17  C   UNL     1      35.877 -21.940 -18.116  0.00  0.00    -0.019 C 
BRANCH  17  18
ATOM     18  C   UNL     1      36.851 -22.070 -16.947  0.00  0.00    +0.045 C 
BRANCH  18  19
ATOM     19  C   UNL     1      36.129 -22.406 -15.649  0.00  0.00    +0.205 C 
BRANCH  19  20
ATOM     20  O   UNL     1      35.492 -23.671 -15.766  0.00  0.00    -0.475 OA
BRANCH  20  24
ATOM     21  O   UNL     1      30.247 -23.963 -14.053  0.00  0.00    -0.464 OA
ATOM     22  O   UNL     1      28.603 -22.214 -16.755  0.00  0.00    -0.271 OA
ATOM     23  N   UNL     1      30.844 -22.652 -16.487  0.00  0.00    -0.278 N 
ATOM     24  C   UNL     1      34.184 -23.745 -15.361  0.00  0.00    +0.140 C 
ATOM     25  C   UNL     1      33.180 -23.173 -16.141  0.00  0.00    +0.055 C 
ATOM     26  C   UNL     1      31.850 -23.257 -15.726  0.00  0.00    +0.088 C 
ATOM     27  C   UNL     1      33.861 -24.389 -14.166  0.00  0.00    +0.040 C 
ATOM     28  C   UNL     1      31.524 -23.903 -14.535  0.00  0.00    +0.153 C 
ATOM     29  C   UNL     1      32.532 -24.462 -13.748  0.00  0.00    +0.041 C 
ATOM     30  C   UNL     1      29.247 -23.771 -15.036  0.00  0.00    +0.290 C 
ATOM     31  C   UNL     1      29.515 -22.781 -16.157  0.00  0.00    +0.271 C 
ATOM     32  H   UNL     1      31.093 -22.122 -17.278  0.00  0.00    +0.155 HD
ENDBRANCH  20  24
ENDBRANCH  19  20
ENDBRANCH  18  19
ENDBRANCH  17  18
ENDBRANCH   1  17
TORSDOF 7
ENDMDL
MODEL 7
REMARK VINA RESULT:     -11.0      6.831     11.031
REMARK  Name = 46861612
REMARK  7 active torsions:
REMARK  status: ('A' for Active; 'I' for Inactive)
REMARK    1  A    between atoms: C_1  and  N_2
REMARK    2  A    between atoms: C_1  and  C_17
REMARK    3  A    between atoms: N_3  and  C_11
REMARK    4  A    between atoms: C_17  and  C_18
REMARK    5  A    between atoms: C_18  and  C_19
REMARK    6  A    between atoms: C_19  and  O_20
REMARK    7  A    between atoms: O_20  and  C_24
REMARK                            x       y       z     vdW  Elec       q    Type
REMARK                         _______ _______ _______ _____ _____    ______ ____
ROOT
ATOM      1  C   UNL     1      36.279 -21.141 -19.487  0.00  0.00    -0.077 C 
ENDROOT
BRANCH   1   2
ATOM      2  N   UNL     1      36.088 -20.324 -20.684  0.00  0.00    +0.389 N 
ATOM      3  N   UNL     1      35.288 -18.018 -22.167  0.00  0.00    -0.311 N 
ATOM      4  C   UNL     1      34.665 -20.029 -20.886  0.00  0.00    -0.055 C 
ATOM      5  C   UNL     1      36.848 -19.072 -20.579  0.00  0.00    -0.055 C 
ATOM      6  C   UNL     1      36.703 -18.233 -21.850  0.00  0.00    +0.068 C 
ATOM      7  C   UNL     1      34.447 -19.222 -22.168  0.00  0.00    +0.068 C 
ATOM      8  H   UNL     1      36.432 -20.852 -21.487  0.00  0.00    -0.080 HD
BRANCH   3  11
ATOM      9 CL   UNL     1      34.476 -15.502 -20.757  0.00  0.00    -0.080 Cl
ATOM     10 CL   UNL     1      33.643 -13.140 -22.766  0.00  0.00    -0.081 Cl
ATOM     11  C   UNL     1      34.916 -16.956 -23.000  0.00  0.00    +0.059 C 
ATOM     12  C   UNL     1      34.514 -15.726 -22.479  0.00  0.00    +0.081 C 
ATOM     13  C   UNL     1      34.953 -17.152 -24.380  0.00  0.00    +0.015 C 
ATOM     14  C   UNL     1      34.150 -14.690 -23.340  0.00  0.00    +0.069 C 
ATOM     15  C   UNL     1      34.589 -16.116 -25.241  0.00  0.00    +0.002 C 
ATOM     16  C   UNL     1      34.187 -14.886 -24.721  0.00  0.00    +0.012 C 
ENDBRANCH   3  11
ENDBRANCH   1   2
BRANCH   1  17
ATOM     17  C   UNL     1      35.300 -22.314 -19.482  0.00  0.00    -0.019 C 
BRANCH  17  18
ATOM     18  C   UNL     1      34.118 -22.044 -18.553  0.00  0.00    +0.045 C 
BRANCH  18  19
ATOM     19  C   UNL     1      33.829 -23.236 -17.650  0.00  0.00    +0.205 C 
BRANCH  19  20
ATOM     20  O   UNL     1      33.944 -22.848 -16.288  0.00  0.00    -0.475 OA
BRANCH  20  24
ATOM     21  O   UNL     1      38.543 -24.360 -13.627  0.00  0.00    -0.464 OA
ATOM     22  O   UNL     1      37.161 -26.726 -11.270  0.00  0.00    -0.271 OA
ATOM     23  N   UNL     1      36.064 -25.494 -12.872  0.00  0.00    -0.278 N 
ATOM     24  C   UNL     1      35.077 -23.242 -15.625  0.00  0.00    +0.140 C 
ATOM     25  C   UNL     1      34.992 -24.180 -14.596  0.00  0.00    +0.055 C 
ATOM     26  C   UNL     1      36.151 -24.582 -13.930  0.00  0.00    +0.088 C 
ATOM     27  C   UNL     1      36.314 -22.702 -15.978  0.00  0.00    +0.040 C 
ATOM     28  C   UNL     1      37.388 -24.046 -14.283  0.00  0.00    +0.153 C 
ATOM     29  C   UNL     1      37.469 -23.097 -15.303  0.00  0.00    +0.041 C 
ATOM     30  C   UNL     1      38.493 -25.584 -12.918  0.00  0.00    +0.290 C 
ATOM     31  C   UNL     1      37.189 -25.977 -12.245  0.00  0.00    +0.271 C 
ATOM     32  H   UNL     1      35.178 -25.798 -12.572  0.00  0.00    +0.155 HD
ENDBRANCH  20  24
ENDBRANCH  19  20
ENDBRANCH  18  19
ENDBRANCH  17  18
ENDBRANCH   1  17
TORSDOF 7
ENDMDL
MODEL 8
REMARK VINA RESULT:     -10.9      8.214     14.535
REMARK  Name = 46861612
REMARK  7 active torsions:
REMARK  status: ('A' for Active; 'I' for Inactive)
REMARK    1  A    between atoms: C_1  and  N_2
REMARK    2  A    between atoms: C_1  and  C_17
REMARK    3  A    between atoms: N_3  and  C_11
REMARK    4  A    between atoms: C_17  and  C_18
REMARK    5  A    between atoms: C_18  and  C_19
REMARK    6  A    between atoms: C_19  and  O_20
REMARK    7  A    between atoms: O_20  and  C_24
REMARK                            x       y       z     vdW  Elec       q    Type
REMARK                         _______ _______ _______ _____ _____    ______ ____
ROOT
ATOM      1  C   UNL     1      34.159 -21.973 -18.584  0.00  0.00    -0.077 C 
ENDROOT
BRANCH   1   2
ATOM      2  N   UNL     1      34.903 -22.805 -17.639  0.00  0.00    +0.389 N 
ATOM      3  N   UNL     1      35.944 -23.563 -15.090  0.00  0.00    -0.311 N 
ATOM      4  C   UNL     1      35.993 -22.038 -17.025  0.00  0.00    -0.055 C 
ATOM      5  C   UNL     1      34.010 -23.326 -16.598  0.00  0.00    -0.055 C 
ATOM      6  C   UNL     1      34.766 -24.245 -15.634  0.00  0.00    +0.068 C 
ATOM      7  C   UNL     1      36.815 -22.913 -16.077  0.00  0.00    +0.068 C 
ATOM      8  H   UNL     1      35.302 -23.590 -18.154  0.00  0.00    -0.080 HD
BRANCH   3  11
ATOM      9 CL   UNL     1      34.112 -23.663 -12.720  0.00  0.00    -0.080 Cl
ATOM     10 CL   UNL     1      35.551 -24.726 -10.054  0.00  0.00    -0.081 Cl
ATOM     11  C   UNL     1      36.523 -24.022 -13.901  0.00  0.00    +0.059 C 
ATOM     12  C   UNL     1      35.788 -24.119 -12.720  0.00  0.00    +0.081 C 
ATOM     13  C   UNL     1      37.870 -24.385 -13.917  0.00  0.00    +0.015 C 
ATOM     14  C   UNL     1      36.400 -24.580 -11.554  0.00  0.00    +0.069 C 
ATOM     15  C   UNL     1      38.481 -24.846 -12.752  0.00  0.00    +0.002 C 
ATOM     16  C   UNL     1      37.747 -24.943 -11.570  0.00  0.00    +0.012 C 
ENDBRANCH   3  11
ENDBRANCH   1   2
BRANCH   1  17
ATOM     17  C   UNL     1      35.106 -21.356 -19.611  0.00  0.00    -0.019 C 
BRANCH  17  18
ATOM     18  C   UNL     1      34.442 -20.195 -20.348  0.00  0.00    +0.045 C 
BRANCH  18  19
ATOM     19  C   UNL     1      35.419 -19.488 -21.278  0.00  0.00    +0.205 C 
BRANCH  19  20
ATOM     20  O   UNL     1      35.686 -18.179 -20.791  0.00  0.00    -0.475 OA
BRANCH  20  24
ATOM     21  O   UNL     1      33.449 -13.923 -23.512  0.00  0.00    -0.464 OA
ATOM     22  O   UNL     1      34.024 -14.979 -26.919  0.00  0.00    -0.271 OA
ATOM     23  N   UNL     1      34.591 -16.059 -24.971  0.00  0.00    -0.278 N 
ATOM     24  C   UNL     1      35.125 -17.136 -21.481  0.00  0.00    +0.140 C 
ATOM     25  C   UNL     1      35.132 -17.139 -22.876  0.00  0.00    +0.055 C 
ATOM     26  C   UNL     1      34.553 -16.077 -23.573  0.00  0.00    +0.088 C 
ATOM     27  C   UNL     1      34.552 -16.070 -20.787  0.00  0.00    +0.040 C 
ATOM     28  C   UNL     1      33.977 -15.014 -22.881  0.00  0.00    +0.153 C 
ATOM     29  C   UNL     1      33.984 -15.005 -21.486  0.00  0.00    +0.041 C 
ATOM     30  C   UNL     1      33.091 -14.150 -24.862  0.00  0.00    +0.290 C 
ATOM     31  C   UNL     1      33.962 -15.074 -25.696  0.00  0.00    +0.271 C 
ATOM     32  H   UNL     1      35.079 -16.769 -25.447  0.00  0.00    +0.155 HD
ENDBRANCH  20  24
ENDBRANCH  19  20
ENDBRANCH  18  19
ENDBRANCH  17  18
ENDBRANCH   1  17
TORSDOF 7
ENDMDL
MODEL 9
REMARK VINA RESULT:     -10.8      5.505      9.044
REMARK  Name = 46861612
REMARK  7 active torsions:
REMARK  status: ('A' for Active; 'I' for Inactive)
REMARK    1  A    between atoms: C_1  and  N_2
REMARK    2  A    between atoms: C_1  and  C_17
REMARK    3  A    between atoms: N_3  and  C_11
REMARK    4  A    between atoms: C_17  and  C_18
REMARK    5  A    between atoms: C_18  and  C_19
REMARK    6  A    between atoms: C_19  and  O_20
REMARK    7  A    between atoms: O_20  and  C_24
REMARK                            x       y       z     vdW  Elec       q    Type
REMARK                         _______ _______ _______ _____ _____    ______ ____
ROOT
ATOM      1  C   UNL     1      35.735 -19.152 -22.254  0.00  0.00    -0.077 C 
ENDROOT
BRANCH   1   2
ATOM      2  N   UNL     1      35.630 -17.694 -22.293  0.00  0.00    +0.389 N 
ATOM      3  N   UNL     1      34.282 -15.178 -22.375  0.00  0.00    -0.311 N 
ATOM      4  C   UNL     1      34.945 -17.260 -23.515  0.00  0.00    -0.055 C 
ATOM      5  C   UNL     1      34.911 -17.198 -21.114  0.00  0.00    -0.055 C 
ATOM      6  C   UNL     1      34.844 -15.669 -21.113  0.00  0.00    +0.068 C 
ATOM      7  C   UNL     1      34.880 -15.733 -23.596  0.00  0.00    +0.068 C 
ATOM      8  H   UNL     1      36.575 -17.308 -22.290  0.00  0.00    -0.080 HD
BRANCH   3  11
ATOM      9 CL   UNL     1      32.202 -14.565 -20.307  0.00  0.00    -0.080 Cl
ATOM     10 CL   UNL     1      31.018 -11.590 -20.548  0.00  0.00    -0.081 Cl
ATOM     11  C   UNL     1      33.734 -13.892 -22.437  0.00  0.00    +0.059 C 
ATOM     12  C   UNL     1      32.755 -13.470 -21.536  0.00  0.00    +0.081 C 
ATOM     13  C   UNL     1      34.190 -13.024 -23.429  0.00  0.00    +0.015 C 
ATOM     14  C   UNL     1      32.232 -12.180 -21.629  0.00  0.00    +0.069 C 
ATOM     15  C   UNL     1      33.667 -11.734 -23.521  0.00  0.00    +0.002 C 
ATOM     16  C   UNL     1      32.688 -11.313 -22.622  0.00  0.00    +0.012 C 
ENDBRANCH   3  11
ENDBRANCH   1   2
BRANCH   1  17
ATOM     17  C   UNL     1      34.681 -19.737 -21.315  0.00  0.00    -0.019 C 
BRANCH  17  18
ATOM     18  C   UNL     1      35.319 -20.633 -20.256  0.00  0.00    +0.045 C 
BRANCH  18  19
ATOM     19  C   UNL     1      34.273 -21.445 -19.503  0.00  0.00    +0.205 C 
BRANCH  19  20
ATOM     20  O   UNL     1      34.908 -22.263 -18.529  0.00  0.00    -0.475 OA
BRANCH  20  24
ATOM     21  O   UNL     1      31.887 -23.846 -14.182  0.00  0.00    -0.464 OA
ATOM     22  O   UNL     1      28.570 -23.130 -15.425  0.00  0.00    -0.271 OA
ATOM     23  N   UNL     1      30.590 -22.823 -16.478  0.00  0.00    -0.278 N 
ATOM     24  C   UNL     1      34.143 -22.662 -17.464  0.00  0.00    +0.140 C 
ATOM     25  C   UNL     1      32.754 -22.552 -17.523  0.00  0.00    +0.055 C 
ATOM     26  C   UNL     1      31.981 -22.966 -16.437  0.00  0.00    +0.088 C 
ATOM     27  C   UNL     1      34.757 -23.173 -16.320  0.00  0.00    +0.040 C 
ATOM     28  C   UNL     1      32.591 -23.481 -15.295  0.00  0.00    +0.153 C 
ATOM     29  C   UNL     1      33.982 -23.576 -15.231  0.00  0.00    +0.041 C 
ATOM     30  C   UNL     1      30.522 -24.124 -14.426  0.00  0.00    +0.290 C 
ATOM     31  C   UNL     1      29.788 -23.293 -15.464  0.00  0.00    +0.271 C 
ATOM     32  H   UNL     1      30.176 -22.376 -17.251  0.00  0.00    +0.155 HD
ENDBRANCH  20  24
ENDBRANCH  19  20
ENDBRANCH  18  19
ENDBRANCH  17  18
ENDBRANCH   1  17
TORSDOF 7
ENDMDL
