MODEL 1
REMARK VINA RESULT:     -11.6      0.000      0.000
REMARK  Name = 46937030
REMARK  7 active torsions:
REMARK  status: ('A' for Active; 'I' for Inactive)
REMARK    1  A    between atoms: C_3  and  C_10
REMARK    2  A    between atoms: C_7  and  C_25
REMARK    3  A    between atoms: N_9  and  C_12
REMARK    4  A    between atoms: C_12  and  C_13
REMARK    5  A    between atoms: C_18  and  C_21
REMARK    6  A    between atoms: C_25  and  N_26
REMARK    7  A    between atoms: N_26  and  C_29
REMARK                            x       y       z     vdW  Elec       q    Type
REMARK                         _______ _______ _______ _____ _____    ______ ____
ROOT
ATOM      1  O   UNL     1      35.477 -25.410 -11.458  0.00  0.00    -0.277 OA
ATOM      2  N   UNL     1      36.168 -24.226 -13.318  0.00  0.00    -0.275 N 
ATOM      3  C   UNL     1      36.018 -23.185 -14.332  0.00  0.00    +0.152 C 
ATOM      4  C   UNL     1      37.447 -22.851 -14.749  0.00  0.00    +0.031 C 
ATOM      5  C   UNL     1      37.531 -24.740 -13.291  0.00  0.00    +0.094 C 
ATOM      6  C   UNL     1      38.196 -24.163 -14.530  0.00  0.00    +0.024 C 
ATOM      7  C   UNL     1      35.235 -24.619 -12.371  0.00  0.00    +0.204 C 
ENDROOT
BRANCH   3  10
ATOM      8  O   UNL     1      34.901 -24.943 -15.498  0.00  0.00    -0.273 OA
ATOM      9  N   UNL     1      35.030 -22.839 -16.485  0.00  0.00    -0.299 N 
ATOM     10  C   UNL     1      35.253 -23.766 -15.482  0.00  0.00    +0.241 C 
ATOM     11  H   UNL     1      35.362 -21.920 -16.357  0.00  0.00    +0.150 HD
BRANCH   9  12
ATOM     12  C   UNL     1      34.334 -23.152 -17.713  0.00  0.00    +0.116 C 
BRANCH  12  13
ATOM     13  C   UNL     1      34.500 -22.072 -18.744  0.00  0.00    -0.003 C 
ATOM     14  C   UNL     1      35.778 -21.677 -19.138  0.00  0.00    -0.003 C 
ATOM     15  C   UNL     1      33.376 -21.466 -19.305  0.00  0.00    -0.003 C 
ATOM     16  C   UNL     1      35.932 -20.674 -20.096  0.00  0.00    +0.002 C 
ATOM     17  C   UNL     1      33.531 -20.463 -20.263  0.00  0.00    +0.002 C 
ATOM     18  C   UNL     1      34.809 -20.068 -20.658  0.00  0.00    +0.031 C 
BRANCH  18  21
ATOM     19  N   UNL     1      34.712 -19.263 -23.005  0.00  0.00    -0.343 N 
ATOM     20  N   UNL     1      35.371 -17.818 -21.291  0.00  0.00    -0.285 NA
ATOM     21  C   UNL     1      34.969 -19.023 -21.657  0.00  0.00    +0.117 C 
ATOM     22  H   UNL     1      34.827 -18.541 -23.664  0.00  0.00    +0.144 HD
ATOM     23  H   UNL     1      34.415 -20.155 -23.299  0.00  0.00    +0.144 HD
ATOM     24  H   UNL     1      35.481 -17.110 -21.966  0.00  0.00    +0.188 HD
ENDBRANCH  18  21
ENDBRANCH  12  13
ENDBRANCH   9  12
ENDBRANCH   3  10
BRANCH   7  25
ATOM     25  C   UNL     1      33.860 -24.015 -12.505  0.00  0.00    +0.006 C 
BRANCH  25  26
ATOM     26  N   UNL     1      33.042 -24.977 -13.225  0.00  0.00    +0.391 N 
ATOM     27  H   UNL     1      33.344 -25.012 -14.199  0.00  0.00    -0.084 HD
ATOM     28  H   UNL     1      33.150 -25.893 -12.789  0.00  0.00    -0.084 HD
BRANCH  26  29
ATOM     29  C   UNL     1      31.628 -24.593 -13.174  0.00  0.00    -0.061 C 
ATOM     30  C   UNL     1      31.472 -23.089 -13.439  0.00  0.00    -0.021 C 
ATOM     31  C   UNL     1      30.822 -25.541 -14.074  0.00  0.00    -0.021 C 
ATOM     32  C   UNL     1      29.360 -25.142 -14.285  0.00  0.00    -0.002 C 
ATOM     33  C   UNL     1      31.914 -22.561 -14.804  0.00  0.00    -0.002 C 
ATOM     34  C   UNL     1      29.066 -24.511 -15.648  0.00  0.00    -0.000 C 
ATOM     35  C   UNL     1      31.168 -23.074 -16.035  0.00  0.00    -0.000 C 
ATOM     36  C   UNL     1      29.645 -23.116 -15.903  0.00  0.00    -0.000 C 
ENDBRANCH  26  29
ENDBRANCH  25  26
ENDBRANCH   7  25
TORSDOF 7
ENDMDL
MODEL 2
REMARK VINA RESULT:     -10.1      2.226      6.630
REMARK  Name = 46937030
REMARK  7 active torsions:
REMARK  status: ('A' for Active; 'I' for Inactive)
REMARK    1  A    between atoms: C_3  and  C_10
REMARK    2  A    between atoms: C_7  and  C_25
REMARK    3  A    between atoms: N_9  and  C_12
REMARK    4  A    between atoms: C_12  and  C_13
REMARK    5  A    between atoms: C_18  and  C_21
REMARK    6  A    between atoms: C_25  and  N_26
REMARK    7  A    between atoms: N_26  and  C_29
REMARK                            x       y       z     vdW  Elec       q    Type
REMARK                         _______ _______ _______ _____ _____    ______ ____
ROOT
ATOM      1  O   UNL     1      38.296 -22.475 -16.039  0.00  0.00    -0.277 OA
ATOM      2  N   UNL     1      37.267 -24.233 -14.950  0.00  0.00    -0.275 N 
ATOM      3  C   UNL     1      36.168 -25.173 -14.734  0.00  0.00    +0.152 C 
ATOM      4  C   UNL     1      36.829 -26.394 -14.102  0.00  0.00    +0.031 C 
ATOM      5  C   UNL     1      38.471 -24.667 -14.253  0.00  0.00    +0.094 C 
ATOM      6  C   UNL     1      38.019 -25.804 -13.350  0.00  0.00    +0.024 C 
ATOM      7  C   UNL     1      37.287 -23.144 -15.806  0.00  0.00    +0.204 C 
ENDROOT
BRANCH   3  10
ATOM      8  O   UNL     1      35.551 -23.682 -12.974  0.00  0.00    -0.273 OA
ATOM      9  N   UNL     1      33.922 -25.053 -13.915  0.00  0.00    -0.299 N 
ATOM     10  C   UNL     1      35.200 -24.540 -13.780  0.00  0.00    +0.241 C 
ATOM     11  H   UNL     1      33.762 -25.742 -14.600  0.00  0.00    +0.150 HD
BRANCH   9  12
ATOM     12  C   UNL     1      32.808 -24.628 -13.097  0.00  0.00    +0.116 C 
BRANCH  12  13
ATOM     13  C   UNL     1      31.588 -24.332 -13.920  0.00  0.00    -0.003 C 
ATOM     14  C   UNL     1      31.563 -23.211 -14.751  0.00  0.00    -0.003 C 
ATOM     15  C   UNL     1      30.480 -25.176 -13.854  0.00  0.00    -0.003 C 
ATOM     16  C   UNL     1      30.429 -22.935 -15.516  0.00  0.00    +0.002 C 
ATOM     17  C   UNL     1      29.346 -24.900 -14.620  0.00  0.00    +0.002 C 
ATOM     18  C   UNL     1      29.321 -23.780 -15.450  0.00  0.00    +0.031 C 
BRANCH  18  21
ATOM     19  N   UNL     1      27.338 -22.384 -15.984  0.00  0.00    -0.343 N 
ATOM     20  N   UNL     1      27.806 -24.296 -17.244  0.00  0.00    -0.285 NA
ATOM     21  C   UNL     1      28.140 -23.493 -16.248  0.00  0.00    +0.117 C 
ATOM     22  H   UNL     1      26.543 -22.209 -16.538  0.00  0.00    +0.144 HD
ATOM     23  H   UNL     1      27.568 -21.776 -15.245  0.00  0.00    +0.144 HD
ATOM     24  H   UNL     1      27.007 -24.104 -17.785  0.00  0.00    +0.188 HD
ENDBRANCH  18  21
ENDBRANCH  12  13
ENDBRANCH   9  12
ENDBRANCH   3  10
BRANCH   7  25
ATOM     25  C   UNL     1      35.977 -22.796 -16.467  0.00  0.00    +0.006 C 
BRANCH  25  26
ATOM     26  N   UNL     1      36.178 -21.542 -17.175  0.00  0.00    +0.391 N 
ATOM     27  H   UNL     1      35.438 -20.889 -16.916  0.00  0.00    -0.084 HD
ATOM     28  H   UNL     1      37.089 -21.162 -16.919  0.00  0.00    -0.084 HD
BRANCH  26  29
ATOM     29  C   UNL     1      36.146 -21.758 -18.625  0.00  0.00    -0.061 C 
ATOM     30  C   UNL     1      34.871 -22.512 -19.025  0.00  0.00    -0.021 C 
ATOM     31  C   UNL     1      36.410 -20.420 -19.332  0.00  0.00    -0.021 C 
ATOM     32  C   UNL     1      36.206 -20.442 -20.848  0.00  0.00    -0.002 C 
ATOM     33  C   UNL     1      33.530 -21.827 -18.758  0.00  0.00    -0.002 C 
ATOM     34  C   UNL     1      34.905 -19.788 -21.322  0.00  0.00    -0.000 C 
ATOM     35  C   UNL     1      33.245 -20.519 -19.494  0.00  0.00    -0.000 C 
ATOM     36  C   UNL     1      33.603 -20.517 -20.981  0.00  0.00    -0.000 C 
ENDBRANCH  26  29
ENDBRANCH  25  26
ENDBRANCH   7  25
TORSDOF 7
ENDMDL
MODEL 3
REMARK VINA RESULT:      -9.5      1.874      5.184
REMARK  Name = 46937030
REMARK  7 active torsions:
REMARK  status: ('A' for Active; 'I' for Inactive)
REMARK    1  A    between atoms: C_3  and  C_10
REMARK    2  A    between atoms: C_7  and  C_25
REMARK    3  A    between atoms: N_9  and  C_12
REMARK    4  A    between atoms: C_12  and  C_13
REMARK    5  A    between atoms: C_18  and  C_21
REMARK    6  A    between atoms: C_25  and  N_26
REMARK    7  A    between atoms: N_26  and  C_29
REMARK                            x       y       z     vdW  Elec       q    Type
REMARK                         _______ _______ _______ _____ _____    ______ ____
ROOT
ATOM      1  O   UNL     1      32.721 -23.838 -12.936  0.00  0.00    -0.277 OA
ATOM      2  N   UNL     1      33.150 -23.533 -15.186  0.00  0.00    -0.275 N 
ATOM      3  C   UNL     1      33.917 -23.752 -16.411  0.00  0.00    +0.152 C 
ATOM      4  C   UNL     1      32.905 -23.552 -17.535  0.00  0.00    +0.031 C 
ATOM      5  C   UNL     1      31.847 -22.950 -15.481  0.00  0.00    +0.094 C 
ATOM      6  C   UNL     1      31.914 -22.552 -16.946  0.00  0.00    +0.024 C 
ATOM      7  C   UNL     1      33.480 -23.937 -13.902  0.00  0.00    +0.204 C 
ENDROOT
BRANCH   3  10
ATOM      8  O   UNL     1      35.292 -22.027 -15.499  0.00  0.00    -0.273 OA
ATOM      9  N   UNL     1      35.558 -22.619 -17.735  0.00  0.00    -0.299 N 
ATOM     10  C   UNL     1      34.993 -22.711 -16.474  0.00  0.00    +0.241 C 
ATOM     11  H   UNL     1      35.234 -23.225 -18.440  0.00  0.00    +0.150 HD
BRANCH   9  12
ATOM     12  C   UNL     1      36.602 -21.676 -18.067  0.00  0.00    +0.116 C 
BRANCH  12  13
ATOM     13  C   UNL     1      36.260 -20.864 -19.283  0.00  0.00    -0.003 C 
ATOM     14  C   UNL     1      34.982 -20.942 -19.836  0.00  0.00    -0.003 C 
ATOM     15  C   UNL     1      37.221 -20.034 -19.861  0.00  0.00    -0.003 C 
ATOM     16  C   UNL     1      34.664 -20.189 -20.966  0.00  0.00    +0.002 C 
ATOM     17  C   UNL     1      36.903 -19.281 -20.991  0.00  0.00    +0.002 C 
ATOM     18  C   UNL     1      35.624 -19.358 -21.543  0.00  0.00    +0.031 C 
BRANCH  18  21
ATOM     19  N   UNL     1      35.704 -17.246 -22.846  0.00  0.00    -0.343 N 
ATOM     20  N   UNL     1      34.584 -19.112 -23.696  0.00  0.00    -0.285 NA
ATOM     21  C   UNL     1      35.293 -18.572 -22.721  0.00  0.00    +0.117 C 
ATOM     22  H   UNL     1      35.468 -16.732 -23.653  0.00  0.00    +0.144 HD
ATOM     23  H   UNL     1      36.230 -16.824 -22.130  0.00  0.00    +0.144 HD
ATOM     24  H   UNL     1      34.358 -18.582 -24.494  0.00  0.00    +0.188 HD
ENDBRANCH  18  21
ENDBRANCH  12  13
ENDBRANCH   9  12
ENDBRANCH   3  10
BRANCH   7  25
ATOM     25  C   UNL     1      34.857 -24.527 -13.727  0.00  0.00    +0.006 C 
BRANCH  25  26
ATOM     26  N   UNL     1      35.550 -23.706 -12.747  0.00  0.00    +0.391 N 
ATOM     27  H   UNL     1      35.024 -22.843 -12.601  0.00  0.00    -0.084 HD
ATOM     28  H   UNL     1      35.622 -24.226 -11.873  0.00  0.00    -0.084 HD
BRANCH  26  29
ATOM     29  C   UNL     1      36.899 -23.375 -13.214  0.00  0.00    -0.061 C 
ATOM     30  C   UNL     1      37.914 -23.538 -12.074  0.00  0.00    -0.021 C 
ATOM     31  C   UNL     1      37.182 -24.152 -14.509  0.00  0.00    -0.021 C 
ATOM     32  C   UNL     1      38.626 -24.069 -15.007  0.00  0.00    -0.002 C 
ATOM     33  C   UNL     1      38.097 -24.936 -11.483  0.00  0.00    -0.002 C 
ATOM     34  C   UNL     1      39.462 -25.323 -14.741  0.00  0.00    -0.000 C 
ATOM     35  C   UNL     1      38.635 -26.029 -12.406  0.00  0.00    -0.000 C 
ATOM     36  C   UNL     1      39.819 -25.617 -13.281  0.00  0.00    -0.000 C 
ENDBRANCH  26  29
ENDBRANCH  25  26
ENDBRANCH   7  25
TORSDOF 7
ENDMDL
MODEL 4
REMARK VINA RESULT:      -9.4      1.647      4.774
REMARK  Name = 46937030
REMARK  7 active torsions:
REMARK  status: ('A' for Active; 'I' for Inactive)
REMARK    1  A    between atoms: C_3  and  C_10
REMARK    2  A    between atoms: C_7  and  C_25
REMARK    3  A    between atoms: N_9  and  C_12
REMARK    4  A    between atoms: C_12  and  C_13
REMARK    5  A    between atoms: C_18  and  C_21
REMARK    6  A    between atoms: C_25  and  N_26
REMARK    7  A    between atoms: N_26  and  C_29
REMARK                            x       y       z     vdW  Elec       q    Type
REMARK                         _______ _______ _______ _____ _____    ______ ____
ROOT
ATOM      1  O   UNL     1      30.916 -24.360 -12.351  0.00  0.00    -0.277 OA
ATOM      2  N   UNL     1      31.182 -23.754 -14.565  0.00  0.00    -0.275 N 
ATOM      3  C   UNL     1      31.731 -23.924 -15.909  0.00  0.00    +0.152 C 
ATOM      4  C   UNL     1      30.706 -23.265 -16.826  0.00  0.00    +0.031 C 
ATOM      5  C   UNL     1      30.069 -22.814 -14.569  0.00  0.00    +0.094 C 
ATOM      6  C   UNL     1      30.094 -22.175 -15.948  0.00  0.00    +0.024 C 
ATOM      7  C   UNL     1      31.517 -24.464 -13.423  0.00  0.00    +0.204 C 
ENDROOT
BRANCH   3  10
ATOM      8  O   UNL     1      33.393 -22.422 -15.084  0.00  0.00    -0.273 OA
ATOM      9  N   UNL     1      33.751 -23.494 -17.119  0.00  0.00    -0.299 N 
ATOM     10  C   UNL     1      33.041 -23.198 -15.969  0.00  0.00    +0.241 C 
ATOM     11  H   UNL     1      33.364 -24.136 -17.758  0.00  0.00    +0.150 HD
BRANCH   9  12
ATOM     12  C   UNL     1      35.036 -22.908 -17.429  0.00  0.00    +0.116 C 
BRANCH  12  13
ATOM     13  C   UNL     1      34.947 -21.926 -18.562  0.00  0.00    -0.003 C 
ATOM     14  C   UNL     1      36.112 -21.417 -19.136  0.00  0.00    -0.003 C 
ATOM     15  C   UNL     1      33.700 -21.522 -19.038  0.00  0.00    -0.003 C 
ATOM     16  C   UNL     1      36.029 -20.505 -20.188  0.00  0.00    +0.002 C 
ATOM     17  C   UNL     1      33.617 -20.609 -20.090  0.00  0.00    +0.002 C 
ATOM     18  C   UNL     1      34.782 -20.101 -20.665  0.00  0.00    +0.031 C 
BRANCH  18  21
ATOM     19  N   UNL     1      34.995 -17.802 -21.578  0.00  0.00    -0.343 N 
ATOM     20  N   UNL     1      34.323 -19.561 -22.962  0.00  0.00    -0.285 NA
ATOM     21  C   UNL     1      34.696 -19.151 -21.762  0.00  0.00    +0.117 C 
ATOM     22  H   UNL     1      34.930 -17.176 -22.335  0.00  0.00    +0.144 HD
ATOM     23  H   UNL     1      35.272 -17.476 -20.692  0.00  0.00    +0.144 HD
ATOM     24  H   UNL     1      34.263 -18.919 -23.705  0.00  0.00    +0.188 HD
ENDBRANCH  18  21
ENDBRANCH  12  13
ENDBRANCH   9  12
ENDBRANCH   3  10
BRANCH   7  25
ATOM     25  C   UNL     1      32.687 -25.406 -13.547  0.00  0.00    +0.006 C 
BRANCH  25  26
ATOM     26  N   UNL     1      33.654 -25.019 -12.533  0.00  0.00    +0.391 N 
ATOM     27  H   UNL     1      33.212 -24.375 -11.877  0.00  0.00    -0.084 HD
ATOM     28  H   UNL     1      33.973 -25.856 -12.045  0.00  0.00    -0.084 HD
BRANCH  26  29
ATOM     29  C   UNL     1      34.811 -24.361 -13.149  0.00  0.00    -0.061 C 
ATOM     30  C   UNL     1      35.796 -23.892 -12.070  0.00  0.00    -0.021 C 
ATOM     31  C   UNL     1      35.373 -25.272 -14.251  0.00  0.00    -0.021 C 
ATOM     32  C   UNL     1      36.705 -24.815 -14.847  0.00  0.00    -0.002 C 
ATOM     33  C   UNL     1      36.447 -24.961 -11.192  0.00  0.00    -0.002 C 
ATOM     34  C   UNL     1      37.923 -25.604 -14.359  0.00  0.00    -0.000 C 
ATOM     35  C   UNL     1      37.351 -25.985 -11.877  0.00  0.00    -0.000 C 
ATOM     36  C   UNL     1      38.333 -25.406 -12.898  0.00  0.00    -0.000 C 
ENDBRANCH  26  29
ENDBRANCH  25  26
ENDBRANCH   7  25
TORSDOF 7
ENDMDL
MODEL 5
REMARK VINA RESULT:      -9.1      7.419     12.273
REMARK  Name = 46937030
REMARK  7 active torsions:
REMARK  status: ('A' for Active; 'I' for Inactive)
REMARK    1  A    between atoms: C_3  and  C_10
REMARK    2  A    between atoms: C_7  and  C_25
REMARK    3  A    between atoms: N_9  and  C_12
REMARK    4  A    between atoms: C_12  and  C_13
REMARK    5  A    between atoms: C_18  and  C_21
REMARK    6  A    between atoms: C_25  and  N_26
REMARK    7  A    between atoms: N_26  and  C_29
REMARK                            x       y       z     vdW  Elec       q    Type
REMARK                         _______ _______ _______ _____ _____    ______ ____
ROOT
ATOM      1  O   UNL     1      34.549 -17.657 -25.005  0.00  0.00    -0.277 OA
ATOM      2  N   UNL     1      34.160 -15.401 -24.697  0.00  0.00    -0.275 N 
ATOM      3  C   UNL     1      34.402 -14.109 -24.056  0.00  0.00    +0.152 C 
ATOM      4  C   UNL     1      33.993 -13.080 -25.105  0.00  0.00    +0.031 C 
ATOM      5  C   UNL     1      33.386 -15.241 -25.920  0.00  0.00    +0.094 C 
ATOM      6  C   UNL     1      32.906 -13.799 -25.901  0.00  0.00    +0.024 C 
ATOM      7  C   UNL     1      34.688 -16.631 -24.337  0.00  0.00    +0.204 C 
ENDROOT
BRANCH   3  10
ATOM      8  O   UNL     1      33.407 -14.947 -22.054  0.00  0.00    -0.273 OA
ATOM      9  N   UNL     1      32.854 -12.805 -22.778  0.00  0.00    -0.299 N 
ATOM     10  C   UNL     1      33.516 -14.018 -22.850  0.00  0.00    +0.241 C 
ATOM     11  H   UNL     1      33.024 -12.135 -23.479  0.00  0.00    +0.150 HD
BRANCH   9  12
ATOM     12  C   UNL     1      31.922 -12.473 -21.724  0.00  0.00    +0.116 C 
BRANCH  12  13
ATOM     13  C   UNL     1      32.033 -11.034 -21.308  0.00  0.00    -0.003 C 
ATOM     14  C   UNL     1      32.320 -10.055 -22.259  0.00  0.00    -0.003 C 
ATOM     15  C   UNL     1      31.851 -10.678 -19.972  0.00  0.00    -0.003 C 
ATOM     16  C   UNL     1      32.424  -8.718 -21.874  0.00  0.00    +0.002 C 
ATOM     17  C   UNL     1      31.954  -9.341 -19.587  0.00  0.00    +0.002 C 
ATOM     18  C   UNL     1      32.240  -8.362 -20.537  0.00  0.00    +0.031 C 
BRANCH  18  21
ATOM     19  N   UNL     1      31.602  -5.973 -20.764  0.00  0.00    -0.343 N 
ATOM     20  N   UNL     1      33.168  -6.626 -19.158  0.00  0.00    -0.285 NA
ATOM     21  C   UNL     1      32.347  -6.968 -20.135  0.00  0.00    +0.117 C 
ATOM     22  H   UNL     1      31.690  -5.036 -20.475  0.00  0.00    +0.144 HD
ATOM     23  H   UNL     1      30.987  -6.207 -21.497  0.00  0.00    +0.144 HD
ATOM     24  H   UNL     1      33.242  -5.683 -18.885  0.00  0.00    +0.188 HD
ENDBRANCH  18  21
ENDBRANCH  12  13
ENDBRANCH   9  12
ENDBRANCH   3  10
BRANCH   7  25
ATOM     25  C   UNL     1      35.471 -16.665 -23.049  0.00  0.00    +0.006 C 
BRANCH  25  26
ATOM     26  N   UNL     1      34.641 -17.341 -22.065  0.00  0.00    +0.391 N 
ATOM     27  H   UNL     1      34.863 -16.982 -21.136  0.00  0.00    -0.084 HD
ATOM     28  H   UNL     1      33.661 -17.166 -22.286  0.00  0.00    -0.084 HD
BRANCH  26  29
ATOM     29  C   UNL     1      34.882 -18.787 -22.094  0.00  0.00    -0.061 C 
ATOM     30  C   UNL     1      36.368 -19.077 -22.344  0.00  0.00    -0.021 C 
ATOM     31  C   UNL     1      34.255 -19.420 -20.842  0.00  0.00    -0.021 C 
ATOM     32  C   UNL     1      34.598 -20.895 -20.626  0.00  0.00    -0.002 C 
ATOM     33  C   UNL     1      37.371 -18.590 -21.297  0.00  0.00    -0.002 C 
ATOM     34  C   UNL     1      35.645 -21.149 -19.538  0.00  0.00    -0.000 C 
ATOM     35  C   UNL     1      37.271 -19.184 -19.893  0.00  0.00    -0.000 C 
ATOM     36  C   UNL     1      37.077 -20.700 -19.839  0.00  0.00    -0.000 C 
ENDBRANCH  26  29
ENDBRANCH  25  26
ENDBRANCH   7  25
TORSDOF 7
ENDMDL
MODEL 6
REMARK VINA RESULT:      -9.1     11.317     15.786
REMARK  Name = 46937030
REMARK  7 active torsions:
REMARK  status: ('A' for Active; 'I' for Inactive)
REMARK    1  A    between atoms: C_3  and  C_10
REMARK    2  A    between atoms: C_7  and  C_25
REMARK    3  A    between atoms: N_9  and  C_12
REMARK    4  A    between atoms: C_12  and  C_13
REMARK    5  A    between atoms: C_18  and  C_21
REMARK    6  A    between atoms: C_25  and  N_26
REMARK    7  A    between atoms: N_26  and  C_29
REMARK                            x       y       z     vdW  Elec       q    Type
REMARK                         _______ _______ _______ _____ _____    ______ ____
ROOT
ATOM      1  O   UNL     1      31.957 -11.593 -19.415  0.00  0.00    -0.277 OA
ATOM      2  N   UNL     1      31.949  -9.594 -20.573  0.00  0.00    -0.275 N 
ATOM      3  C   UNL     1      31.678  -8.765 -21.746  0.00  0.00    +0.152 C 
ATOM      4  C   UNL     1      31.477  -7.361 -21.184  0.00  0.00    +0.031 C 
ATOM      5  C   UNL     1      32.203  -8.770 -19.398  0.00  0.00    +0.094 C 
ATOM      6  C   UNL     1      32.348  -7.354 -19.930  0.00  0.00    +0.024 C 
ATOM      7  C   UNL     1      31.845 -10.972 -20.474  0.00  0.00    +0.204 C 
ENDROOT
BRANCH   3  10
ATOM      8  O   UNL     1      33.211  -9.835 -23.231  0.00  0.00    -0.273 OA
ATOM      9  N   UNL     1      33.560  -7.605 -22.664  0.00  0.00    -0.299 N 
ATOM     10  C   UNL     1      32.885  -8.813 -22.634  0.00  0.00    +0.241 C 
ATOM     11  H   UNL     1      33.200  -6.852 -22.141  0.00  0.00    +0.150 HD
BRANCH   9  12
ATOM     12  C   UNL     1      34.770  -7.393 -23.427  0.00  0.00    +0.116 C 
BRANCH  12  13
ATOM     13  C   UNL     1      34.595  -6.331 -24.474  0.00  0.00    -0.003 C 
ATOM     14  C   UNL     1      33.365  -5.688 -24.616  0.00  0.00    -0.003 C 
ATOM     15  C   UNL     1      35.662  -5.987 -25.305  0.00  0.00    -0.003 C 
ATOM     16  C   UNL     1      33.201  -4.702 -25.589  0.00  0.00    +0.002 C 
ATOM     17  C   UNL     1      35.498  -5.000 -26.277  0.00  0.00    +0.002 C 
ATOM     18  C   UNL     1      34.269  -4.358 -26.419  0.00  0.00    +0.031 C 
BRANCH  18  21
ATOM     19  N   UNL     1      33.924  -3.656 -28.775  0.00  0.00    -0.343 N 
ATOM     20  N   UNL     1      34.115  -2.053 -27.085  0.00  0.00    -0.285 NA
ATOM     21  C   UNL     1      34.099  -3.329 -27.432  0.00  0.00    +0.117 C 
ATOM     22  H   UNL     1      33.811  -2.942 -29.445  0.00  0.00    +0.144 HD
ATOM     23  H   UNL     1      33.912  -4.599 -29.055  0.00  0.00    +0.144 HD
ATOM     24  H   UNL     1      34.001  -1.355 -27.770  0.00  0.00    +0.188 HD
ENDBRANCH  18  21
ENDBRANCH  12  13
ENDBRANCH   9  12
ENDBRANCH   3  10
BRANCH   7  25
ATOM     25  C   UNL     1      31.579 -11.711 -21.761  0.00  0.00    +0.006 C 
BRANCH  25  26
ATOM     26  N   UNL     1      32.015 -13.083 -21.562  0.00  0.00    +0.391 N 
ATOM     27  H   UNL     1      32.099 -13.266 -20.561  0.00  0.00    -0.084 HD
ATOM     28  H   UNL     1      31.328 -13.711 -21.978  0.00  0.00    -0.084 HD
BRANCH  26  29
ATOM     29  C   UNL     1      33.314 -13.310 -22.204  0.00  0.00    -0.061 C 
ATOM     30  C   UNL     1      34.371 -13.684 -21.156  0.00  0.00    -0.021 C 
ATOM     31  C   UNL     1      33.125 -14.286 -23.375  0.00  0.00    -0.021 C 
ATOM     32  C   UNL     1      34.423 -14.780 -24.017  0.00  0.00    -0.002 C 
ATOM     33  C   UNL     1      34.158 -14.974 -20.364  0.00  0.00    -0.002 C 
ATOM     34  C   UNL     1      34.818 -16.207 -23.631  0.00  0.00    -0.000 C 
ATOM     35  C   UNL     1      34.155 -16.289 -21.143  0.00  0.00    -0.000 C 
ATOM     36  C   UNL     1      35.267 -16.431 -22.184  0.00  0.00    -0.000 C 
ENDBRANCH  26  29
ENDBRANCH  25  26
ENDBRANCH   7  25
TORSDOF 7
ENDMDL
MODEL 7
REMARK VINA RESULT:      -9.0      2.543      6.799
REMARK  Name = 46937030
REMARK  7 active torsions:
REMARK  status: ('A' for Active; 'I' for Inactive)
REMARK    1  A    between atoms: C_3  and  C_10
REMARK    2  A    between atoms: C_7  and  C_25
REMARK    3  A    between atoms: N_9  and  C_12
REMARK    4  A    between atoms: C_12  and  C_13
REMARK    5  A    between atoms: C_18  and  C_21
REMARK    6  A    between atoms: C_25  and  N_26
REMARK    7  A    between atoms: N_26  and  C_29
REMARK                            x       y       z     vdW  Elec       q    Type
REMARK                         _______ _______ _______ _____ _____    ______ ____
ROOT
ATOM      1  O   UNL     1      32.378 -21.274 -18.717  0.00  0.00    -0.277 OA
ATOM      2  N   UNL     1      34.535 -21.129 -19.530  0.00  0.00    -0.275 N 
ATOM      3  C   UNL     1      35.903 -21.616 -19.698  0.00  0.00    +0.152 C 
ATOM      4  C   UNL     1      36.364 -21.010 -21.020  0.00  0.00    +0.031 C 
ATOM      5  C   UNL     1      34.236 -20.069 -20.484  0.00  0.00    +0.094 C 
ATOM      6  C   UNL     1      35.574 -19.707 -21.107  0.00  0.00    +0.024 C 
ATOM      7  C   UNL     1      33.551 -21.652 -18.707  0.00  0.00    +0.204 C 
ENDROOT
BRANCH   3  10
ATOM      8  O   UNL     1      37.303 -20.009 -18.622  0.00  0.00    -0.273 OA
ATOM      9  N   UNL     1      36.754 -21.966 -17.488  0.00  0.00    -0.299 N 
ATOM     10  C   UNL     1      36.724 -21.090 -18.559  0.00  0.00    +0.241 C 
ATOM     11  H   UNL     1      36.246 -22.807 -17.555  0.00  0.00    +0.150 HD
BRANCH   9  12
ATOM     12  C   UNL     1      37.494 -21.706 -16.273  0.00  0.00    +0.116 C 
BRANCH  12  13
ATOM     13  C   UNL     1      37.367 -22.831 -15.287  0.00  0.00    -0.003 C 
ATOM     14  C   UNL     1      36.303 -22.850 -14.385  0.00  0.00    -0.003 C 
ATOM     15  C   UNL     1      38.313 -23.856 -15.272  0.00  0.00    -0.003 C 
ATOM     16  C   UNL     1      36.185 -23.894 -13.467  0.00  0.00    +0.002 C 
ATOM     17  C   UNL     1      38.195 -24.900 -14.354  0.00  0.00    +0.002 C 
ATOM     18  C   UNL     1      37.131 -24.920 -13.453  0.00  0.00    +0.031 C 
BRANCH  18  21
ATOM     19  N   UNL     1      37.143 -27.339 -12.893  0.00  0.00    -0.343 N 
ATOM     20  N   UNL     1      36.758 -25.746 -11.227  0.00  0.00    -0.285 NA
ATOM     21  C   UNL     1      37.008 -26.009 -12.498  0.00  0.00    +0.117 C 
ATOM     22  H   UNL     1      37.056 -28.061 -12.229  0.00  0.00    +0.144 HD
ATOM     23  H   UNL     1      37.325 -27.556 -13.836  0.00  0.00    +0.144 HD
ATOM     24  H   UNL     1      36.674 -26.483 -10.579  0.00  0.00    +0.188 HD
ENDBRANCH  18  21
ENDBRANCH  12  13
ENDBRANCH   9  12
ENDBRANCH   3  10
BRANCH   7  25
ATOM     25  C   UNL     1      33.986 -22.746 -17.765  0.00  0.00    +0.006 C 
BRANCH  25  26
ATOM     26  N   UNL     1      32.783 -23.430 -17.322  0.00  0.00    +0.391 N 
ATOM     27  H   UNL     1      31.999 -23.143 -17.909  0.00  0.00    -0.084 HD
ATOM     28  H   UNL     1      32.930 -24.436 -17.396  0.00  0.00    -0.084 HD
BRANCH  26  29
ATOM     29  C   UNL     1      32.485 -23.097 -15.925  0.00  0.00    -0.061 C 
ATOM     30  C   UNL     1      31.002 -22.739 -15.765  0.00  0.00    -0.021 C 
ATOM     31  C   UNL     1      33.029 -24.214 -15.022  0.00  0.00    -0.021 C 
ATOM     32  C   UNL     1      32.617 -24.112 -13.552  0.00  0.00    -0.002 C 
ATOM     33  C   UNL     1      29.973 -23.826 -16.077  0.00  0.00    -0.002 C 
ATOM     34  C   UNL     1      31.512 -25.086 -13.134  0.00  0.00    -0.000 C 
ATOM     35  C   UNL     1      29.984 -25.081 -15.207  0.00  0.00    -0.000 C 
ATOM     36  C   UNL     1      30.115 -24.831 -13.704  0.00  0.00    -0.000 C 
ENDBRANCH  26  29
ENDBRANCH  25  26
ENDBRANCH   7  25
TORSDOF 7
ENDMDL
MODEL 8
REMARK VINA RESULT:      -8.9      5.790      9.982
REMARK  Name = 46937030
REMARK  7 active torsions:
REMARK  status: ('A' for Active; 'I' for Inactive)
REMARK    1  A    between atoms: C_3  and  C_10
REMARK    2  A    between atoms: C_7  and  C_25
REMARK    3  A    between atoms: N_9  and  C_12
REMARK    4  A    between atoms: C_12  and  C_13
REMARK    5  A    between atoms: C_18  and  C_21
REMARK    6  A    between atoms: C_25  and  N_26
REMARK    7  A    between atoms: N_26  and  C_29
REMARK                            x       y       z     vdW  Elec       q    Type
REMARK                         _______ _______ _______ _____ _____    ______ ____
ROOT
ATOM      1  O   UNL     1      34.981 -19.867 -23.512  0.00  0.00    -0.277 OA
ATOM      2  N   UNL     1      35.065 -17.570 -23.280  0.00  0.00    -0.275 N 
ATOM      3  C   UNL     1      35.544 -16.336 -22.658  0.00  0.00    +0.152 C 
ATOM      4  C   UNL     1      35.413 -15.282 -23.752  0.00  0.00    +0.031 C 
ATOM      5  C   UNL     1      34.402 -17.293 -24.548  0.00  0.00    +0.094 C 
ATOM      6  C   UNL     1      34.239 -15.783 -24.589  0.00  0.00    +0.024 C 
ATOM      7  C   UNL     1      35.302 -18.870 -22.862  0.00  0.00    +0.204 C 
ENDROOT
BRANCH   3  10
ATOM      8  O   UNL     1      34.748 -16.586 -20.421  0.00  0.00    -0.273 OA
ATOM      9  N   UNL     1      33.698 -15.058 -21.828  0.00  0.00    -0.299 N 
ATOM     10  C   UNL     1      34.640 -16.019 -21.505  0.00  0.00    +0.241 C 
ATOM     11  H   UNL     1      33.711 -14.673 -22.735  0.00  0.00    +0.150 HD
BRANCH   9  12
ATOM     12  C   UNL     1      32.693 -14.590 -20.900  0.00  0.00    +0.116 C 
BRANCH  12  13
ATOM     13  C   UNL     1      32.451 -13.114 -21.031  0.00  0.00    -0.003 C 
ATOM     14  C   UNL     1      31.906 -12.400 -19.963  0.00  0.00    -0.003 C 
ATOM     15  C   UNL     1      32.769 -12.458 -22.219  0.00  0.00    -0.003 C 
ATOM     16  C   UNL     1      31.681 -11.029 -20.084  0.00  0.00    +0.002 C 
ATOM     17  C   UNL     1      32.543 -11.086 -22.340  0.00  0.00    +0.002 C 
ATOM     18  C   UNL     1      32.000 -10.372 -21.272  0.00  0.00    +0.031 C 
BRANCH  18  21
ATOM     19  N   UNL     1      31.336  -8.382 -22.600  0.00  0.00    -0.343 N 
ATOM     20  N   UNL     1      31.964  -8.148 -20.362  0.00  0.00    -0.285 NA
ATOM     21  C   UNL     1      31.765  -8.943 -21.399  0.00  0.00    +0.117 C 
ATOM     22  H   UNL     1      31.184  -7.411 -22.663  0.00  0.00    +0.144 HD
ATOM     23  H   UNL     1      31.186  -8.956 -23.385  0.00  0.00    +0.144 HD
ATOM     24  H   UNL     1      31.807  -7.180 -20.445  0.00  0.00    +0.188 HD
ENDBRANCH  18  21
ENDBRANCH  12  13
ENDBRANCH   9  12
ENDBRANCH   3  10
BRANCH   7  25
ATOM     25  C   UNL     1      35.997 -19.023 -21.533  0.00  0.00    +0.006 C 
BRANCH  25  26
ATOM     26  N   UNL     1      34.967 -19.296 -20.544  0.00  0.00    +0.391 N 
ATOM     27  H   UNL     1      35.267 -18.936 -19.638  0.00  0.00    -0.084 HD
ATOM     28  H   UNL     1      34.102 -18.840 -20.835  0.00  0.00    -0.084 HD
BRANCH  26  29
ATOM     29  C   UNL     1      34.727 -20.738 -20.434  0.00  0.00    -0.061 C 
ATOM     30  C   UNL     1      36.038 -21.477 -20.132  0.00  0.00    -0.021 C 
ATOM     31  C   UNL     1      33.559 -20.975 -19.465  0.00  0.00    -0.021 C 
ATOM     32  C   UNL     1      33.322 -22.439 -19.088  0.00  0.00    -0.002 C 
ATOM     33  C   UNL     1      36.746 -21.153 -18.816  0.00  0.00    -0.002 C 
ATOM     34  C   UNL     1      33.818 -22.823 -17.692  0.00  0.00    -0.000 C 
ATOM     35  C   UNL     1      36.010 -21.483 -17.518  0.00  0.00    -0.000 C 
ATOM     36  C   UNL     1      35.334 -22.854 -17.482  0.00  0.00    -0.000 C 
ENDBRANCH  26  29
ENDBRANCH  25  26
ENDBRANCH   7  25
TORSDOF 7
ENDMDL
MODEL 9
REMARK VINA RESULT:      -8.9      7.334     13.015
REMARK  Name = 46937030
REMARK  7 active torsions:
REMARK  status: ('A' for Active; 'I' for Inactive)
REMARK    1  A    between atoms: C_3  and  C_10
REMARK    2  A    between atoms: C_7  and  C_25
REMARK    3  A    between atoms: N_9  and  C_12
REMARK    4  A    between atoms: C_12  and  C_13
REMARK    5  A    between atoms: C_18  and  C_21
REMARK    6  A    between atoms: C_25  and  N_26
REMARK    7  A    between atoms: N_26  and  C_29
REMARK                            x       y       z     vdW  Elec       q    Type
REMARK                         _______ _______ _______ _____ _____    ______ ____
ROOT
ATOM      1  O   UNL     1      31.715 -12.526 -22.835  0.00  0.00    -0.277 OA
ATOM      2  N   UNL     1      33.218 -13.833 -21.665  0.00  0.00    -0.275 N 
ATOM      3  C   UNL     1      34.566 -14.284 -21.320  0.00  0.00    +0.152 C 
ATOM      4  C   UNL     1      34.443 -14.792 -19.887  0.00  0.00    +0.031 C 
ATOM      5  C   UNL     1      32.247 -14.280 -20.674  0.00  0.00    +0.094 C 
ATOM      6  C   UNL     1      32.997 -15.276 -19.805  0.00  0.00    +0.024 C 
ATOM      7  C   UNL     1      32.855 -12.971 -22.687  0.00  0.00    +0.204 C 
ENDROOT
BRANCH   3  10
ATOM      8  O   UNL     1      35.136 -15.210 -23.445  0.00  0.00    -0.273 OA
ATOM      9  N   UNL     1      34.979 -16.625 -21.603  0.00  0.00    -0.299 N 
ATOM     10  C   UNL     1      34.931 -15.402 -22.249  0.00  0.00    +0.241 C 
ATOM     11  H   UNL     1      34.796 -16.652 -20.636  0.00  0.00    +0.150 HD
BRANCH   9  12
ATOM     12  C   UNL     1      35.286 -17.865 -22.278  0.00  0.00    +0.116 C 
BRANCH  12  13
ATOM     13  C   UNL     1      35.190 -19.046 -21.356  0.00  0.00    -0.003 C 
ATOM     14  C   UNL     1      33.939 -19.557 -21.007  0.00  0.00    -0.003 C 
ATOM     15  C   UNL     1      36.349 -19.631 -20.848  0.00  0.00    -0.003 C 
ATOM     16  C   UNL     1      33.849 -20.654 -20.149  0.00  0.00    +0.002 C 
ATOM     17  C   UNL     1      36.259 -20.728 -19.990  0.00  0.00    +0.002 C 
ATOM     18  C   UNL     1      35.009 -21.240 -19.642  0.00  0.00    +0.031 C 
BRANCH  18  21
ATOM     19  N   UNL     1      34.043 -23.438 -19.011  0.00  0.00    -0.343 N 
ATOM     20  N   UNL     1      35.664 -22.433 -17.661  0.00  0.00    -0.285 NA
ATOM     21  C   UNL     1      34.915 -22.383 -18.749  0.00  0.00    +0.117 C 
ATOM     22  H   UNL     1      33.996 -24.203 -18.393  0.00  0.00    +0.144 HD
ATOM     23  H   UNL     1      33.474 -23.419 -19.814  0.00  0.00    +0.144 HD
ATOM     24  H   UNL     1      35.601 -23.207 -17.055  0.00  0.00    +0.188 HD
ENDBRANCH  18  21
ENDBRANCH  12  13
ENDBRANCH   9  12
ENDBRANCH   3  10
BRANCH   7  25
ATOM     25  C   UNL     1      33.951 -12.581 -23.646  0.00  0.00    +0.006 C 
BRANCH  25  26
ATOM     26  N   UNL     1      34.559 -11.367 -23.126  0.00  0.00    +0.391 N 
ATOM     27  H   UNL     1      34.191 -11.180 -22.193  0.00  0.00    -0.084 HD
ATOM     28  H   UNL     1      35.570 -11.497 -23.086  0.00  0.00    -0.084 HD
BRANCH  26  29
ATOM     29  C   UNL     1      34.262 -10.227 -23.999  0.00  0.00    -0.061 C 
ATOM     30  C   UNL     1      32.912  -9.603 -23.623  0.00  0.00    -0.021 C 
ATOM     31  C   UNL     1      35.478  -9.288 -24.021  0.00  0.00    -0.021 C 
ATOM     32  C   UNL     1      35.245  -7.950 -24.726  0.00  0.00    -0.002 C 
ATOM     33  C   UNL     1      32.777  -8.999 -22.224  0.00  0.00    -0.002 C 
ATOM     34  C   UNL     1      35.055  -6.761 -23.781  0.00  0.00    -0.000 C 
ATOM     35  C   UNL     1      33.667  -7.806 -21.880  0.00  0.00    -0.000 C 
ATOM     36  C   UNL     1      33.762  -6.730 -22.962  0.00  0.00    -0.000 C 
ENDBRANCH  26  29
ENDBRANCH  25  26
ENDBRANCH   7  25
TORSDOF 7
ENDMDL
