MODEL 1
REMARK VINA RESULT:     -12.1      0.000      0.000
REMARK  Name = 25118925
REMARK  3 active torsions:
REMARK  status: ('A' for Active; 'I' for Inactive)
REMARK    1  A    between atoms: C_3  and  C_12
REMARK    2  A    between atoms: C_5  and  C_24
REMARK    3  A    between atoms: C_27  and  C_33
REMARK                            x       y       z     vdW  Elec       q    Type
REMARK                         _______ _______ _______ _____ _____    ______ ____
ROOT
ATOM      1  N   UNL     1      34.664 -16.333 -24.095  0.00  0.00    -0.279 N 
ATOM      2  N   UNL     1      34.389 -16.405 -21.892  0.00  0.00    -0.394 NA
ATOM      3  C   UNL     1      34.160 -15.713 -22.986  0.00  0.00    +0.160 C 
ATOM      4  C   UNL     1      35.253 -17.496 -23.682  0.00  0.00    +0.152 C 
ATOM      5  C   UNL     1      35.071 -17.518 -22.320  0.00  0.00    +0.130 C 
ATOM      6  C   UNL     1      34.597 -15.862 -25.458  0.00  0.00    +0.115 C 
ENDROOT
BRANCH   3  12
ATOM      7  N   UNL     1      32.835 -11.663 -22.280  0.00  0.00    -0.296 N 
ATOM      8  N   UNL     1      32.365  -9.423 -22.956  0.00  0.00    -0.233 NA
ATOM      9  N   UNL     1      31.955  -8.456 -19.073  0.00  0.00    -0.223 N 
ATOM     10  N   UNL     1      31.887  -7.647 -21.354  0.00  0.00    -0.232 NA
ATOM     11  N   UNL     1      32.178  -9.595 -18.391  0.00  0.00    -0.183 NA
ATOM     12  C   UNL     1      33.431 -14.385 -23.064  0.00  0.00    +0.070 C 
ATOM     13  C   UNL     1      34.378 -13.224 -23.400  0.00  0.00    +0.030 C 
ATOM     14  C   UNL     1      32.669 -14.067 -21.769  0.00  0.00    +0.030 C 
ATOM     15  C   UNL     1      33.620 -11.901 -23.500  0.00  0.00    +0.092 C 
ATOM     16  C   UNL     1      31.922 -12.736 -21.872  0.00  0.00    +0.092 C 
ATOM     17  C   UNL     1      32.522 -10.335 -21.966  0.00  0.00    +0.118 C 
ATOM     18  C   UNL     1      32.364  -9.932 -20.644  0.00  0.00    +0.152 C 
ATOM     19  C   UNL     1      32.055  -8.601 -20.425  0.00  0.00    +0.133 C 
ATOM     20  C   UNL     1      32.426 -10.490 -19.354  0.00  0.00    +0.105 C 
ATOM     21  C   UNL     1      32.062  -8.154 -22.593  0.00  0.00    +0.252 C 
ATOM     22  H   UNL     1      31.741  -7.600 -18.637  0.00  0.00    +0.176 HD
ENDBRANCH   3  12
BRANCH   5  24
ATOM     23  F   UNL     1      36.858 -21.557 -18.942  0.00  0.00    -0.204 F 
ATOM     24  C   UNL     1      35.527 -18.557 -21.450  0.00  0.00    +0.027 C 
ATOM     25  C   UNL     1      34.628 -19.507 -20.965  0.00  0.00    +0.008 C 
ATOM     26  C   UNL     1      36.873 -18.623 -21.089  0.00  0.00    +0.005 C 
ATOM     27  C   UNL     1      35.074 -20.521 -20.118  0.00  0.00    +0.099 C 
ATOM     28  C   UNL     1      37.320 -19.636 -20.242  0.00  0.00    +0.030 C 
ATOM     29  C   UNL     1      36.420 -20.586 -19.756  0.00  0.00    +0.144 C 
BRANCH  27  33
ATOM     30  F   UNL     1      34.498 -22.824 -19.830  0.00  0.00    -0.166 F 
ATOM     31  F   UNL     1      33.912 -21.459 -18.250  0.00  0.00    -0.166 F 
ATOM     32  F   UNL     1      32.873 -21.419 -20.161  0.00  0.00    -0.166 F 
ATOM     33  C   UNL     1      34.111 -21.535 -19.599  0.00  0.00    +0.421 C 
ENDBRANCH  27  33
ENDBRANCH   5  24
TORSDOF 3
ENDMDL
MODEL 2
REMARK VINA RESULT:     -12.1      3.510      6.348
REMARK  Name = 25118925
REMARK  3 active torsions:
REMARK  status: ('A' for Active; 'I' for Inactive)
REMARK    1  A    between atoms: C_3  and  C_12
REMARK    2  A    between atoms: C_5  and  C_24
REMARK    3  A    between atoms: C_27  and  C_33
REMARK                            x       y       z     vdW  Elec       q    Type
REMARK                         _______ _______ _______ _____ _____    ______ ____
ROOT
ATOM      1  N   UNL     1      31.860 -11.473 -21.142  0.00  0.00    -0.279 N 
ATOM      2  N   UNL     1      33.152 -11.461 -22.949  0.00  0.00    -0.394 NA
ATOM      3  C   UNL     1      32.498 -10.716 -22.085  0.00  0.00    +0.160 C 
ATOM      4  C   UNL     1      32.124 -12.785 -21.423  0.00  0.00    +0.152 C 
ATOM      5  C   UNL     1      32.923 -12.752 -22.541  0.00  0.00    +0.130 C 
ATOM      6  C   UNL     1      31.051 -10.993 -20.047  0.00  0.00    +0.115 C 
ENDROOT
BRANCH   3  12
ATOM      7  N   UNL     1      32.265  -6.579 -23.305  0.00  0.00    -0.296 N 
ATOM      8  N   UNL     1      31.290  -4.401 -23.288  0.00  0.00    -0.233 NA
ATOM      9  N   UNL     1      33.626  -3.454 -26.424  0.00  0.00    -0.223 N 
ATOM     10  N   UNL     1      31.929  -2.671 -24.884  0.00  0.00    -0.232 NA
ATOM     11  N   UNL     1      34.344  -4.561 -26.687  0.00  0.00    -0.183 NA
ATOM     12  C   UNL     1      32.427  -9.201 -22.089  0.00  0.00    +0.070 C 
ATOM     13  C   UNL     1      31.125  -8.684 -22.719  0.00  0.00    +0.030 C 
ATOM     14  C   UNL     1      33.630  -8.568 -22.803  0.00  0.00    +0.030 C 
ATOM     15  C   UNL     1      31.062  -7.158 -22.688  0.00  0.00    +0.092 C 
ATOM     16  C   UNL     1      33.554  -7.040 -22.778  0.00  0.00    +0.092 C 
ATOM     17  C   UNL     1      32.159  -5.288 -23.833  0.00  0.00    +0.118 C 
ATOM     18  C   UNL     1      32.937  -4.892 -24.917  0.00  0.00    +0.152 C 
ATOM     19  C   UNL     1      32.767  -3.597 -25.374  0.00  0.00    +0.133 C 
ATOM     20  C   UNL     1      33.920  -5.434 -25.766  0.00  0.00    +0.105 C 
ATOM     21  C   UNL     1      31.231  -3.166 -23.840  0.00  0.00    +0.252 C 
ATOM     22  H   UNL     1      33.711  -2.620 -26.939  0.00  0.00    +0.176 HD
ENDBRANCH   3  12
BRANCH   5  24
ATOM     23  F   UNL     1      34.970 -17.228 -25.126  0.00  0.00    -0.204 F 
ATOM     24  C   UNL     1      33.451 -13.904 -23.203  0.00  0.00    +0.027 C 
ATOM     25  C   UNL     1      34.042 -14.926 -22.461  0.00  0.00    +0.008 C 
ATOM     26  C   UNL     1      33.373 -14.006 -24.592  0.00  0.00    +0.005 C 
ATOM     27  C   UNL     1      34.556 -16.050 -23.107  0.00  0.00    +0.099 C 
ATOM     28  C   UNL     1      33.888 -15.129 -25.239  0.00  0.00    +0.030 C 
ATOM     29  C   UNL     1      34.479 -16.152 -24.496  0.00  0.00    +0.144 C 
BRANCH  27  33
ATOM     30  F   UNL     1      34.608 -18.364 -22.503  0.00  0.00    -0.166 F 
ATOM     31  F   UNL     1      36.511 -17.328 -22.594  0.00  0.00    -0.166 F 
ATOM     32  F   UNL     1      35.127 -16.915 -20.967  0.00  0.00    -0.166 F 
ATOM     33  C   UNL     1      35.188 -17.142 -22.312  0.00  0.00    +0.421 C 
ENDBRANCH  27  33
ENDBRANCH   5  24
TORSDOF 3
ENDMDL
MODEL 3
REMARK VINA RESULT:     -11.2      4.373      7.303
REMARK  Name = 25118925
REMARK  3 active torsions:
REMARK  status: ('A' for Active; 'I' for Inactive)
REMARK    1  A    between atoms: C_3  and  C_12
REMARK    2  A    between atoms: C_5  and  C_24
REMARK    3  A    between atoms: C_27  and  C_33
REMARK                            x       y       z     vdW  Elec       q    Type
REMARK                         _______ _______ _______ _____ _____    ______ ____
ROOT
ATOM      1  N   UNL     1      31.766 -10.807 -20.552  0.00  0.00    -0.279 N 
ATOM      2  N   UNL     1      32.776 -10.877 -22.529  0.00  0.00    -0.394 NA
ATOM      3  C   UNL     1      32.205 -10.099 -21.636  0.00  0.00    +0.160 C 
ATOM      4  C   UNL     1      32.077 -12.120 -20.768  0.00  0.00    +0.152 C 
ATOM      5  C   UNL     1      32.699 -12.139 -21.993  0.00  0.00    +0.130 C 
ATOM      6  C   UNL     1      31.095 -10.281 -19.388  0.00  0.00    +0.115 C 
ENDROOT
BRANCH   3  12
ATOM      7  N   UNL     1      31.865  -6.063 -23.137  0.00  0.00    -0.296 N 
ATOM      8  N   UNL     1      30.748  -3.971 -23.398  0.00  0.00    -0.233 NA
ATOM      9  N   UNL     1      33.450  -3.007 -26.219  0.00  0.00    -0.223 N 
ATOM     10  N   UNL     1      31.493  -2.281 -24.992  0.00  0.00    -0.232 NA
ATOM     11  N   UNL     1      34.276  -4.067 -26.305  0.00  0.00    -0.183 NA
ATOM     12  C   UNL     1      32.029  -8.596 -21.746  0.00  0.00    +0.070 C 
ATOM     13  C   UNL     1      30.802  -8.218 -22.589  0.00  0.00    +0.030 C 
ATOM     14  C   UNL     1      33.277  -7.908 -22.319  0.00  0.00    +0.030 C 
ATOM     15  C   UNL     1      30.628  -6.701 -22.664  0.00  0.00    +0.092 C 
ATOM     16  C   UNL     1      33.091  -6.393 -22.402  0.00  0.00    +0.092 C 
ATOM     17  C   UNL     1      31.748  -4.813 -23.755  0.00  0.00    +0.118 C 
ATOM     18  C   UNL     1      32.648  -4.414 -24.738  0.00  0.00    +0.152 C 
ATOM     19  C   UNL     1      32.458  -3.163 -25.297  0.00  0.00    +0.133 C 
ATOM     20  C   UNL     1      33.782  -4.920 -25.401  0.00  0.00    +0.105 C 
ATOM     21  C   UNL     1      30.684  -2.774 -24.029  0.00  0.00    +0.252 C 
ATOM     22  H   UNL     1      33.553  -2.197 -26.768  0.00  0.00    +0.176 HD
ENDBRANCH   3  12
BRANCH   5  24
ATOM     23  F   UNL     1      34.669 -16.702 -24.486  0.00  0.00    -0.204 F 
ATOM     24  C   UNL     1      33.204 -13.312 -22.637  0.00  0.00    +0.027 C 
ATOM     25  C   UNL     1      33.009 -13.496 -24.006  0.00  0.00    +0.008 C 
ATOM     26  C   UNL     1      33.894 -14.271 -21.896  0.00  0.00    +0.005 C 
ATOM     27  C   UNL     1      33.502 -14.640 -24.633  0.00  0.00    +0.099 C 
ATOM     28  C   UNL     1      34.387 -15.415 -22.522  0.00  0.00    +0.030 C 
ATOM     29  C   UNL     1      34.191 -15.599 -23.891  0.00  0.00    +0.144 C 
BRANCH  27  33
ATOM     30  F   UNL     1      34.430 -14.688 -26.837  0.00  0.00    -0.166 F 
ATOM     31  F   UNL     1      32.815 -16.074 -26.419  0.00  0.00    -0.166 F 
ATOM     32  F   UNL     1      32.396 -13.949 -26.621  0.00  0.00    -0.166 F 
ATOM     33  C   UNL     1      33.291 -14.835 -26.096  0.00  0.00    +0.421 C 
ENDBRANCH  27  33
ENDBRANCH   5  24
TORSDOF 3
ENDMDL
MODEL 4
REMARK VINA RESULT:     -10.9      5.781     10.354
REMARK  Name = 25118925
REMARK  3 active torsions:
REMARK  status: ('A' for Active; 'I' for Inactive)
REMARK    1  A    between atoms: C_3  and  C_12
REMARK    2  A    between atoms: C_5  and  C_24
REMARK    3  A    between atoms: C_27  and  C_33
REMARK                            x       y       z     vdW  Elec       q    Type
REMARK                         _______ _______ _______ _____ _____    ______ ____
ROOT
ATOM      1  N   UNL     1      35.074 -19.413 -23.546  0.00  0.00    -0.279 N 
ATOM      2  N   UNL     1      34.499 -18.015 -21.918  0.00  0.00    -0.394 NA
ATOM      3  C   UNL     1      34.755 -19.268 -22.224  0.00  0.00    +0.160 C 
ATOM      4  C   UNL     1      35.017 -18.174 -24.119  0.00  0.00    +0.152 C 
ATOM      5  C   UNL     1      34.661 -17.328 -23.096  0.00  0.00    +0.130 C 
ATOM      6  C   UNL     1      35.409 -20.641 -24.226  0.00  0.00    +0.115 C 
ENDROOT
BRANCH   3  12
ATOM      7  N   UNL     1      34.959 -21.752 -18.697  0.00  0.00    -0.296 N 
ATOM      8  N   UNL     1      34.061 -23.313 -17.131  0.00  0.00    -0.233 NA
ATOM      9  N   UNL     1      37.221 -22.576 -14.754  0.00  0.00    -0.223 N 
ATOM     10  N   UNL     1      35.165 -23.827 -15.018  0.00  0.00    -0.232 NA
ATOM     11  N   UNL     1      37.965 -21.668 -15.412  0.00  0.00    -0.183 NA
ATOM     12  C   UNL     1      34.715 -20.444 -21.268  0.00  0.00    +0.070 C 
ATOM     13  C   UNL     1      33.662 -20.258 -20.166  0.00  0.00    +0.030 C 
ATOM     14  C   UNL     1      36.085 -20.716 -20.628  0.00  0.00    +0.030 C 
ATOM     15  C   UNL     1      33.620 -21.466 -19.230  0.00  0.00    +0.092 C 
ATOM     16  C   UNL     1      36.032 -21.918 -19.684  0.00  0.00    +0.092 C 
ATOM     17  C   UNL     1      35.034 -22.435 -17.478  0.00  0.00    +0.118 C 
ATOM     18  C   UNL     1      36.100 -22.230 -16.607  0.00  0.00    +0.152 C 
ATOM     19  C   UNL     1      36.093 -22.946 -15.423  0.00  0.00    +0.133 C 
ATOM     20  C   UNL     1      37.277 -21.461 -16.540  0.00  0.00    +0.105 C 
ATOM     21  C   UNL     1      34.186 -23.945 -15.940  0.00  0.00    +0.252 C 
ATOM     22  H   UNL     1      37.468 -22.938 -13.872  0.00  0.00    +0.176 HD
ENDBRANCH   3  12
BRANCH   5  24
ATOM     23  F   UNL     1      33.951 -11.836 -23.597  0.00  0.00    -0.204 F 
ATOM     24  C   UNL     1      34.479 -15.916 -23.228  0.00  0.00    +0.027 C 
ATOM     25  C   UNL     1      34.133 -15.368 -24.464  0.00  0.00    +0.008 C 
ATOM     26  C   UNL     1      34.643 -15.085 -22.119  0.00  0.00    +0.005 C 
ATOM     27  C   UNL     1      33.955 -13.991 -24.592  0.00  0.00    +0.099 C 
ATOM     28  C   UNL     1      34.466 -13.708 -22.247  0.00  0.00    +0.030 C 
ATOM     29  C   UNL     1      34.121 -13.161 -23.484  0.00  0.00    +0.144 C 
BRANCH  27  33
ATOM     30  F   UNL     1      34.144 -14.066 -26.975  0.00  0.00    -0.166 F 
ATOM     31  F   UNL     1      32.244 -13.413 -26.159  0.00  0.00    -0.166 F 
ATOM     32  F   UNL     1      33.980 -12.108 -26.043  0.00  0.00    -0.166 F 
ATOM     33  C   UNL     1      33.587 -13.409 -25.914  0.00  0.00    +0.421 C 
ENDBRANCH  27  33
ENDBRANCH   5  24
TORSDOF 3
ENDMDL
MODEL 5
REMARK VINA RESULT:     -10.6      5.131     10.190
REMARK  Name = 25118925
REMARK  3 active torsions:
REMARK  status: ('A' for Active; 'I' for Inactive)
REMARK    1  A    between atoms: C_3  and  C_12
REMARK    2  A    between atoms: C_5  and  C_24
REMARK    3  A    between atoms: C_27  and  C_33
REMARK                            x       y       z     vdW  Elec       q    Type
REMARK                         _______ _______ _______ _____ _____    ______ ____
ROOT
ATOM      1  N   UNL     1      35.086 -18.929 -23.241  0.00  0.00    -0.279 N 
ATOM      2  N   UNL     1      34.328 -17.740 -21.525  0.00  0.00    -0.394 NA
ATOM      3  C   UNL     1      34.695 -18.936 -21.930  0.00  0.00    +0.160 C 
ATOM      4  C   UNL     1      34.960 -17.648 -23.700  0.00  0.00    +0.152 C 
ATOM      5  C   UNL     1      34.491 -16.933 -22.623  0.00  0.00    +0.130 C 
ATOM      6  C   UNL     1      35.548 -20.058 -24.012  0.00  0.00    +0.115 C 
ENDROOT
BRANCH   3  12
ATOM      7  N   UNL     1      34.958 -21.728 -18.646  0.00  0.00    -0.296 N 
ATOM      8  N   UNL     1      34.116 -23.482 -17.264  0.00  0.00    -0.233 NA
ATOM      9  N   UNL     1      37.156 -22.786 -14.723  0.00  0.00    -0.223 N 
ATOM     10  N   UNL     1      35.192 -24.128 -15.172  0.00  0.00    -0.232 NA
ATOM     11  N   UNL     1      37.859 -21.776 -15.268  0.00  0.00    -0.183 NA
ATOM     12  C   UNL     1      34.704 -20.198 -21.090  0.00  0.00    +0.070 C 
ATOM     13  C   UNL     1      33.610 -20.182 -20.012  0.00  0.00    +0.030 C 
ATOM     14  C   UNL     1      36.069 -20.446 -20.432  0.00  0.00    +0.030 C 
ATOM     15  C   UNL     1      33.618 -21.474 -19.195  0.00  0.00    +0.092 C 
ATOM     16  C   UNL     1      36.066 -21.734 -19.607  0.00  0.00    +0.092 C 
ATOM     17  C   UNL     1      35.041 -22.519 -17.494  0.00  0.00    +0.118 C 
ATOM     18  C   UNL     1      36.067 -22.333 -16.573  0.00  0.00    +0.152 C 
ATOM     19  C   UNL     1      36.073 -23.158 -15.462  0.00  0.00    +0.133 C 
ATOM     20  C   UNL     1      37.191 -21.505 -16.395  0.00  0.00    +0.105 C 
ATOM     21  C   UNL     1      34.248 -24.217 -16.134  0.00  0.00    +0.252 C 
ATOM     22  H   UNL     1      37.401 -23.215 -13.871  0.00  0.00    +0.176 HD
ENDBRANCH   3  12
BRANCH   5  24
ATOM     23  F   UNL     1      33.387 -11.484 -22.675  0.00  0.00    -0.204 F 
ATOM     24  C   UNL     1      34.204 -15.532 -22.634  0.00  0.00    +0.027 C 
ATOM     25  C   UNL     1      33.450 -14.965 -21.608  0.00  0.00    +0.008 C 
ATOM     26  C   UNL     1      34.683 -14.731 -23.672  0.00  0.00    +0.005 C 
ATOM     27  C   UNL     1      33.171 -13.599 -21.618  0.00  0.00    +0.099 C 
ATOM     28  C   UNL     1      34.405 -13.365 -23.684  0.00  0.00    +0.030 C 
ATOM     29  C   UNL     1      33.649 -12.799 -22.656  0.00  0.00    +0.144 C 
BRANCH  27  33
ATOM     30  F   UNL     1      33.009 -11.993 -19.853  0.00  0.00    -0.166 F 
ATOM     31  F   UNL     1      31.190 -12.440 -20.946  0.00  0.00    -0.166 F 
ATOM     32  F   UNL     1      32.014 -13.904 -19.564  0.00  0.00    -0.166 F 
ATOM     33  C   UNL     1      32.363 -12.995 -20.520  0.00  0.00    +0.421 C 
ENDBRANCH  27  33
ENDBRANCH   5  24
TORSDOF 3
ENDMDL
MODEL 6
REMARK VINA RESULT:     -10.5      6.049     11.041
REMARK  Name = 25118925
REMARK  3 active torsions:
REMARK  status: ('A' for Active; 'I' for Inactive)
REMARK    1  A    between atoms: C_3  and  C_12
REMARK    2  A    between atoms: C_5  and  C_24
REMARK    3  A    between atoms: C_27  and  C_33
REMARK                            x       y       z     vdW  Elec       q    Type
REMARK                         _______ _______ _______ _____ _____    ______ ____
ROOT
ATOM      1  N   UNL     1      35.903 -20.720 -19.965  0.00  0.00    -0.279 N 
ATOM      2  N   UNL     1      33.986 -19.864 -20.689  0.00  0.00    -0.394 NA
ATOM      3  C   UNL     1      34.538 -20.802 -19.951  0.00  0.00    +0.160 C 
ATOM      4  C   UNL     1      36.243 -19.663 -20.761  0.00  0.00    +0.152 C 
ATOM      5  C   UNL     1      35.043 -19.151 -21.197  0.00  0.00    +0.130 C 
ATOM      6  C   UNL     1      36.830 -21.583 -19.272  0.00  0.00    +0.115 C 
ENDROOT
BRANCH   3  12
ATOM      7  N   UNL     1      32.828 -23.163 -16.765  0.00  0.00    -0.296 N 
ATOM      8  N   UNL     1      31.019 -24.242 -15.643  0.00  0.00    -0.233 NA
ATOM      9  N   UNL     1      33.457 -24.807 -12.493  0.00  0.00    -0.223 N 
ATOM     10  N   UNL     1      31.233 -25.148 -13.388  0.00  0.00    -0.232 NA
ATOM     11  N   UNL     1      34.637 -24.267 -12.848  0.00  0.00    -0.183 NA
ATOM     12  C   UNL     1      33.800 -21.867 -19.163  0.00  0.00    +0.070 C 
ATOM     13  C   UNL     1      32.641 -21.280 -18.343  0.00  0.00    +0.030 C 
ATOM     14  C   UNL     1      34.737 -22.655 -18.237  0.00  0.00    +0.030 C 
ATOM     15  C   UNL     1      31.894 -22.373 -17.579  0.00  0.00    +0.092 C 
ATOM     16  C   UNL     1      33.980 -23.739 -17.467  0.00  0.00    +0.092 C 
ATOM     17  C   UNL     1      32.307 -23.819 -15.644  0.00  0.00    +0.118 C 
ATOM     18  C   UNL     1      33.094 -24.049 -14.520  0.00  0.00    +0.152 C 
ATOM     19  C   UNL     1      32.498 -24.704 -13.457  0.00  0.00    +0.133 C 
ATOM     20  C   UNL     1      34.410 -23.807 -14.083  0.00  0.00    +0.105 C 
ATOM     21  C   UNL     1      30.569 -24.871 -14.531  0.00  0.00    +0.252 C 
ATOM     22  H   UNL     1      33.301 -25.237 -11.622  0.00  0.00    +0.176 HD
ENDBRANCH   3  12
BRANCH   5  24
ATOM     23  F   UNL     1      34.501 -14.776 -24.584  0.00  0.00    -0.204 F 
ATOM     24  C   UNL     1      34.902 -18.024 -22.066  0.00  0.00    +0.027 C 
ATOM     25  C   UNL     1      34.639 -16.761 -21.535  0.00  0.00    +0.008 C 
ATOM     26  C   UNL     1      35.032 -18.187 -23.445  0.00  0.00    +0.005 C 
ATOM     27  C   UNL     1      34.502 -15.662 -22.382  0.00  0.00    +0.099 C 
ATOM     28  C   UNL     1      34.895 -17.089 -24.293  0.00  0.00    +0.030 C 
ATOM     29  C   UNL     1      34.630 -15.826 -23.761  0.00  0.00    +0.144 C 
BRANCH  27  33
ATOM     30  F   UNL     1      34.577 -14.188 -20.500  0.00  0.00    -0.166 F 
ATOM     31  F   UNL     1      34.869 -13.300 -22.457  0.00  0.00    -0.166 F 
ATOM     32  F   UNL     1      32.894 -13.990 -21.862  0.00  0.00    -0.166 F 
ATOM     33  C   UNL     1      34.219 -14.314 -21.813  0.00  0.00    +0.421 C 
ENDBRANCH  27  33
ENDBRANCH   5  24
TORSDOF 3
ENDMDL
MODEL 7
REMARK VINA RESULT:      -9.9      5.557     10.577
REMARK  Name = 25118925
REMARK  3 active torsions:
REMARK  status: ('A' for Active; 'I' for Inactive)
REMARK    1  A    between atoms: C_3  and  C_12
REMARK    2  A    between atoms: C_5  and  C_24
REMARK    3  A    between atoms: C_27  and  C_33
REMARK                            x       y       z     vdW  Elec       q    Type
REMARK                         _______ _______ _______ _____ _____    ______ ____
ROOT
ATOM      1  N   UNL     1      36.331 -19.409 -20.987  0.00  0.00    -0.279 N 
ATOM      2  N   UNL     1      34.283 -18.941 -21.709  0.00  0.00    -0.394 NA
ATOM      3  C   UNL     1      35.007 -19.749 -20.965  0.00  0.00    +0.160 C 
ATOM      4  C   UNL     1      36.459 -18.315 -21.797  0.00  0.00    +0.152 C 
ATOM      5  C   UNL     1      35.183 -18.045 -22.230  0.00  0.00    +0.130 C 
ATOM      6  C   UNL     1      37.408 -20.072 -20.292  0.00  0.00    +0.115 C 
ENDROOT
BRANCH   3  12
ATOM      7  N   UNL     1      33.767 -22.348 -17.746  0.00  0.00    -0.296 N 
ATOM      8  N   UNL     1      32.199 -23.749 -16.619  0.00  0.00    -0.233 NA
ATOM      9  N   UNL     1      34.661 -23.755 -13.437  0.00  0.00    -0.223 N 
ATOM     10  N   UNL     1      32.563 -24.553 -14.344  0.00  0.00    -0.232 NA
ATOM     11  N   UNL     1      35.713 -22.994 -13.793  0.00  0.00    -0.183 NA
ATOM     12  C   UNL     1      34.488 -20.926 -20.162  0.00  0.00    +0.070 C 
ATOM     13  C   UNL     1      33.225 -20.570 -19.364  0.00  0.00    +0.030 C 
ATOM     14  C   UNL     1      35.553 -21.493 -19.212  0.00  0.00    +0.030 C 
ATOM     15  C   UNL     1      32.703 -21.777 -18.585  0.00  0.00    +0.092 C 
ATOM     16  C   UNL     1      35.020 -22.693 -18.428  0.00  0.00    +0.092 C 
ATOM     17  C   UNL     1      33.375 -23.076 -16.617  0.00  0.00    +0.118 C 
ATOM     18  C   UNL     1      34.178 -23.122 -15.482  0.00  0.00    +0.152 C 
ATOM     19  C   UNL     1      33.713 -23.864 -14.411  0.00  0.00    +0.133 C 
ATOM     20  C   UNL     1      35.413 -22.612 -15.039  0.00  0.00    +0.105 C 
ATOM     21  C   UNL     1      31.871 -24.436 -15.498  0.00  0.00    +0.252 C 
ATOM     22  H   UNL     1      34.584 -24.191 -12.559  0.00  0.00    +0.176 HD
ENDBRANCH   3  12
BRANCH   5  24
ATOM     23  F   UNL     1      33.801 -13.892 -25.658  0.00  0.00    -0.204 F 
ATOM     24  C   UNL     1      34.826 -16.975 -23.109  0.00  0.00    +0.027 C 
ATOM     25  C   UNL     1      34.449 -15.738 -22.587  0.00  0.00    +0.008 C 
ATOM     26  C   UNL     1      34.859 -17.168 -24.490  0.00  0.00    +0.005 C 
ATOM     27  C   UNL     1      34.102 -14.695 -23.444  0.00  0.00    +0.099 C 
ATOM     28  C   UNL     1      34.511 -16.126 -25.349  0.00  0.00    +0.030 C 
ATOM     29  C   UNL     1      34.133 -14.889 -24.825  0.00  0.00    +0.144 C 
BRANCH  27  33
ATOM     30  F   UNL     1      34.295 -12.312 -23.501  0.00  0.00    -0.166 F 
ATOM     31  F   UNL     1      32.357 -13.129 -22.974  0.00  0.00    -0.166 F 
ATOM     32  F   UNL     1      34.006 -13.248 -21.560  0.00  0.00    -0.166 F 
ATOM     33  C   UNL     1      33.697 -13.374 -22.884  0.00  0.00    +0.421 C 
ENDBRANCH  27  33
ENDBRANCH   5  24
TORSDOF 3
ENDMDL
MODEL 8
REMARK VINA RESULT:      -9.7      6.758     11.897
REMARK  Name = 25118925
REMARK  3 active torsions:
REMARK  status: ('A' for Active; 'I' for Inactive)
REMARK    1  A    between atoms: C_3  and  C_12
REMARK    2  A    between atoms: C_5  and  C_24
REMARK    3  A    between atoms: C_27  and  C_33
REMARK                            x       y       z     vdW  Elec       q    Type
REMARK                         _______ _______ _______ _____ _____    ______ ____
ROOT
ATOM      1  N   UNL     1      33.584 -21.590 -18.739  0.00  0.00    -0.279 N 
ATOM      2  N   UNL     1      35.542 -20.993 -19.602  0.00  0.00    -0.394 NA
ATOM      3  C   UNL     1      34.940 -21.770 -18.728  0.00  0.00    +0.160 C 
ATOM      4  C   UNL     1      33.304 -20.639 -19.680  0.00  0.00    +0.152 C 
ATOM      5  C   UNL     1      34.528 -20.286 -20.198  0.00  0.00    +0.130 C 
ATOM      6  C   UNL     1      32.613 -22.271 -17.916  0.00  0.00    +0.115 C 
ENDROOT
BRANCH   3  12
ATOM      7  N   UNL     1      36.351 -23.876 -15.232  0.00  0.00    -0.296 N 
ATOM      8  N   UNL     1      36.629 -25.824 -13.882  0.00  0.00    -0.233 NA
ATOM      9  N   UNL     1      37.919 -23.442 -10.908  0.00  0.00    -0.223 N 
ATOM     10  N   UNL     1      37.449 -25.719 -11.587  0.00  0.00    -0.232 NA
ATOM     11  N   UNL     1      37.872 -22.191 -11.401  0.00  0.00    -0.183 NA
ATOM     12  C   UNL     1      35.617 -22.758 -17.799  0.00  0.00    +0.070 C 
ATOM     13  C   UNL     1      34.606 -23.528 -16.937  0.00  0.00    +0.030 C 
ATOM     14  C   UNL     1      36.655 -22.082 -16.892  0.00  0.00    +0.030 C 
ATOM     15  C   UNL     1      35.308 -24.538 -16.028  0.00  0.00    +0.092 C 
ATOM     16  C   UNL     1      37.345 -23.096 -15.978  0.00  0.00    +0.092 C 
ATOM     17  C   UNL     1      36.716 -24.479 -14.023  0.00  0.00    +0.118 C 
ATOM     18  C   UNL     1      37.172 -23.716 -12.952  0.00  0.00    +0.152 C 
ATOM     19  C   UNL     1      37.510 -24.394 -11.794  0.00  0.00    +0.133 C 
ATOM     20  C   UNL     1      37.416 -22.364 -12.646  0.00  0.00    +0.105 C 
ATOM     21  C   UNL     1      36.996 -26.353 -12.690  0.00  0.00    +0.252 C 
ATOM     22  H   UNL     1      38.220 -23.651  -9.994  0.00  0.00    +0.176 HD
ENDBRANCH   3  12
BRANCH   5  24
ATOM     23  F   UNL     1      35.321 -16.501 -24.193  0.00  0.00    -0.204 F 
ATOM     24  C   UNL     1      34.730 -19.310 -21.224  0.00  0.00    +0.027 C 
ATOM     25  C   UNL     1      34.537 -17.957 -20.949  0.00  0.00    +0.008 C 
ATOM     26  C   UNL     1      35.124 -19.713 -22.501  0.00  0.00    +0.005 C 
ATOM     27  C   UNL     1      34.736 -17.006 -21.949  0.00  0.00    +0.099 C 
ATOM     28  C   UNL     1      35.322 -18.762 -23.501  0.00  0.00    +0.030 C 
ATOM     29  C   UNL     1      35.128 -17.408 -23.225  0.00  0.00    +0.144 C 
BRANCH  27  33
ATOM     30  F   UNL     1      35.271 -14.727 -22.441  0.00  0.00    -0.166 F 
ATOM     31  F   UNL     1      33.236 -15.147 -21.819  0.00  0.00    -0.166 F 
ATOM     32  F   UNL     1      34.854 -15.234 -20.368  0.00  0.00    -0.166 F 
ATOM     33  C   UNL     1      34.528 -15.559 -21.652  0.00  0.00    +0.421 C 
ENDBRANCH  27  33
ENDBRANCH   5  24
TORSDOF 3
ENDMDL
MODEL 9
REMARK VINA RESULT:      -9.5      6.494     11.167
REMARK  Name = 25118925
REMARK  3 active torsions:
REMARK  status: ('A' for Active; 'I' for Inactive)
REMARK    1  A    between atoms: C_3  and  C_12
REMARK    2  A    between atoms: C_5  and  C_24
REMARK    3  A    between atoms: C_27  and  C_33
REMARK                            x       y       z     vdW  Elec       q    Type
REMARK                         _______ _______ _______ _____ _____    ______ ____
ROOT
ATOM      1  N   UNL     1      32.245 -11.517 -21.711  0.00  0.00    -0.279 N 
ATOM      2  N   UNL     1      33.292 -10.240 -23.197  0.00  0.00    -0.394 NA
ATOM      3  C   UNL     1      33.122 -11.469 -22.759  0.00  0.00    +0.160 C 
ATOM      4  C   UNL     1      31.830 -10.239 -21.465  0.00  0.00    +0.152 C 
ATOM      5  C   UNL     1      32.489  -9.469 -22.394  0.00  0.00    +0.130 C 
ATOM      6  C   UNL     1      31.826 -12.693 -20.986  0.00  0.00    +0.115 C 
ENDROOT
BRANCH   3  12
ATOM      7  N   UNL     1      34.316 -15.552 -23.502  0.00  0.00    -0.296 N 
ATOM      8  N   UNL     1      34.658 -17.454 -24.901  0.00  0.00    -0.233 NA
ATOM      9  N   UNL     1      35.233 -19.653 -21.582  0.00  0.00    -0.223 N 
ATOM     10  N   UNL     1      35.148 -19.668 -24.002  0.00  0.00    -0.232 NA
ATOM     11  N   UNL     1      35.093 -18.797 -20.553  0.00  0.00    -0.183 NA
ATOM     12  C   UNL     1      33.791 -12.712 -23.313  0.00  0.00    +0.070 C 
ATOM     13  C   UNL     1      32.781 -13.677 -23.950  0.00  0.00    +0.030 C 
ATOM     14  C   UNL     1      34.606 -13.454 -22.244  0.00  0.00    +0.030 C 
ATOM     15  C   UNL     1      33.479 -14.910 -24.525  0.00  0.00    +0.092 C 
ATOM     16  C   UNL     1      35.292 -14.692 -22.824  0.00  0.00    +0.092 C 
ATOM     17  C   UNL     1      34.592 -16.915 -23.660  0.00  0.00    +0.118 C 
ATOM     18  C   UNL     1      34.802 -17.735 -22.555  0.00  0.00    +0.152 C 
ATOM     19  C   UNL     1      35.068 -19.070 -22.803  0.00  0.00    +0.133 C 
ATOM     20  C   UNL     1      34.831 -17.631 -21.152  0.00  0.00    +0.105 C 
ATOM     21  C   UNL     1      34.929 -18.778 -24.994  0.00  0.00    +0.252 C 
ATOM     22  H   UNL     1      35.435 -20.609 -21.465  0.00  0.00    +0.176 HD
ENDBRANCH   3  12
BRANCH   5  24
ATOM     23  F   UNL     1      31.994  -3.951 -22.863  0.00  0.00    -0.204 F 
ATOM     24  C   UNL     1      32.364  -8.050 -22.517  0.00  0.00    +0.027 C 
ATOM     25  C   UNL     1      32.931  -7.390 -23.607  0.00  0.00    +0.008 C 
ATOM     26  C   UNL     1      31.671  -7.324 -21.547  0.00  0.00    +0.005 C 
ATOM     27  C   UNL     1      32.808  -6.007 -23.727  0.00  0.00    +0.099 C 
ATOM     28  C   UNL     1      31.548  -5.941 -21.666  0.00  0.00    +0.030 C 
ATOM     29  C   UNL     1      32.117  -5.282 -22.757  0.00  0.00    +0.144 C 
BRANCH  27  33
ATOM     30  F   UNL     1      33.091  -5.859 -26.098  0.00  0.00    -0.166 F 
ATOM     31  F   UNL     1      33.048  -3.993 -24.994  0.00  0.00    -0.166 F 
ATOM     32  F   UNL     1      34.781  -5.299 -24.850  0.00  0.00    -0.166 F 
ATOM     33  C   UNL     1      33.417  -5.304 -24.893  0.00  0.00    +0.421 C 
ENDBRANCH  27  33
ENDBRANCH   5  24
TORSDOF 3
ENDMDL
