MODEL 1
REMARK VINA RESULT:     -11.8      0.000      0.000
REMARK  Name = 24941243
REMARK  5 active torsions:
REMARK  status: ('A' for Active; 'I' for Inactive)
REMARK    1  A    between atoms: N_1  and  C_14
REMARK    2  A    between atoms: N_2  and  C_22
REMARK    3  A    between atoms: C_25  and  O_28
REMARK    4  A    between atoms: C_26  and  O_30
REMARK    5  A    between atoms: C_27  and  O_32
REMARK                            x       y       z     vdW  Elec       q    Type
REMARK                         _______ _______ _______ _____ _____    ______ ____
ROOT
ATOM      1  N   UNL     1      36.159 -18.692 -21.924  0.00  0.00    -0.260 N 
ATOM      2  N   UNL     1      36.595 -21.411 -18.080  0.00  0.00    -0.247 N 
ATOM      3  N   UNL     1      36.400 -20.057 -19.986  0.00  0.00    -0.322 NA
ATOM      4  N   UNL     1      34.491 -21.238 -19.108  0.00  0.00    -0.170 NA
ATOM      5  C   UNL     1      35.601 -19.564 -20.955  0.00  0.00    +0.201 C 
ATOM      6  C   UNL     1      37.619 -18.677 -22.072  0.00  0.00    +0.120 C 
ATOM      7  C   UNL     1      34.257 -19.858 -21.066  0.00  0.00    +0.070 C 
ATOM      8  C   UNL     1      35.789 -20.875 -19.109  0.00  0.00    +0.150 C 
ATOM      9  C   UNL     1      33.752 -20.709 -20.104  0.00  0.00    +0.116 C 
ATOM     10  H   UNL     1      37.534 -21.119 -18.120  0.00  0.00    +0.165 HD
ENDROOT
BRANCH   1  14
ATOM     11  N   UNL     1      33.345 -13.871 -23.409  0.00  0.00    -0.280 N 
ATOM     12  N   UNL     1      33.846 -14.381 -22.267  0.00  0.00    -0.173 NA
ATOM     13  C   UNL     1      34.191 -15.752 -24.044  0.00  0.00    +0.032 A 
ATOM     14  C   UNL     1      35.477 -17.649 -22.606  0.00  0.00    +0.055 C 
ATOM     15  C   UNL     1      34.385 -15.559 -22.627  0.00  0.00    +0.103 A 
ATOM     16  C   UNL     1      33.523 -14.656 -24.511  0.00  0.00    +0.053 A 
ATOM     17  C   UNL     1      35.051 -16.530 -21.857  0.00  0.00    +0.036 C 
ATOM     18  C   UNL     1      34.598 -16.839 -24.809  0.00  0.00    +0.004 C 
ATOM     19  C   UNL     1      35.261 -17.794 -24.013  0.00  0.00    +0.015 C 
ATOM     20  C   UNL     1      33.037 -14.255 -25.841  0.00  0.00    +0.051 C 
ATOM     21  H   UNL     1      32.885 -13.001 -23.445  0.00  0.00    +0.189 HD
ENDBRANCH   1  14
BRANCH   2  22
ATOM     22  C   UNL     1      36.318 -22.281 -17.009  0.00  0.00    +0.064 C 
ATOM     23  C   UNL     1      37.334 -22.644 -16.126  0.00  0.00    +0.055 C 
ATOM     24  C   UNL     1      35.026 -22.777 -16.829  0.00  0.00    +0.055 C 
ATOM     25  C   UNL     1      34.752 -23.636 -15.765  0.00  0.00    +0.177 C 
ATOM     26  C   UNL     1      37.059 -23.505 -15.063  0.00  0.00    +0.177 C 
ATOM     27  C   UNL     1      35.768 -24.000 -14.882  0.00  0.00    +0.206 C 
BRANCH  25  28
ATOM     28  O   UNL     1      33.486 -24.113 -15.600  0.00  0.00    -0.468 OA
ATOM     29  C   UNL     1      32.416 -23.276 -16.032  0.00  0.00    +0.253 C 
ENDBRANCH  25  28
BRANCH  26  30
ATOM     30  O   UNL     1      38.062 -23.852 -14.208  0.00  0.00    -0.468 OA
ATOM     31  C   UNL     1      38.891 -24.946 -14.592  0.00  0.00    +0.253 C 
ENDBRANCH  26  30
BRANCH  27  32
ATOM     32  O   UNL     1      35.500 -24.841 -13.843  0.00  0.00    -0.465 OA
ATOM     33  C   UNL     1      35.088 -24.244 -12.616  0.00  0.00    +0.253 C 
ENDBRANCH  27  32
ENDBRANCH   2  22
TORSDOF 5
ENDMDL
MODEL 2
REMARK VINA RESULT:     -11.8      0.022      2.291
REMARK  Name = 24941243
REMARK  5 active torsions:
REMARK  status: ('A' for Active; 'I' for Inactive)
REMARK    1  A    between atoms: N_1  and  C_14
REMARK    2  A    between atoms: N_2  and  C_22
REMARK    3  A    between atoms: C_25  and  O_28
REMARK    4  A    between atoms: C_26  and  O_30
REMARK    5  A    between atoms: C_27  and  O_32
REMARK                            x       y       z     vdW  Elec       q    Type
REMARK                         _______ _______ _______ _____ _____    ______ ____
ROOT
ATOM      1  N   UNL     1      36.169 -18.695 -21.927  0.00  0.00    -0.260 N 
ATOM      2  N   UNL     1      36.603 -21.403 -18.074  0.00  0.00    -0.247 N 
ATOM      3  N   UNL     1      36.409 -20.054 -19.984  0.00  0.00    -0.322 NA
ATOM      4  N   UNL     1      34.498 -21.225 -19.097  0.00  0.00    -0.170 NA
ATOM      5  C   UNL     1      35.610 -19.561 -20.953  0.00  0.00    +0.201 C 
ATOM      6  C   UNL     1      37.628 -18.687 -22.078  0.00  0.00    +0.120 C 
ATOM      7  C   UNL     1      34.264 -19.850 -21.059  0.00  0.00    +0.070 C 
ATOM      8  C   UNL     1      35.797 -20.867 -19.103  0.00  0.00    +0.150 C 
ATOM      9  C   UNL     1      33.758 -20.695 -20.093  0.00  0.00    +0.116 C 
ATOM     10  H   UNL     1      37.544 -21.114 -18.118  0.00  0.00    +0.165 HD
ENDROOT
BRANCH   1  14
ATOM     11  N   UNL     1      33.373 -13.867 -23.421  0.00  0.00    -0.280 N 
ATOM     12  N   UNL     1      33.876 -14.374 -22.280  0.00  0.00    -0.173 NA
ATOM     13  C   UNL     1      34.208 -15.755 -24.052  0.00  0.00    +0.032 A 
ATOM     14  C   UNL     1      35.489 -17.652 -22.610  0.00  0.00    +0.055 C 
ATOM     15  C   UNL     1      34.408 -15.556 -22.636  0.00  0.00    +0.103 A 
ATOM     16  C   UNL     1      33.543 -14.657 -24.521  0.00  0.00    +0.053 A 
ATOM     17  C   UNL     1      35.072 -16.528 -21.865  0.00  0.00    +0.036 C 
ATOM     18  C   UNL     1      34.606 -16.847 -24.813  0.00  0.00    +0.004 C 
ATOM     19  C   UNL     1      35.267 -17.801 -24.016  0.00  0.00    +0.015 C 
ATOM     20  C   UNL     1      33.054 -14.260 -25.851  0.00  0.00    +0.051 C 
ATOM     21  H   UNL     1      32.917 -12.995 -23.460  0.00  0.00    +0.189 HD
ENDBRANCH   1  14
BRANCH   2  22
ATOM     22  C   UNL     1      36.326 -22.267 -16.999  0.00  0.00    +0.064 C 
ATOM     23  C   UNL     1      35.033 -22.755 -16.813  0.00  0.00    +0.055 C 
ATOM     24  C   UNL     1      37.345 -22.638 -16.120  0.00  0.00    +0.055 C 
ATOM     25  C   UNL     1      37.070 -23.497 -15.058  0.00  0.00    +0.177 C 
ATOM     26  C   UNL     1      34.758 -23.614 -15.748  0.00  0.00    +0.177 C 
ATOM     27  C   UNL     1      35.777 -23.986 -14.871  0.00  0.00    +0.206 C 
BRANCH  25  28
ATOM     28  O   UNL     1      38.074 -23.852 -14.207  0.00  0.00    -0.468 OA
ATOM     29  C   UNL     1      38.873 -24.973 -14.580  0.00  0.00    +0.253 C 
ENDBRANCH  25  28
BRANCH  26  30
ATOM     30  O   UNL     1      33.490 -24.083 -15.577  0.00  0.00    -0.468 OA
ATOM     31  C   UNL     1      32.425 -23.253 -16.034  0.00  0.00    +0.253 C 
ENDBRANCH  26  30
BRANCH  27  32
ATOM     32  O   UNL     1      35.508 -24.824 -13.830  0.00  0.00    -0.465 OA
ATOM     33  C   UNL     1      35.116 -24.223 -12.599  0.00  0.00    +0.253 C 
ENDBRANCH  27  32
ENDBRANCH   2  22
TORSDOF 5
ENDMDL
MODEL 3
REMARK VINA RESULT:     -11.6      0.964      2.680
REMARK  Name = 24941243
REMARK  5 active torsions:
REMARK  status: ('A' for Active; 'I' for Inactive)
REMARK    1  A    between atoms: N_1  and  C_14
REMARK    2  A    between atoms: N_2  and  C_22
REMARK    3  A    between atoms: C_25  and  O_28
REMARK    4  A    between atoms: C_26  and  O_30
REMARK    5  A    between atoms: C_27  and  O_32
REMARK                            x       y       z     vdW  Elec       q    Type
REMARK                         _______ _______ _______ _____ _____    ______ ____
ROOT
ATOM      1  N   UNL     1      36.387 -18.875 -21.563  0.00  0.00    -0.260 N 
ATOM      2  N   UNL     1      36.805 -21.588 -17.713  0.00  0.00    -0.247 N 
ATOM      3  N   UNL     1      36.619 -20.236 -19.621  0.00  0.00    -0.322 NA
ATOM      4  N   UNL     1      34.716 -21.449 -18.774  0.00  0.00    -0.170 NA
ATOM      5  C   UNL     1      35.828 -19.756 -20.603  0.00  0.00    +0.201 C 
ATOM      6  C   UNL     1      37.848 -18.836 -21.687  0.00  0.00    +0.120 C 
ATOM      7  C   UNL     1      34.491 -20.071 -20.735  0.00  0.00    +0.070 C 
ATOM      8  C   UNL     1      36.008 -21.065 -18.755  0.00  0.00    +0.150 C 
ATOM      9  C   UNL     1      33.984 -20.931 -19.782  0.00  0.00    +0.116 C 
ATOM     10  H   UNL     1      37.741 -21.281 -17.738  0.00  0.00    +0.165 HD
ENDROOT
BRANCH   1  14
ATOM     11  N   UNL     1      33.897 -15.467 -25.507  0.00  0.00    -0.280 N 
ATOM     12  N   UNL     1      34.568 -16.635 -25.529  0.00  0.00    -0.173 NA
ATOM     13  C   UNL     1      34.366 -15.801 -23.427  0.00  0.00    +0.032 A 
ATOM     14  C   UNL     1      35.699 -17.843 -22.255  0.00  0.00    +0.055 C 
ATOM     15  C   UNL     1      34.877 -16.876 -24.243  0.00  0.00    +0.103 A 
ATOM     16  C   UNL     1      33.747 -14.919 -24.266  0.00  0.00    +0.053 A 
ATOM     17  C   UNL     1      35.573 -17.949 -23.658  0.00  0.00    +0.036 C 
ATOM     18  C   UNL     1      34.472 -15.667 -22.048  0.00  0.00    +0.004 C 
ATOM     19  C   UNL     1      35.172 -16.755 -21.490  0.00  0.00    +0.015 C 
ATOM     20  C   UNL     1      33.041 -13.644 -24.057  0.00  0.00    +0.051 C 
ATOM     21  H   UNL     1      33.543 -15.042 -26.322  0.00  0.00    +0.189 HD
ENDBRANCH   1  14
BRANCH   2  22
ATOM     22  C   UNL     1      36.526 -22.463 -16.646  0.00  0.00    +0.064 C 
ATOM     23  C   UNL     1      35.215 -22.868 -16.403  0.00  0.00    +0.055 C 
ATOM     24  C   UNL     1      37.562 -22.927 -15.834  0.00  0.00    +0.055 C 
ATOM     25  C   UNL     1      37.285 -23.796 -14.780  0.00  0.00    +0.177 C 
ATOM     26  C   UNL     1      34.938 -23.737 -15.347  0.00  0.00    +0.177 C 
ATOM     27  C   UNL     1      35.973 -24.201 -14.536  0.00  0.00    +0.206 C 
BRANCH  25  28
ATOM     28  O   UNL     1      38.305 -24.242 -13.995  0.00  0.00    -0.468 OA
ATOM     29  C   UNL     1      39.236 -25.142 -14.591  0.00  0.00    +0.253 C 
ENDBRANCH  25  28
BRANCH  26  30
ATOM     30  O   UNL     1      33.651 -24.124 -15.119  0.00  0.00    -0.468 OA
ATOM     31  C   UNL     1      32.631 -23.439 -15.841  0.00  0.00    +0.253 C 
ENDBRANCH  26  30
BRANCH  27  32
ATOM     32  O   UNL     1      35.702 -25.049 -13.503  0.00  0.00    -0.465 OA
ATOM     33  C   UNL     1      35.382 -24.458 -12.246  0.00  0.00    +0.253 C 
ENDBRANCH  27  32
ENDBRANCH   2  22
TORSDOF 5
ENDMDL
MODEL 4
REMARK VINA RESULT:      -9.7      5.959     11.445
REMARK  Name = 24941243
REMARK  5 active torsions:
REMARK  status: ('A' for Active; 'I' for Inactive)
REMARK    1  A    between atoms: N_1  and  C_14
REMARK    2  A    between atoms: N_2  and  C_22
REMARK    3  A    between atoms: C_25  and  O_28
REMARK    4  A    between atoms: C_26  and  O_30
REMARK    5  A    between atoms: C_27  and  O_32
REMARK                            x       y       z     vdW  Elec       q    Type
REMARK                         _______ _______ _______ _____ _____    ______ ____
ROOT
ATOM      1  N   UNL     1      34.926 -18.256 -21.943  0.00  0.00    -0.260 N 
ATOM      2  N   UNL     1      33.804 -13.842 -23.213  0.00  0.00    -0.247 N 
ATOM      3  N   UNL     1      34.356 -16.039 -22.604  0.00  0.00    -0.322 NA
ATOM      4  N   UNL     1      34.439 -14.250 -20.991  0.00  0.00    -0.170 NA
ATOM      5  C   UNL     1      34.756 -16.884 -21.630  0.00  0.00    +0.201 C 
ATOM      6  C   UNL     1      35.048 -18.626 -23.358  0.00  0.00    +0.120 C 
ATOM      7  C   UNL     1      35.013 -16.493 -20.332  0.00  0.00    +0.070 C 
ATOM      8  C   UNL     1      34.220 -14.756 -22.220  0.00  0.00    +0.150 C 
ATOM      9  C   UNL     1      34.836 -15.150 -20.068  0.00  0.00    +0.116 C 
ATOM     10  H   UNL     1      33.656 -14.255 -24.095  0.00  0.00    +0.165 HD
ENDROOT
BRANCH   1  14
ATOM     11  N   UNL     1      35.621 -22.664 -18.275  0.00  0.00    -0.280 N 
ATOM     12  N   UNL     1      36.440 -21.819 -18.932  0.00  0.00    -0.173 NA
ATOM     13  C   UNL     1      34.250 -21.412 -19.375  0.00  0.00    +0.032 A 
ATOM     14  C   UNL     1      34.750 -19.348 -21.051  0.00  0.00    +0.055 C 
ATOM     15  C   UNL     1      35.615 -21.020 -19.631  0.00  0.00    +0.103 A 
ATOM     16  C   UNL     1      34.291 -22.465 -18.506  0.00  0.00    +0.053 A 
ATOM     17  C   UNL     1      35.901 -19.949 -20.498  0.00  0.00    +0.036 C 
ATOM     18  C   UNL     1      33.098 -20.841 -19.902  0.00  0.00    +0.004 C 
ATOM     19  C   UNL     1      33.415 -19.774 -20.765  0.00  0.00    +0.015 C 
ATOM     20  C   UNL     1      33.256 -23.298 -17.873  0.00  0.00    +0.051 C 
ATOM     21  H   UNL     1      35.956 -23.370 -17.676  0.00  0.00    +0.189 HD
ENDBRANCH   1  14
BRANCH   2  22
ATOM     22  C   UNL     1      33.559 -12.456 -23.190  0.00  0.00    +0.064 C 
ATOM     23  C   UNL     1      32.520 -11.945 -22.413  0.00  0.00    +0.055 C 
ATOM     24  C   UNL     1      34.357 -11.594 -23.943  0.00  0.00    +0.055 C 
ATOM     25  C   UNL     1      34.115 -10.221 -23.917  0.00  0.00    +0.177 C 
ATOM     26  C   UNL     1      32.279 -10.571 -22.388  0.00  0.00    +0.177 C 
ATOM     27  C   UNL     1      33.077  -9.709 -23.139  0.00  0.00    +0.206 C 
BRANCH  25  28
ATOM     28  O   UNL     1      34.902  -9.389 -24.656  0.00  0.00    -0.468 OA
ATOM     29  C   UNL     1      35.937  -9.993 -25.429  0.00  0.00    +0.253 C 
ENDBRANCH  25  28
BRANCH  26  30
ATOM     30  O   UNL     1      31.260 -10.085 -21.624  0.00  0.00    -0.468 OA
ATOM     31  C   UNL     1      31.460 -10.067 -20.213  0.00  0.00    +0.253 C 
ENDBRANCH  26  30
BRANCH  27  32
ATOM     32  O   UNL     1      32.840  -8.367 -23.116  0.00  0.00    -0.465 OA
ATOM     33  C   UNL     1      33.549  -7.601 -22.144  0.00  0.00    +0.253 C 
ENDBRANCH  27  32
ENDBRANCH   2  22
TORSDOF 5
ENDMDL
MODEL 5
REMARK VINA RESULT:      -9.7      5.963     11.334
REMARK  Name = 24941243
REMARK  5 active torsions:
REMARK  status: ('A' for Active; 'I' for Inactive)
REMARK    1  A    between atoms: N_1  and  C_14
REMARK    2  A    between atoms: N_2  and  C_22
REMARK    3  A    between atoms: C_25  and  O_28
REMARK    4  A    between atoms: C_26  and  O_30
REMARK    5  A    between atoms: C_27  and  O_32
REMARK                            x       y       z     vdW  Elec       q    Type
REMARK                         _______ _______ _______ _____ _____    ______ ____
ROOT
ATOM      1  N   UNL     1      34.916 -18.252 -21.946  0.00  0.00    -0.260 N 
ATOM      2  N   UNL     1      33.797 -13.833 -23.204  0.00  0.00    -0.247 N 
ATOM      3  N   UNL     1      34.347 -16.033 -22.600  0.00  0.00    -0.322 NA
ATOM      4  N   UNL     1      34.448 -14.245 -20.986  0.00  0.00    -0.170 NA
ATOM      5  C   UNL     1      34.752 -16.880 -21.630  0.00  0.00    +0.201 C 
ATOM      6  C   UNL     1      35.026 -18.622 -23.361  0.00  0.00    +0.120 C 
ATOM      7  C   UNL     1      35.020 -16.490 -20.334  0.00  0.00    +0.070 C 
ATOM      8  C   UNL     1      34.218 -14.749 -22.215  0.00  0.00    +0.150 C 
ATOM      9  C   UNL     1      34.849 -15.147 -20.067  0.00  0.00    +0.116 C 
ATOM     10  H   UNL     1      33.641 -14.246 -24.084  0.00  0.00    +0.165 HD
ENDROOT
BRANCH   1  14
ATOM     11  N   UNL     1      35.625 -22.659 -18.279  0.00  0.00    -0.280 N 
ATOM     12  N   UNL     1      36.441 -21.813 -18.937  0.00  0.00    -0.173 NA
ATOM     13  C   UNL     1      34.250 -21.409 -19.376  0.00  0.00    +0.032 A 
ATOM     14  C   UNL     1      34.743 -19.344 -21.053  0.00  0.00    +0.055 C 
ATOM     15  C   UNL     1      35.614 -21.015 -19.634  0.00  0.00    +0.103 A 
ATOM     16  C   UNL     1      34.294 -22.461 -18.507  0.00  0.00    +0.053 A 
ATOM     17  C   UNL     1      35.897 -19.944 -20.502  0.00  0.00    +0.036 C 
ATOM     18  C   UNL     1      33.095 -20.839 -19.900  0.00  0.00    +0.004 C 
ATOM     19  C   UNL     1      33.409 -19.772 -20.764  0.00  0.00    +0.015 C 
ATOM     20  C   UNL     1      33.261 -23.296 -17.871  0.00  0.00    +0.051 C 
ATOM     21  H   UNL     1      35.962 -23.365 -17.681  0.00  0.00    +0.189 HD
ENDBRANCH   1  14
BRANCH   2  22
ATOM     22  C   UNL     1      33.556 -12.447 -23.178  0.00  0.00    +0.064 C 
ATOM     23  C   UNL     1      34.352 -11.588 -23.933  0.00  0.00    +0.055 C 
ATOM     24  C   UNL     1      32.519 -11.933 -22.397  0.00  0.00    +0.055 C 
ATOM     25  C   UNL     1      32.279 -10.560 -22.375  0.00  0.00    +0.177 C 
ATOM     26  C   UNL     1      34.111 -10.213 -23.909  0.00  0.00    +0.177 C 
ATOM     27  C   UNL     1      33.075  -9.700 -23.130  0.00  0.00    +0.206 C 
BRANCH  25  28
ATOM     28  O   UNL     1      31.263 -10.071 -21.609  0.00  0.00    -0.468 OA
ATOM     29  C   UNL     1      31.479 -10.025 -20.200  0.00  0.00    +0.253 C 
ENDBRANCH  25  28
BRANCH  26  30
ATOM     30  O   UNL     1      34.897  -9.384 -24.653  0.00  0.00    -0.468 OA
ATOM     31  C   UNL     1      35.929  -9.990 -25.426  0.00  0.00    +0.253 C 
ENDBRANCH  26  30
BRANCH  27  32
ATOM     32  O   UNL     1      32.841  -8.357 -23.106  0.00  0.00    -0.465 OA
ATOM     33  C   UNL     1      33.567  -7.590 -22.149  0.00  0.00    +0.253 C 
ENDBRANCH  27  32
ENDBRANCH   2  22
TORSDOF 5
ENDMDL
MODEL 6
REMARK VINA RESULT:      -9.6      1.535      2.001
REMARK  Name = 24941243
REMARK  5 active torsions:
REMARK  status: ('A' for Active; 'I' for Inactive)
REMARK    1  A    between atoms: N_1  and  C_14
REMARK    2  A    between atoms: N_2  and  C_22
REMARK    3  A    between atoms: C_25  and  O_28
REMARK    4  A    between atoms: C_26  and  O_30
REMARK    5  A    between atoms: C_27  and  O_32
REMARK                            x       y       z     vdW  Elec       q    Type
REMARK                         _______ _______ _______ _____ _____    ______ ____
ROOT
ATOM      1  N   UNL     1      35.739 -19.708 -21.238  0.00  0.00    -0.260 N 
ATOM      2  N   UNL     1      35.062 -22.180 -17.263  0.00  0.00    -0.247 N 
ATOM      3  N   UNL     1      35.419 -20.952 -19.230  0.00  0.00    -0.322 NA
ATOM      4  N   UNL     1      33.213 -21.715 -18.632  0.00  0.00    -0.170 NA
ATOM      5  C   UNL     1      34.886 -20.397 -20.339  0.00  0.00    +0.201 C 
ATOM      6  C   UNL     1      37.181 -19.959 -21.142  0.00  0.00    +0.120 C 
ATOM      7  C   UNL     1      33.545 -20.458 -20.658  0.00  0.00    +0.070 C 
ATOM      8  C   UNL     1      34.539 -21.586 -18.433  0.00  0.00    +0.150 C 
ATOM      9  C   UNL     1      32.748 -21.137 -19.759  0.00  0.00    +0.116 C 
ATOM     10  H   UNL     1      36.034 -22.060 -17.159  0.00  0.00    +0.165 HD
ENDROOT
BRANCH   1  14
ATOM     11  N   UNL     1      34.509 -14.510 -23.435  0.00  0.00    -0.280 N 
ATOM     12  N   UNL     1      34.909 -14.979 -22.238  0.00  0.00    -0.173 NA
ATOM     13  C   UNL     1      34.655 -16.637 -23.768  0.00  0.00    +0.032 A 
ATOM     14  C   UNL     1      35.375 -18.614 -22.066  0.00  0.00    +0.055 C 
ATOM     15  C   UNL     1      35.012 -16.308 -22.409  0.00  0.00    +0.103 A 
ATOM     16  C   UNL     1      34.339 -15.466 -24.395  0.00  0.00    +0.053 A 
ATOM     17  C   UNL     1      35.390 -17.318 -21.505  0.00  0.00    +0.036 C 
ATOM     18  C   UNL     1      34.631 -17.899 -24.350  0.00  0.00    +0.004 C 
ATOM     19  C   UNL     1      35.013 -18.888 -23.423  0.00  0.00    +0.015 C 
ATOM     20  C   UNL     1      33.903 -15.131 -25.760  0.00  0.00    +0.051 C 
ATOM     21  H   UNL     1      34.351 -13.553 -23.605  0.00  0.00    +0.189 HD
ENDBRANCH   1  14
BRANCH   2  22
ATOM     22  C   UNL     1      34.467 -22.908 -16.217  0.00  0.00    +0.064 C 
ATOM     23  C   UNL     1      35.264 -23.629 -15.328  0.00  0.00    +0.055 C 
ATOM     24  C   UNL     1      33.079 -22.908 -16.067  0.00  0.00    +0.055 C 
ATOM     25  C   UNL     1      32.490 -23.627 -15.029  0.00  0.00    +0.177 C 
ATOM     26  C   UNL     1      34.674 -24.349 -14.289  0.00  0.00    +0.177 C 
ATOM     27  C   UNL     1      33.287 -24.348 -14.139  0.00  0.00    +0.206 C 
BRANCH  25  28
ATOM     28  O   UNL     1      31.134 -23.618 -14.893  0.00  0.00    -0.468 OA
ATOM     29  C   UNL     1      30.379 -23.085 -15.978  0.00  0.00    +0.253 C 
ENDBRANCH  25  28
BRANCH  26  30
ATOM     30  O   UNL     1      35.464 -25.050 -13.428  0.00  0.00    -0.468 OA
ATOM     31  C   UNL     1      35.944 -24.356 -12.279  0.00  0.00    +0.253 C 
ENDBRANCH  26  30
BRANCH  27  32
ATOM     32  O   UNL     1      32.710 -25.053 -13.125  0.00  0.00    -0.465 OA
ATOM     33  C   UNL     1      31.368 -25.490 -13.322  0.00  0.00    +0.253 C 
ENDBRANCH  27  32
ENDBRANCH   2  22
TORSDOF 5
ENDMDL
MODEL 7
REMARK VINA RESULT:      -9.4      7.580     11.837
REMARK  Name = 24941243
REMARK  5 active torsions:
REMARK  status: ('A' for Active; 'I' for Inactive)
REMARK    1  A    between atoms: N_1  and  C_14
REMARK    2  A    between atoms: N_2  and  C_22
REMARK    3  A    between atoms: C_25  and  O_28
REMARK    4  A    between atoms: C_26  and  O_30
REMARK    5  A    between atoms: C_27  and  O_32
REMARK                            x       y       z     vdW  Elec       q    Type
REMARK                         _______ _______ _______ _____ _____    ______ ____
ROOT
ATOM      1  N   UNL     1      32.370  -7.789 -21.957  0.00  0.00    -0.260 N 
ATOM      2  N   UNL     1      33.155 -12.396 -22.674  0.00  0.00    -0.247 N 
ATOM      3  N   UNL     1      32.749 -10.115 -22.304  0.00  0.00    -0.322 NA
ATOM      4  N   UNL     1      34.453 -10.834 -23.851  0.00  0.00    -0.170 NA
ATOM      5  C   UNL     1      33.075  -8.839 -22.598  0.00  0.00    +0.201 C 
ATOM      6  C   UNL     1      31.615  -8.112 -20.742  0.00  0.00    +0.120 C 
ATOM      7  C   UNL     1      34.063  -8.486 -23.494  0.00  0.00    +0.070 C 
ATOM      8  C   UNL     1      33.468 -11.048 -22.956  0.00  0.00    +0.150 C 
ATOM      9  C   UNL     1      34.725  -9.536 -24.096  0.00  0.00    +0.116 C 
ATOM     10  H   UNL     1      32.430 -12.505 -22.016  0.00  0.00    +0.165 HD
ENDROOT
BRANCH   1  14
ATOM     11  N   UNL     1      30.357  -2.502 -23.127  0.00  0.00    -0.280 N 
ATOM     12  N   UNL     1      30.082  -3.458 -22.219  0.00  0.00    -0.173 NA
ATOM     13  C   UNL     1      31.744  -4.075 -23.638  0.00  0.00    +0.032 A 
ATOM     14  C   UNL     1      32.114  -6.500 -22.497  0.00  0.00    +0.055 C 
ATOM     15  C   UNL     1      30.932  -4.458 -22.508  0.00  0.00    +0.103 A 
ATOM     16  C   UNL     1      31.350  -2.821 -24.008  0.00  0.00    +0.053 A 
ATOM     17  C   UNL     1      31.106  -5.714 -21.896  0.00  0.00    +0.036 C 
ATOM     18  C   UNL     1      32.742  -4.823 -24.251  0.00  0.00    +0.004 C 
ATOM     19  C   UNL     1      32.893  -6.073 -23.618  0.00  0.00    +0.015 C 
ATOM     20  C   UNL     1      31.778  -1.894 -25.069  0.00  0.00    +0.051 C 
ATOM     21  H   UNL     1      29.880  -1.641 -23.154  0.00  0.00    +0.189 HD
ENDBRANCH   1  14
BRANCH   2  22
ATOM     22  C   UNL     1      33.676 -13.615 -23.147  0.00  0.00    +0.064 C 
ATOM     23  C   UNL     1      34.376 -14.456 -22.283  0.00  0.00    +0.055 C 
ATOM     24  C   UNL     1      33.491 -13.982 -24.481  0.00  0.00    +0.055 C 
ATOM     25  C   UNL     1      34.004 -15.191 -24.948  0.00  0.00    +0.177 C 
ATOM     26  C   UNL     1      34.891 -15.665 -22.752  0.00  0.00    +0.177 C 
ATOM     27  C   UNL     1      34.705 -16.033 -24.085  0.00  0.00    +0.206 C 
BRANCH  25  28
ATOM     28  O   UNL     1      33.816 -15.538 -26.253  0.00  0.00    -0.468 OA
ATOM     29  C   UNL     1      33.522 -14.485 -27.167  0.00  0.00    +0.253 C 
ENDBRANCH  25  28
BRANCH  26  30
ATOM     30  O   UNL     1      35.573 -16.478 -21.897  0.00  0.00    -0.468 OA
ATOM     31  C   UNL     1      34.811 -17.160 -20.904  0.00  0.00    +0.253 C 
ENDBRANCH  26  30
BRANCH  27  32
ATOM     32  O   UNL     1      35.209 -17.213 -24.543  0.00  0.00    -0.465 OA
ATOM     33  C   UNL     1      34.464 -18.393 -24.249  0.00  0.00    +0.253 C 
ENDBRANCH  27  32
ENDBRANCH   2  22
TORSDOF 5
ENDMDL
MODEL 8
REMARK VINA RESULT:      -9.3      7.562     11.920
REMARK  Name = 24941243
REMARK  5 active torsions:
REMARK  status: ('A' for Active; 'I' for Inactive)
REMARK    1  A    between atoms: N_1  and  C_14
REMARK    2  A    between atoms: N_2  and  C_22
REMARK    3  A    between atoms: C_25  and  O_28
REMARK    4  A    between atoms: C_26  and  O_30
REMARK    5  A    between atoms: C_27  and  O_32
REMARK                            x       y       z     vdW  Elec       q    Type
REMARK                         _______ _______ _______ _____ _____    ______ ____
ROOT
ATOM      1  N   UNL     1      32.346  -7.821 -21.934  0.00  0.00    -0.260 N 
ATOM      2  N   UNL     1      33.144 -12.426 -22.655  0.00  0.00    -0.247 N 
ATOM      3  N   UNL     1      32.732 -10.147 -22.284  0.00  0.00    -0.322 NA
ATOM      4  N   UNL     1      34.471 -10.859 -23.793  0.00  0.00    -0.170 NA
ATOM      5  C   UNL     1      33.065  -8.869 -22.563  0.00  0.00    +0.201 C 
ATOM      6  C   UNL     1      31.563  -8.150 -20.738  0.00  0.00    +0.120 C 
ATOM      7  C   UNL     1      34.074  -8.512 -23.434  0.00  0.00    +0.070 C 
ATOM      8  C   UNL     1      33.465 -11.077 -22.924  0.00  0.00    +0.150 C 
ATOM      9  C   UNL     1      34.750  -9.560 -24.026  0.00  0.00    +0.116 C 
ATOM     10  H   UNL     1      32.404 -12.537 -22.015  0.00  0.00    +0.165 HD
ENDROOT
BRANCH   1  14
ATOM     11  N   UNL     1      30.384  -2.517 -23.108  0.00  0.00    -0.280 N 
ATOM     12  N   UNL     1      30.095  -3.472 -22.203  0.00  0.00    -0.173 NA
ATOM     13  C   UNL     1      31.760  -4.100 -23.614  0.00  0.00    +0.032 A 
ATOM     14  C   UNL     1      32.104  -6.530 -22.473  0.00  0.00    +0.055 C 
ATOM     15  C   UNL     1      30.939  -4.479 -22.489  0.00  0.00    +0.103 A 
ATOM     16  C   UNL     1      31.378  -2.842 -23.984  0.00  0.00    +0.053 A 
ATOM     17  C   UNL     1      31.098  -5.736 -21.878  0.00  0.00    +0.036 C 
ATOM     18  C   UNL     1      32.756  -4.856 -24.221  0.00  0.00    +0.004 C 
ATOM     19  C   UNL     1      32.893  -6.107 -23.589  0.00  0.00    +0.015 C 
ATOM     20  C   UNL     1      31.821  -1.917 -25.040  0.00  0.00    +0.051 C 
ATOM     21  H   UNL     1      29.913  -1.652 -23.136  0.00  0.00    +0.189 HD
ENDBRANCH   1  14
BRANCH   2  22
ATOM     22  C   UNL     1      33.676 -13.642 -23.122  0.00  0.00    +0.064 C 
ATOM     23  C   UNL     1      33.504 -14.012 -24.455  0.00  0.00    +0.055 C 
ATOM     24  C   UNL     1      34.377 -14.478 -22.251  0.00  0.00    +0.055 C 
ATOM     25  C   UNL     1      34.906 -15.681 -22.716  0.00  0.00    +0.177 C 
ATOM     26  C   UNL     1      34.033 -15.216 -24.919  0.00  0.00    +0.177 C 
ATOM     27  C   UNL     1      34.735 -16.051 -24.049  0.00  0.00    +0.206 C 
BRANCH  25  28
ATOM     28  O   UNL     1      35.589 -16.488 -21.855  0.00  0.00    -0.468 OA
ATOM     29  C   UNL     1      34.816 -17.258 -20.938  0.00  0.00    +0.253 C 
ENDBRANCH  25  28
BRANCH  26  30
ATOM     30  O   UNL     1      33.858 -15.565 -26.225  0.00  0.00    -0.468 OA
ATOM     31  C   UNL     1      33.503 -14.524 -27.132  0.00  0.00    +0.253 C 
ENDBRANCH  26  30
BRANCH  27  32
ATOM     32  O   UNL     1      35.251 -17.229 -24.502  0.00  0.00    -0.465 OA
ATOM     33  C   UNL     1      34.505 -18.412 -24.225  0.00  0.00    +0.253 C 
ENDBRANCH  27  32
ENDBRANCH   2  22
TORSDOF 5
ENDMDL
