MODEL 1
REMARK VINA RESULT:     -10.9      0.000      0.000
REMARK  Name = 2267
REMARK  3 active torsions:
REMARK  status: ('A' for Active; 'I' for Inactive)
REMARK    1  A    between atoms: N_2  and  C_13
REMARK    2  A    between atoms: C_6  and  C_21
REMARK    3  A    between atoms: C_21  and  C_23
REMARK                            x       y       z     vdW  Elec       q    Type
REMARK                         _______ _______ _______ _____ _____    ______ ____
ROOT
ATOM      1  O   UNL     1      32.487 -22.628 -18.330  0.00  0.00    -0.266 OA
ATOM      2  N   UNL     1      33.880 -23.106 -16.536  0.00  0.00    -0.219 N 
ATOM      3  N   UNL     1      35.111 -23.034 -15.949  0.00  0.00    -0.171 NA
ATOM      4  C   UNL     1      33.590 -22.570 -17.789  0.00  0.00    +0.276 A 
ATOM      5  C   UNL     1      34.693 -21.893 -18.496  0.00  0.00    +0.059 A 
ATOM      6  C   UNL     1      36.084 -22.440 -16.565  0.00  0.00    +0.083 A 
ATOM      7  C   UNL     1      35.944 -21.823 -17.894  0.00  0.00    +0.020 A 
ATOM      8  C   UNL     1      34.488 -21.328 -19.759  0.00  0.00    +0.005 C 
ATOM      9  C   UNL     1      37.002 -21.186 -18.551  0.00  0.00    +0.001 C 
ATOM     10  C   UNL     1      35.542 -20.693 -20.414  0.00  0.00    +0.000 C 
ATOM     11  C   UNL     1      36.796 -20.622 -19.811  0.00  0.00    +0.000 C 
ENDROOT
BRANCH   2  13
ATOM     12  N   UNL     1      30.370 -24.867 -14.526  0.00  0.00    +0.386 N 
ATOM     13  C   UNL     1      32.874 -23.794 -15.753  0.00  0.00    +0.106 C 
ATOM     14  C   UNL     1      33.430 -24.052 -14.349  0.00  0.00    +0.022 C 
ATOM     15  C   UNL     1      31.596 -22.953 -15.708  0.00  0.00    +0.002 C 
ATOM     16  C   UNL     1      32.586 -24.968 -13.467  0.00  0.00    -0.021 C 
ATOM     17  C   UNL     1      30.308 -23.751 -15.475  0.00  0.00    -0.075 C 
ATOM     18  C   UNL     1      31.116 -24.574 -13.303  0.00  0.00    -0.077 C 
ATOM     19  C   UNL     1      29.016 -25.339 -14.226  0.00  0.00    -0.101 C 
ATOM     20  H   UNL     1      30.898 -25.609 -14.985  0.00  0.00    -0.080 HD
ENDBRANCH   2  13
BRANCH   6  21
ATOM     21  C   UNL     1      37.422 -22.392 -15.866  0.00  0.00    +0.074 C 
BRANCH  21  23
ATOM     22 CL   UNL     1      37.636 -26.455 -11.454  0.00  0.00    -0.082 Cl
ATOM     23  C   UNL     1      37.476 -23.404 -14.766  0.00  0.00    -0.016 C 
ATOM     24  C   UNL     1      38.016 -24.665 -15.010  0.00  0.00    -0.003 C 
ATOM     25  C   UNL     1      36.985 -23.083 -13.503  0.00  0.00    -0.003 C 
ATOM     26  C   UNL     1      38.066 -25.609 -13.985  0.00  0.00    +0.011 C 
ATOM     27  C   UNL     1      37.034 -24.027 -12.478  0.00  0.00    +0.011 C 
ATOM     28  C   UNL     1      37.575 -25.290 -12.718  0.00  0.00    +0.058 C 
ENDBRANCH  21  23
ENDBRANCH   6  21
TORSDOF 3
ENDMDL
MODEL 2
REMARK VINA RESULT:     -10.6      1.533      5.557
REMARK  Name = 2267
REMARK  3 active torsions:
REMARK  status: ('A' for Active; 'I' for Inactive)
REMARK    1  A    between atoms: N_2  and  C_13
REMARK    2  A    between atoms: C_6  and  C_21
REMARK    3  A    between atoms: C_21  and  C_23
REMARK                            x       y       z     vdW  Elec       q    Type
REMARK                         _______ _______ _______ _____ _____    ______ ____
ROOT
ATOM      1  O   UNL     1      31.596 -22.685 -17.325  0.00  0.00    -0.266 OA
ATOM      2  N   UNL     1      33.620 -22.923 -16.214  0.00  0.00    -0.219 N 
ATOM      3  N   UNL     1      34.330 -23.401 -15.150  0.00  0.00    -0.171 NA
ATOM      4  C   UNL     1      32.247 -23.109 -16.373  0.00  0.00    +0.276 A 
ATOM      5  C   UNL     1      31.552 -23.867 -15.317  0.00  0.00    +0.059 A 
ATOM      6  C   UNL     1      33.724 -24.068 -14.219  0.00  0.00    +0.083 A 
ATOM      7  C   UNL     1      32.279 -24.350 -14.235  0.00  0.00    +0.020 A 
ATOM      8  C   UNL     1      30.174 -24.098 -15.397  0.00  0.00    +0.005 C 
ATOM      9  C   UNL     1      31.635 -25.070 -13.224  0.00  0.00    +0.001 C 
ATOM     10  C   UNL     1      29.532 -24.816 -14.389  0.00  0.00    +0.000 C 
ATOM     11  C   UNL     1      30.261 -25.300 -13.305  0.00  0.00    +0.000 C 
ENDROOT
BRANCH   2  13
ATOM     12  N   UNL     1      35.478 -20.769 -19.586  0.00  0.00    +0.386 N 
ATOM     13  C   UNL     1      34.405 -22.193 -17.188  0.00  0.00    +0.106 C 
ATOM     14  C   UNL     1      35.888 -22.501 -16.960  0.00  0.00    +0.022 C 
ATOM     15  C   UNL     1      33.958 -22.581 -18.601  0.00  0.00    +0.002 C 
ATOM     16  C   UNL     1      36.867 -21.639 -17.753  0.00  0.00    -0.021 C 
ATOM     17  C   UNL     1      34.221 -21.519 -19.673  0.00  0.00    -0.075 C 
ATOM     18  C   UNL     1      36.646 -21.591 -19.266  0.00  0.00    -0.077 C 
ATOM     19  C   UNL     1      35.686 -20.001 -20.816  0.00  0.00    -0.101 C 
ATOM     20  H   UNL     1      35.381 -20.132 -18.795  0.00  0.00    -0.080 HD
ENDBRANCH   2  13
BRANCH   6  21
ATOM     21  C   UNL     1      34.561 -24.571 -13.067  0.00  0.00    +0.074 C 
BRANCH  21  23
ATOM     22 CL   UNL     1      40.168 -25.714 -14.876  0.00  0.00    -0.082 Cl
ATOM     23  C   UNL     1      35.958 -24.855 -13.518  0.00  0.00    -0.016 C 
ATOM     24  C   UNL     1      36.204 -25.914 -14.389  0.00  0.00    -0.003 C 
ATOM     25  C   UNL     1      37.009 -24.060 -13.065  0.00  0.00    -0.003 C 
ATOM     26  C   UNL     1      37.506 -26.180 -14.809  0.00  0.00    +0.011 C 
ATOM     27  C   UNL     1      38.312 -24.326 -13.485  0.00  0.00    +0.011 C 
ATOM     28  C   UNL     1      38.561 -25.386 -14.358  0.00  0.00    +0.058 C 
ENDBRANCH  21  23
ENDBRANCH   6  21
TORSDOF 3
ENDMDL
MODEL 3
REMARK VINA RESULT:     -10.4      2.885      6.654
REMARK  Name = 2267
REMARK  3 active torsions:
REMARK  status: ('A' for Active; 'I' for Inactive)
REMARK    1  A    between atoms: N_2  and  C_13
REMARK    2  A    between atoms: C_6  and  C_21
REMARK    3  A    between atoms: C_21  and  C_23
REMARK                            x       y       z     vdW  Elec       q    Type
REMARK                         _______ _______ _______ _____ _____    ______ ____
ROOT
ATOM      1  O   UNL     1      33.873 -23.731 -12.770  0.00  0.00    -0.266 OA
ATOM      2  N   UNL     1      34.791 -23.802 -14.901  0.00  0.00    -0.219 N 
ATOM      3  N   UNL     1      34.636 -23.699 -16.253  0.00  0.00    -0.171 NA
ATOM      4  C   UNL     1      33.748 -23.642 -13.990  0.00  0.00    +0.276 A 
ATOM      5  C   UNL     1      32.416 -23.346 -14.549  0.00  0.00    +0.059 A 
ATOM      6  C   UNL     1      33.468 -23.440 -16.750  0.00  0.00    +0.083 A 
ATOM      7  C   UNL     1      32.264 -23.244 -15.927  0.00  0.00    +0.020 A 
ATOM      8  C   UNL     1      31.314 -23.172 -13.705  0.00  0.00    +0.005 C 
ATOM      9  C   UNL     1      31.007 -22.966 -16.473  0.00  0.00    +0.001 C 
ATOM     10  C   UNL     1      30.060 -22.894 -14.250  0.00  0.00    +0.000 C 
ATOM     11  C   UNL     1      29.908 -22.792 -15.631  0.00  0.00    +0.000 C 
ENDROOT
BRANCH   2  13
ATOM     12  N   UNL     1      38.848 -25.252 -13.951  0.00  0.00    +0.386 N 
ATOM     13  C   UNL     1      36.141 -24.096 -14.465  0.00  0.00    +0.106 C 
ATOM     14  C   UNL     1      36.346 -23.516 -13.062  0.00  0.00    +0.022 C 
ATOM     15  C   UNL     1      36.368 -25.610 -14.489  0.00  0.00    +0.002 C 
ATOM     16  C   UNL     1      37.783 -23.538 -12.547  0.00  0.00    -0.021 C 
ATOM     17  C   UNL     1      37.830 -26.038 -14.656  0.00  0.00    -0.075 C 
ATOM     18  C   UNL     1      38.487 -24.897 -12.579  0.00  0.00    -0.077 C 
ATOM     19  C   UNL     1      40.136 -25.947 -14.001  0.00  0.00    -0.101 C 
ATOM     20  H   UNL     1      38.919 -24.362 -14.443  0.00  0.00    -0.080 HD
ENDBRANCH   2  13
BRANCH   6  21
ATOM     21  C   UNL     1      33.359 -23.339 -18.253  0.00  0.00    +0.074 C 
BRANCH  21  23
ATOM     22 CL   UNL     1      37.229 -19.275 -20.382  0.00  0.00    -0.082 Cl
ATOM     23  C   UNL     1      34.323 -22.326 -18.783  0.00  0.00    -0.016 C 
ATOM     24  C   UNL     1      33.893 -21.377 -19.708  0.00  0.00    -0.003 C 
ATOM     25  C   UNL     1      35.648 -22.336 -18.351  0.00  0.00    -0.003 C 
ATOM     26  C   UNL     1      34.792 -20.432 -20.202  0.00  0.00    +0.011 C 
ATOM     27  C   UNL     1      36.547 -21.392 -18.846  0.00  0.00    +0.011 C 
ATOM     28  C   UNL     1      36.119 -20.440 -19.772  0.00  0.00    +0.058 C 
ENDBRANCH  21  23
ENDBRANCH   6  21
TORSDOF 3
ENDMDL
MODEL 4
REMARK VINA RESULT:      -9.9      2.916      6.898
REMARK  Name = 2267
REMARK  3 active torsions:
REMARK  status: ('A' for Active; 'I' for Inactive)
REMARK    1  A    between atoms: N_2  and  C_13
REMARK    2  A    between atoms: C_6  and  C_21
REMARK    3  A    between atoms: C_21  and  C_23
REMARK                            x       y       z     vdW  Elec       q    Type
REMARK                         _______ _______ _______ _____ _____    ______ ____
ROOT
ATOM      1  O   UNL     1      37.291 -22.163 -14.971  0.00  0.00    -0.266 OA
ATOM      2  N   UNL     1      35.117 -22.866 -15.377  0.00  0.00    -0.219 N 
ATOM      3  N   UNL     1      34.003 -23.543 -14.970  0.00  0.00    -0.171 NA
ATOM      4  C   UNL     1      36.282 -22.769 -14.618  0.00  0.00    +0.276 A 
ATOM      5  C   UNL     1      36.282 -23.447 -13.309  0.00  0.00    +0.059 A 
ATOM      6  C   UNL     1      33.997 -24.140 -13.821  0.00  0.00    +0.083 A 
ATOM      7  C   UNL     1      35.146 -24.137 -12.900  0.00  0.00    +0.020 A 
ATOM      8  C   UNL     1      37.411 -23.402 -12.484  0.00  0.00    +0.005 C 
ATOM      9  C   UNL     1      35.129 -24.786 -11.662  0.00  0.00    +0.001 C 
ATOM     10  C   UNL     1      37.394 -24.050 -11.249  0.00  0.00    +0.000 C 
ATOM     11  C   UNL     1      36.256 -24.740 -10.840  0.00  0.00    +0.000 C 
ENDROOT
BRANCH   2  13
ATOM     12  N   UNL     1      34.130 -21.151 -19.320  0.00  0.00    +0.386 N 
ATOM     13  C   UNL     1      35.005 -22.240 -16.679  0.00  0.00    +0.106 C 
ATOM     14  C   UNL     1      36.351 -22.356 -17.402  0.00  0.00    +0.022 C 
ATOM     15  C   UNL     1      33.878 -22.908 -17.472  0.00  0.00    +0.002 C 
ATOM     16  C   UNL     1      36.474 -21.551 -18.693  0.00  0.00    -0.021 C 
ATOM     17  C   UNL     1      33.240 -22.025 -18.550  0.00  0.00    -0.075 C 
ATOM     18  C   UNL     1      35.380 -21.787 -19.737  0.00  0.00    -0.077 C 
ATOM     19  C   UNL     1      33.409 -20.590 -20.464  0.00  0.00    -0.101 C 
ATOM     20  H   UNL     1      34.415 -20.400 -18.692  0.00  0.00    -0.080 HD
ENDBRANCH   2  13
BRANCH   6  21
ATOM     21  C   UNL     1      32.737 -24.874 -13.426  0.00  0.00    +0.074 C 
BRANCH  21  23
ATOM     22 CL   UNL     1      27.986 -22.611 -16.311  0.00  0.00    -0.082 Cl
ATOM     23  C   UNL     1      31.554 -24.311 -14.146  0.00  0.00    -0.016 C 
ATOM     24  C   UNL     1      31.342 -22.934 -14.158  0.00  0.00    -0.003 C 
ATOM     25  C   UNL     1      30.668 -25.164 -14.799  0.00  0.00    -0.003 C 
ATOM     26  C   UNL     1      30.238 -22.407 -14.829  0.00  0.00    +0.011 C 
ATOM     27  C   UNL     1      29.563 -24.638 -15.469  0.00  0.00    +0.011 C 
ATOM     28  C   UNL     1      29.348 -23.259 -15.484  0.00  0.00    +0.058 C 
ENDBRANCH  21  23
ENDBRANCH   6  21
TORSDOF 3
ENDMDL
MODEL 5
REMARK VINA RESULT:      -9.5      2.827      6.764
REMARK  Name = 2267
REMARK  3 active torsions:
REMARK  status: ('A' for Active; 'I' for Inactive)
REMARK    1  A    between atoms: N_2  and  C_13
REMARK    2  A    between atoms: C_6  and  C_21
REMARK    3  A    between atoms: C_21  and  C_23
REMARK                            x       y       z     vdW  Elec       q    Type
REMARK                         _______ _______ _______ _____ _____    ______ ____
ROOT
ATOM      1  O   UNL     1      37.383 -22.623 -15.466  0.00  0.00    -0.266 OA
ATOM      2  N   UNL     1      35.081 -22.916 -15.511  0.00  0.00    -0.219 N 
ATOM      3  N   UNL     1      33.943 -23.390 -14.925  0.00  0.00    -0.171 NA
ATOM      4  C   UNL     1      36.350 -23.045 -14.950  0.00  0.00    +0.276 A 
ATOM      5  C   UNL     1      36.436 -23.736 -13.650  0.00  0.00    +0.059 A 
ATOM      6  C   UNL     1      34.012 -23.998 -13.783  0.00  0.00    +0.083 A 
ATOM      7  C   UNL     1      35.274 -24.218 -13.058  0.00  0.00    +0.020 A 
ATOM      8  C   UNL     1      37.672 -23.909 -13.017  0.00  0.00    +0.005 C 
ATOM      9  C   UNL     1      35.338 -24.877 -11.826  0.00  0.00    +0.001 C 
ATOM     10  C   UNL     1      37.735 -24.567 -11.789  0.00  0.00    +0.000 C 
ATOM     11  C   UNL     1      36.571 -25.049 -11.195  0.00  0.00    +0.000 C 
ENDROOT
BRANCH   2  13
ATOM     12  N   UNL     1      33.822 -21.110 -19.335  0.00  0.00    +0.386 N 
ATOM     13  C   UNL     1      34.878 -22.257 -16.785  0.00  0.00    +0.106 C 
ATOM     14  C   UNL     1      36.178 -22.327 -17.593  0.00  0.00    +0.022 C 
ATOM     15  C   UNL     1      33.715 -22.923 -17.527  0.00  0.00    +0.002 C 
ATOM     16  C   UNL     1      36.206 -21.484 -18.865  0.00  0.00    -0.021 C 
ATOM     17  C   UNL     1      32.996 -22.022 -18.536  0.00  0.00    -0.075 C 
ATOM     18  C   UNL     1      35.054 -21.711 -19.847  0.00  0.00    -0.077 C 
ATOM     19  C   UNL     1      33.022 -20.531 -20.415  0.00  0.00    -0.101 C 
ATOM     20  H   UNL     1      34.132 -20.372 -18.703  0.00  0.00    -0.080 HD
ENDBRANCH   2  13
BRANCH   6  21
ATOM     21  C   UNL     1      32.720 -24.501 -13.184  0.00  0.00    +0.074 C 
BRANCH  21  23
ATOM     22 CL   UNL     1      28.090 -23.195 -16.772  0.00  0.00    -0.082 Cl
ATOM     23  C   UNL     1      31.565 -24.175 -14.077  0.00  0.00    -0.016 C 
ATOM     24  C   UNL     1      30.826 -25.204 -14.657  0.00  0.00    -0.003 C 
ATOM     25  C   UNL     1      31.235 -22.845 -14.327  0.00  0.00    -0.003 C 
ATOM     26  C   UNL     1      29.750 -24.900 -15.491  0.00  0.00    +0.011 C 
ATOM     27  C   UNL     1      30.159 -22.542 -15.161  0.00  0.00    +0.011 C 
ATOM     28  C   UNL     1      29.416 -23.569 -15.743  0.00  0.00    +0.058 C 
ENDBRANCH  21  23
ENDBRANCH   6  21
TORSDOF 3
ENDMDL
MODEL 6
REMARK VINA RESULT:      -9.0      1.753      2.663
REMARK  Name = 2267
REMARK  3 active torsions:
REMARK  status: ('A' for Active; 'I' for Inactive)
REMARK    1  A    between atoms: N_2  and  C_13
REMARK    2  A    between atoms: C_6  and  C_21
REMARK    3  A    between atoms: C_21  and  C_23
REMARK                            x       y       z     vdW  Elec       q    Type
REMARK                         _______ _______ _______ _____ _____    ______ ____
ROOT
ATOM      1  O   UNL     1      33.265 -22.612 -17.840  0.00  0.00    -0.266 OA
ATOM      2  N   UNL     1      33.102 -23.524 -15.712  0.00  0.00    -0.219 N 
ATOM      3  N   UNL     1      33.690 -23.858 -14.526  0.00  0.00    -0.171 NA
ATOM      4  C   UNL     1      33.781 -22.919 -16.767  0.00  0.00    +0.276 A 
ATOM      5  C   UNL     1      35.214 -22.637 -16.562  0.00  0.00    +0.059 A 
ATOM      6  C   UNL     1      34.948 -23.613 -14.340  0.00  0.00    +0.083 A 
ATOM      7  C   UNL     1      35.809 -22.980 -15.353  0.00  0.00    +0.020 A 
ATOM      8  C   UNL     1      35.972 -22.032 -17.571  0.00  0.00    +0.005 C 
ATOM      9  C   UNL     1      37.166 -22.722 -15.142  0.00  0.00    +0.001 C 
ATOM     10  C   UNL     1      37.326 -21.774 -17.361  0.00  0.00    +0.000 C 
ATOM     11  C   UNL     1      37.921 -22.119 -16.149  0.00  0.00    +0.000 C 
ENDROOT
BRANCH   2  13
ATOM     12  N   UNL     1      28.735 -23.889 -16.231  0.00  0.00    +0.386 N 
ATOM     13  C   UNL     1      31.692 -23.848 -15.803  0.00  0.00    +0.106 C 
ATOM     14  C   UNL     1      31.340 -24.842 -14.691  0.00  0.00    +0.022 C 
ATOM     15  C   UNL     1      30.864 -22.565 -15.697  0.00  0.00    +0.002 C 
ATOM     16  C   UNL     1      29.948 -25.461 -14.781  0.00  0.00    -0.021 C 
ATOM     17  C   UNL     1      29.484 -22.634 -16.361  0.00  0.00    -0.075 C 
ATOM     18  C   UNL     1      28.781 -24.478 -14.892  0.00  0.00    -0.077 C 
ATOM     19  C   UNL     1      27.356 -23.693 -16.681  0.00  0.00    -0.101 C 
ATOM     20  H   UNL     1      29.201 -24.567 -16.832  0.00  0.00    -0.080 HD
ENDBRANCH   2  13
BRANCH   6  21
ATOM     21  C   UNL     1      35.543 -24.006 -13.008  0.00  0.00    +0.074 C 
BRANCH  21  23
ATOM     22 CL   UNL     1      40.816 -26.763 -13.793  0.00  0.00    -0.082 Cl
ATOM     23  C   UNL     1      36.857 -24.694 -13.203  0.00  0.00    -0.016 C 
ATOM     24  C   UNL     1      37.981 -24.251 -12.510  0.00  0.00    -0.003 C 
ATOM     25  C   UNL     1      36.952 -25.774 -14.078  0.00  0.00    -0.003 C 
ATOM     26  C   UNL     1      39.206 -24.891 -12.692  0.00  0.00    +0.011 C 
ATOM     27  C   UNL     1      38.177 -26.414 -14.261  0.00  0.00    +0.011 C 
ATOM     28  C   UNL     1      39.305 -25.973 -13.568  0.00  0.00    +0.058 C 
ENDBRANCH  21  23
ENDBRANCH   6  21
TORSDOF 3
ENDMDL
MODEL 7
REMARK VINA RESULT:      -8.9     11.698     15.247
REMARK  Name = 2267
REMARK  3 active torsions:
REMARK  status: ('A' for Active; 'I' for Inactive)
REMARK    1  A    between atoms: N_2  and  C_13
REMARK    2  A    between atoms: C_6  and  C_21
REMARK    3  A    between atoms: C_21  and  C_23
REMARK                            x       y       z     vdW  Elec       q    Type
REMARK                         _______ _______ _______ _____ _____    ______ ____
ROOT
ATOM      1  O   UNL     1      32.058 -14.001 -20.653  0.00  0.00    -0.266 OA
ATOM      2  N   UNL     1      33.078 -12.965 -22.461  0.00  0.00    -0.219 N 
ATOM      3  N   UNL     1      33.463 -11.821 -23.100  0.00  0.00    -0.171 NA
ATOM      4  C   UNL     1      32.410 -12.979 -21.238  0.00  0.00    +0.276 A 
ATOM      5  C   UNL     1      32.115 -11.671 -20.626  0.00  0.00    +0.059 A 
ATOM      6  C   UNL     1      33.207 -10.669 -22.566  0.00  0.00    +0.083 A 
ATOM      7  C   UNL     1      32.508 -10.509 -21.280  0.00  0.00    +0.020 A 
ATOM      8  C   UNL     1      31.445 -11.594 -19.400  0.00  0.00    +0.005 C 
ATOM      9  C   UNL     1      32.235  -9.260 -20.714  0.00  0.00    +0.001 C 
ATOM     10  C   UNL     1      31.173 -10.349 -18.835  0.00  0.00    +0.000 C 
ATOM     11  C   UNL     1      31.567  -9.185 -19.491  0.00  0.00    +0.000 C 
ENDROOT
BRANCH   2  13
ATOM     12  N   UNL     1      34.459 -16.855 -24.019  0.00  0.00    +0.386 N 
ATOM     13  C   UNL     1      33.419 -14.190 -23.155  0.00  0.00    +0.106 C 
ATOM     14  C   UNL     1      33.473 -13.909 -24.660  0.00  0.00    +0.022 C 
ATOM     15  C   UNL     1      34.756 -14.721 -22.631  0.00  0.00    +0.002 C 
ATOM     16  C   UNL     1      33.595 -15.140 -25.554  0.00  0.00    -0.021 C 
ATOM     17  C   UNL     1      34.952 -16.233 -22.785  0.00  0.00    -0.075 C 
ATOM     18  C   UNL     1      34.749 -16.092 -25.233  0.00  0.00    -0.077 C 
ATOM     19  C   UNL     1      34.960 -18.227 -24.119  0.00  0.00    -0.101 C 
ATOM     20  H   UNL     1      33.442 -16.864 -23.952  0.00  0.00    -0.080 HD
ENDBRANCH   2  13
BRANCH   6  21
ATOM     21  C   UNL     1      33.656  -9.438 -23.319  0.00  0.00    +0.074 C 
BRANCH  21  23
ATOM     22 CL   UNL     1      30.262  -4.711 -21.853  0.00  0.00    -0.082 Cl
ATOM     23  C   UNL     1      32.810  -8.261 -22.953  0.00  0.00    -0.016 C 
ATOM     24  C   UNL     1      31.465  -8.236 -23.312  0.00  0.00    -0.003 C 
ATOM     25  C   UNL     1      33.372  -7.193 -22.256  0.00  0.00    -0.003 C 
ATOM     26  C   UNL     1      30.675  -7.138 -22.971  0.00  0.00    +0.011 C 
ATOM     27  C   UNL     1      32.583  -6.095 -21.916  0.00  0.00    +0.011 C 
ATOM     28  C   UNL     1      31.234  -6.066 -22.273  0.00  0.00    +0.058 C 
ENDBRANCH  21  23
ENDBRANCH   6  21
TORSDOF 3
ENDMDL
MODEL 8
REMARK VINA RESULT:      -8.8      1.465      5.675
REMARK  Name = 2267
REMARK  3 active torsions:
REMARK  status: ('A' for Active; 'I' for Inactive)
REMARK    1  A    between atoms: N_2  and  C_13
REMARK    2  A    between atoms: C_6  and  C_21
REMARK    3  A    between atoms: C_21  and  C_23
REMARK                            x       y       z     vdW  Elec       q    Type
REMARK                         _______ _______ _______ _____ _____    ______ ____
ROOT
ATOM      1  O   UNL     1      31.696 -22.344 -17.495  0.00  0.00    -0.266 OA
ATOM      2  N   UNL     1      33.363 -23.015 -16.026  0.00  0.00    -0.219 N 
ATOM      3  N   UNL     1      33.738 -23.688 -14.898  0.00  0.00    -0.171 NA
ATOM      4  C   UNL     1      32.048 -22.947 -16.482  0.00  0.00    +0.276 A 
ATOM      5  C   UNL     1      31.028 -23.650 -15.683  0.00  0.00    +0.059 A 
ATOM      6  C   UNL     1      32.847 -24.308 -14.192  0.00  0.00    +0.083 A 
ATOM      7  C   UNL     1      31.415 -24.333 -14.535  0.00  0.00    +0.020 A 
ATOM      8  C   UNL     1      29.684 -23.631 -16.070  0.00  0.00    +0.005 C 
ATOM      9  C   UNL     1      30.461 -25.004 -13.765  0.00  0.00    +0.001 C 
ATOM     10  C   UNL     1      28.732 -24.301 -15.301  0.00  0.00    +0.000 C 
ATOM     11  C   UNL     1      29.120 -24.985 -14.151  0.00  0.00    +0.000 C 
ENDROOT
BRANCH   2  13
ATOM     12  N   UNL     1      36.297 -21.128 -18.727  0.00  0.00    +0.386 N 
ATOM     13  C   UNL     1      34.447 -22.361 -16.730  0.00  0.00    +0.106 C 
ATOM     14  C   UNL     1      35.758 -22.637 -15.988  0.00  0.00    +0.022 C 
ATOM     15  C   UNL     1      34.497 -22.866 -18.175  0.00  0.00    +0.002 C 
ATOM     16  C   UNL     1      36.965 -21.835 -16.468  0.00  0.00    -0.021 C 
ATOM     17  C   UNL     1      35.129 -21.893 -19.175  0.00  0.00    -0.075 C 
ATOM     18  C   UNL     1      37.271 -21.912 -17.966  0.00  0.00    -0.077 C 
ATOM     19  C   UNL     1      36.925 -20.463 -19.870  0.00  0.00    -0.101 C 
ATOM     20  H   UNL     1      35.951 -20.430 -18.069  0.00  0.00    -0.080 HD
ENDBRANCH   2  13
BRANCH   6  21
ATOM     21  C   UNL     1      33.322 -25.034 -12.956  0.00  0.00    +0.074 C 
BRANCH  21  23
ATOM     22 CL   UNL     1      39.057 -23.694 -11.803  0.00  0.00    -0.082 Cl
ATOM     23  C   UNL     1      34.751 -24.701 -12.668  0.00  0.00    -0.016 C 
ATOM     24  C   UNL     1      35.064 -23.832 -11.626  0.00  0.00    -0.003 C 
ATOM     25  C   UNL     1      35.764 -25.260 -13.444  0.00  0.00    -0.003 C 
ATOM     26  C   UNL     1      36.397 -23.520 -11.357  0.00  0.00    +0.011 C 
ATOM     27  C   UNL     1      37.096 -24.948 -13.177  0.00  0.00    +0.011 C 
ATOM     28  C   UNL     1      37.413 -24.078 -12.133  0.00  0.00    +0.058 C 
ENDBRANCH  21  23
ENDBRANCH   6  21
TORSDOF 3
ENDMDL
MODEL 9
REMARK VINA RESULT:      -8.3      2.625      6.580
REMARK  Name = 2267
REMARK  3 active torsions:
REMARK  status: ('A' for Active; 'I' for Inactive)
REMARK    1  A    between atoms: N_2  and  C_13
REMARK    2  A    between atoms: C_6  and  C_21
REMARK    3  A    between atoms: C_21  and  C_23
REMARK                            x       y       z     vdW  Elec       q    Type
REMARK                         _______ _______ _______ _____ _____    ______ ____
ROOT
ATOM      1  O   UNL     1      32.464 -25.490 -12.784  0.00  0.00    -0.266 OA
ATOM      2  N   UNL     1      33.440 -24.301 -14.522  0.00  0.00    -0.219 N 
ATOM      3  N   UNL     1      33.309 -23.571 -15.669  0.00  0.00    -0.171 NA
ATOM      4  C   UNL     1      32.361 -24.831 -13.816  0.00  0.00    +0.276 A 
ATOM      5  C   UNL     1      31.016 -24.572 -14.363  0.00  0.00    +0.059 A 
ATOM      6  C   UNL     1      32.130 -23.340 -16.153  0.00  0.00    +0.083 A 
ATOM      7  C   UNL     1      30.888 -23.829 -15.531  0.00  0.00    +0.020 A 
ATOM      8  C   UNL     1      29.879 -25.069 -13.718  0.00  0.00    +0.005 C 
ATOM      9  C   UNL     1      29.621 -23.576 -16.064  0.00  0.00    +0.001 C 
ATOM     10  C   UNL     1      28.614 -24.816 -14.250  0.00  0.00    +0.000 C 
ATOM     11  C   UNL     1      28.487 -24.071 -15.420  0.00  0.00    +0.000 C 
ENDROOT
BRANCH   2  13
ATOM     12  N   UNL     1      37.516 -24.312 -12.834  0.00  0.00    +0.386 N 
ATOM     13  C   UNL     1      34.806 -24.494 -14.079  0.00  0.00    +0.106 C 
ATOM     14  C   UNL     1      35.581 -25.238 -15.170  0.00  0.00    +0.022 C 
ATOM     15  C   UNL     1      35.438 -23.135 -13.763  0.00  0.00    +0.002 C 
ATOM     16  C   UNL     1      36.973 -25.722 -14.773  0.00  0.00    -0.021 C 
ATOM     17  C   UNL     1      36.586 -23.180 -12.750  0.00  0.00    -0.075 C 
ATOM     18  C   UNL     1      37.914 -24.661 -14.198  0.00  0.00    -0.077 C 
ATOM     19  C   UNL     1      38.683 -24.061 -11.985  0.00  0.00    -0.101 C 
ATOM     20  H   UNL     1      37.010 -25.128 -12.490  0.00  0.00    -0.080 HD
ENDBRANCH   2  13
BRANCH   6  21
ATOM     21  C   UNL     1      32.048 -22.528 -17.424  0.00  0.00    +0.074 C 
BRANCH  21  23
ATOM     22 CL   UNL     1      37.546 -21.259 -19.469  0.00  0.00    -0.082 Cl
ATOM     23  C   UNL     1      33.418 -22.212 -17.935  0.00  0.00    -0.016 C 
ATOM     24  C   UNL     1      34.536 -22.571 -17.185  0.00  0.00    -0.003 C 
ATOM     25  C   UNL     1      33.571 -21.560 -19.156  0.00  0.00    -0.003 C 
ATOM     26  C   UNL     1      35.814 -22.276 -17.660  0.00  0.00    +0.011 C 
ATOM     27  C   UNL     1      34.848 -21.264 -19.631  0.00  0.00    +0.011 C 
ATOM     28  C   UNL     1      35.970 -21.623 -18.883  0.00  0.00    +0.058 C 
ENDBRANCH  21  23
ENDBRANCH   6  21
TORSDOF 3
ENDMDL
