MODEL 1
REMARK VINA RESULT:     -12.3      0.000      0.000
REMARK  Name = 60149
REMARK  5 active torsions:
REMARK  status: ('A' for Active; 'I' for Inactive)
REMARK    1  A    between atoms: N_2  and  C_12
REMARK    2  A    between atoms: C_3  and  C_19
REMARK    3  A    between atoms: N_18  and  C_25
REMARK    4  A    between atoms: C_25  and  C_26
REMARK    5  A    between atoms: C_26  and  N_28
REMARK                            x       y       z     vdW  Elec       q    Type
REMARK                         _______ _______ _______ _____ _____    ______ ____
ROOT
ATOM      1 CL   UNL     1      29.300 -22.922 -16.114  0.00  0.00    -0.082 Cl
ATOM      2  N   UNL     1      35.051 -23.655 -15.398  0.00  0.00    -0.265 N 
ATOM      3  C   UNL     1      34.461 -22.749 -17.330  0.00  0.00    -0.006 C 
ATOM      4  C   UNL     1      33.279 -22.998 -16.584  0.00  0.00    +0.012 C 
ATOM      5  C   UNL     1      35.534 -23.161 -16.580  0.00  0.00    +0.065 C 
ATOM      6  C   UNL     1      33.678 -23.567 -15.372  0.00  0.00    +0.055 C 
ATOM      7  C   UNL     1      31.904 -22.795 -16.818  0.00  0.00    +0.012 C 
ATOM      8  C   UNL     1      32.766 -23.945 -14.380  0.00  0.00    +0.016 C 
ATOM      9  C   UNL     1      30.982 -23.169 -15.835  0.00  0.00    +0.058 C 
ATOM     10  C   UNL     1      31.408 -23.735 -14.635  0.00  0.00    +0.013 C 
ENDROOT
BRANCH   2  12
ATOM     11  F   UNL     1      38.225 -25.672 -11.369  0.00  0.00    -0.204 F 
ATOM     12  C   UNL     1      35.856 -24.166 -14.376  0.00  0.00    +0.056 C 
ATOM     13  C   UNL     1      36.266 -23.331 -13.348  0.00  0.00    +0.017 C 
ATOM     14  C   UNL     1      36.232 -25.502 -14.408  0.00  0.00    +0.017 C 
ATOM     15  C   UNL     1      37.071 -23.841 -12.328  0.00  0.00    +0.031 C 
ATOM     16  C   UNL     1      37.037 -26.012 -13.388  0.00  0.00    +0.031 C 
ATOM     17  C   UNL     1      37.455 -25.182 -12.348  0.00  0.00    +0.140 C 
ENDBRANCH   2  12
BRANCH   3  19
ATOM     18  N   UNL     1      34.741 -19.872 -20.562  0.00  0.00    +0.388 N 
ATOM     19  C   UNL     1      34.535 -22.138 -18.712  0.00  0.00    +0.019 C 
ATOM     20  C   UNL     1      33.348 -21.210 -19.016  0.00  0.00    -0.018 C 
ATOM     21  C   UNL     1      35.856 -21.393 -18.961  0.00  0.00    -0.018 C 
ATOM     22  C   UNL     1      33.469 -20.592 -20.410  0.00  0.00    -0.077 C 
ATOM     23  C   UNL     1      35.886 -20.767 -20.358  0.00  0.00    -0.077 C 
ATOM     24  H   UNL     1      34.778 -19.145 -19.848  0.00  0.00    -0.080 HD
BRANCH  18  25
ATOM     25  C   UNL     1      34.815 -19.239 -21.880  0.00  0.00    -0.055 C 
BRANCH  25  26
ATOM     26  C   UNL     1      35.785 -18.068 -21.849  0.00  0.00    +0.077 C 
BRANCH  26  28
ATOM     27  O   UNL     1      35.088 -16.866 -24.515  0.00  0.00    -0.252 OA
ATOM     28  N   UNL     1      35.118 -16.831 -22.156  0.00  0.00    -0.243 N 
ATOM     29  N   UNL     1      34.141 -15.124 -23.271  0.00  0.00    -0.266 N 
ATOM     30  C   UNL     1      34.582 -15.960 -21.124  0.00  0.00    +0.085 C 
ATOM     31  C   UNL     1      34.032 -14.762 -21.881  0.00  0.00    +0.082 C 
ATOM     32  C   UNL     1      34.819 -16.342 -23.442  0.00  0.00    +0.311 C 
ATOM     33  H   UNL     1      33.783 -14.583 -24.012  0.00  0.00    +0.157 HD
ENDBRANCH  26  28
ENDBRANCH  25  26
ENDBRANCH  18  25
ENDBRANCH   3  19
TORSDOF 5
ENDMDL
MODEL 2
REMARK VINA RESULT:     -11.3      2.831      4.369
REMARK  Name = 60149
REMARK  5 active torsions:
REMARK  status: ('A' for Active; 'I' for Inactive)
REMARK    1  A    between atoms: N_2  and  C_12
REMARK    2  A    between atoms: C_3  and  C_19
REMARK    3  A    between atoms: N_18  and  C_25
REMARK    4  A    between atoms: C_25  and  C_26
REMARK    5  A    between atoms: C_26  and  N_28
REMARK                            x       y       z     vdW  Elec       q    Type
REMARK                         _______ _______ _______ _____ _____    ______ ____
ROOT
ATOM      1 CL   UNL     1      38.561 -23.446 -15.007  0.00  0.00    -0.082 Cl
ATOM      2  N   UNL     1      32.927 -23.182 -16.531  0.00  0.00    -0.265 N 
ATOM      3  C   UNL     1      34.334 -22.335 -18.016  0.00  0.00    -0.006 C 
ATOM      4  C   UNL     1      35.093 -22.809 -16.913  0.00  0.00    +0.012 C 
ATOM      5  C   UNL     1      33.009 -22.576 -17.756  0.00  0.00    +0.065 C 
ATOM      6  C   UNL     1      34.185 -23.338 -15.994  0.00  0.00    +0.055 C 
ATOM      7  C   UNL     1      36.468 -22.842 -16.605  0.00  0.00    +0.012 C 
ATOM      8  C   UNL     1      34.584 -23.900 -14.776  0.00  0.00    +0.016 C 
ATOM      9  C   UNL     1      36.881 -23.401 -15.390  0.00  0.00    +0.058 C 
ATOM     10  C   UNL     1      35.952 -23.921 -14.491  0.00  0.00    +0.013 C 
ENDROOT
BRANCH   2  12
ATOM     11  F   UNL     1      28.200 -24.754 -14.172  0.00  0.00    -0.204 F 
ATOM     12  C   UNL     1      31.728 -23.581 -15.933  0.00  0.00    +0.056 C 
ATOM     13  C   UNL     1      31.713 -24.701 -15.114  0.00  0.00    +0.017 C 
ATOM     14  C   UNL     1      30.573 -22.850 -16.168  0.00  0.00    +0.017 C 
ATOM     15  C   UNL     1      30.516 -25.099 -14.518  0.00  0.00    +0.031 C 
ATOM     16  C   UNL     1      29.376 -23.249 -15.572  0.00  0.00    +0.031 C 
ATOM     17  C   UNL     1      29.348 -24.372 -14.746  0.00  0.00    +0.140 C 
ENDBRANCH   2  12
BRANCH   3  19
ATOM     18  N   UNL     1      35.821 -19.363 -20.801  0.00  0.00    +0.388 N 
ATOM     19  C   UNL     1      34.881 -21.677 -19.263  0.00  0.00    +0.019 C 
ATOM     20  C   UNL     1      33.920 -20.633 -19.854  0.00  0.00    -0.018 C 
ATOM     21  C   UNL     1      36.265 -21.044 -19.042  0.00  0.00    -0.018 C 
ATOM     22  C   UNL     1      34.516 -19.971 -21.098  0.00  0.00    -0.077 C 
ATOM     23  C   UNL     1      36.776 -20.366 -20.315  0.00  0.00    -0.077 C 
ATOM     24  H   UNL     1      35.685 -18.673 -20.063  0.00  0.00    -0.080 HD
BRANCH  18  25
ATOM     25  C   UNL     1      36.349 -18.685 -21.986  0.00  0.00    -0.055 C 
BRANCH  25  26
ATOM     26  C   UNL     1      35.233 -18.419 -22.985  0.00  0.00    +0.077 C 
BRANCH  26  28
ATOM     27  O   UNL     1      34.825 -16.755 -25.454  0.00  0.00    -0.252 OA
ATOM     28  N   UNL     1      34.975 -17.010 -23.113  0.00  0.00    -0.243 N 
ATOM     29  N   UNL     1      34.532 -14.966 -23.973  0.00  0.00    -0.266 N 
ATOM     30  C   UNL     1      34.788 -16.146 -21.961  0.00  0.00    +0.085 C 
ATOM     31  C   UNL     1      34.608 -14.755 -22.549  0.00  0.00    +0.082 C 
ATOM     32  C   UNL     1      34.784 -16.304 -24.316  0.00  0.00    +0.311 C 
ATOM     33  H   UNL     1      34.328 -14.257 -24.625  0.00  0.00    +0.157 HD
ENDBRANCH  26  28
ENDBRANCH  25  26
ENDBRANCH  18  25
ENDBRANCH   3  19
TORSDOF 5
ENDMDL
MODEL 3
REMARK VINA RESULT:     -10.4      7.333     13.594
REMARK  Name = 60149
REMARK  5 active torsions:
REMARK  status: ('A' for Active; 'I' for Inactive)
REMARK    1  A    between atoms: N_2  and  C_12
REMARK    2  A    between atoms: C_3  and  C_19
REMARK    3  A    between atoms: N_18  and  C_25
REMARK    4  A    between atoms: C_25  and  C_26
REMARK    5  A    between atoms: C_26  and  N_28
REMARK                            x       y       z     vdW  Elec       q    Type
REMARK                         _______ _______ _______ _____ _____    ______ ____
ROOT
ATOM      1 CL   UNL     1      30.868 -11.187 -17.672  0.00  0.00    -0.082 Cl
ATOM      2  N   UNL     1      33.130  -9.502 -22.789  0.00  0.00    -0.265 N 
ATOM      3  C   UNL     1      33.016 -11.694 -22.497  0.00  0.00    -0.006 C 
ATOM      4  C   UNL     1      32.495 -11.069 -21.333  0.00  0.00    +0.012 C 
ATOM      5  C   UNL     1      33.398 -10.710 -23.374  0.00  0.00    +0.065 C 
ATOM      6  C   UNL     1      32.577  -9.691 -21.542  0.00  0.00    +0.055 C 
ATOM      7  C   UNL     1      31.959 -11.541 -20.118  0.00  0.00    +0.012 C 
ATOM      8  C   UNL     1      32.148  -8.756 -20.592  0.00  0.00    +0.016 C 
ATOM      9  C   UNL     1      31.526 -10.617 -19.160  0.00  0.00    +0.058 C 
ATOM     10  C   UNL     1      31.621  -9.247 -19.395  0.00  0.00    +0.013 C 
ENDROOT
BRANCH   2  12
ATOM     11  F   UNL     1      34.138  -4.629 -25.159  0.00  0.00    -0.204 F 
ATOM     12  C   UNL     1      33.386  -8.266 -23.390  0.00  0.00    +0.056 C 
ATOM     13  C   UNL     1      32.325  -7.439 -23.727  0.00  0.00    +0.017 C 
ATOM     14  C   UNL     1      34.697  -7.888 -23.640  0.00  0.00    +0.017 C 
ATOM     15  C   UNL     1      32.580  -6.206 -24.328  0.00  0.00    +0.031 C 
ATOM     16  C   UNL     1      34.952  -6.655 -24.241  0.00  0.00    +0.031 C 
ATOM     17  C   UNL     1      33.894  -5.813 -24.584  0.00  0.00    +0.140 C 
ENDBRANCH   2  12
BRANCH   3  19
ATOM     18  N   UNL     1      34.648 -15.623 -23.335  0.00  0.00    +0.388 N 
ATOM     19  C   UNL     1      33.135 -13.182 -22.738  0.00  0.00    +0.019 C 
ATOM     20  C   UNL     1      33.637 -13.517 -24.152  0.00  0.00    -0.018 C 
ATOM     21  C   UNL     1      34.015 -13.884 -21.692  0.00  0.00    -0.018 C 
ATOM     22  C   UNL     1      33.768 -15.029 -24.351  0.00  0.00    -0.077 C 
ATOM     23  C   UNL     1      34.133 -15.383 -21.981  0.00  0.00    -0.077 C 
ATOM     24  H   UNL     1      35.561 -15.175 -23.409  0.00  0.00    -0.080 HD
BRANCH  18  25
ATOM     25  C   UNL     1      34.808 -17.058 -23.574  0.00  0.00    -0.055 C 
BRANCH  25  26
ATOM     26  C   UNL     1      36.105 -17.555 -22.953  0.00  0.00    +0.077 C 
BRANCH  26  28
ATOM     27  O   UNL     1      37.933 -18.685 -20.852  0.00  0.00    -0.252 OA
ATOM     28  N   UNL     1      35.852 -18.562 -21.958  0.00  0.00    -0.243 N 
ATOM     29  N   UNL     1      36.093 -19.984 -20.216  0.00  0.00    -0.266 N 
ATOM     30  C   UNL     1      34.543 -19.164 -21.776  0.00  0.00    +0.085 C 
ATOM     31  C   UNL     1      34.746 -20.201 -20.682  0.00  0.00    +0.082 C 
ATOM     32  C   UNL     1      36.768 -19.032 -20.996  0.00  0.00    +0.311 C 
ATOM     33  H   UNL     1      36.490 -20.449 -19.444  0.00  0.00    +0.157 HD
ENDBRANCH  26  28
ENDBRANCH  25  26
ENDBRANCH  18  25
ENDBRANCH   3  19
TORSDOF 5
ENDMDL
MODEL 4
REMARK VINA RESULT:      -9.8     10.421     14.111
REMARK  Name = 60149
REMARK  5 active torsions:
REMARK  status: ('A' for Active; 'I' for Inactive)
REMARK    1  A    between atoms: N_2  and  C_12
REMARK    2  A    between atoms: C_3  and  C_19
REMARK    3  A    between atoms: N_18  and  C_25
REMARK    4  A    between atoms: C_25  and  C_26
REMARK    5  A    between atoms: C_26  and  N_28
REMARK                            x       y       z     vdW  Elec       q    Type
REMARK                         _______ _______ _______ _____ _____    ______ ____
ROOT
ATOM      1 CL   UNL     1      30.862 -10.998 -18.113  0.00  0.00    -0.082 Cl
ATOM      2  N   UNL     1      33.297 -12.469 -23.217  0.00  0.00    -0.265 N 
ATOM      3  C   UNL     1      32.853 -10.312 -22.983  0.00  0.00    -0.006 C 
ATOM      4  C   UNL     1      32.445 -10.974 -21.795  0.00  0.00    +0.012 C 
ATOM      5  C   UNL     1      33.371 -11.251 -23.838  0.00  0.00    +0.065 C 
ATOM      6  C   UNL     1      32.736 -12.329 -21.967  0.00  0.00    +0.055 C 
ATOM      7  C   UNL     1      31.857 -10.555 -20.585  0.00  0.00    +0.012 C 
ATOM      8  C   UNL     1      32.465 -13.290 -20.985  0.00  0.00    +0.016 C 
ATOM      9  C   UNL     1      31.580 -11.504 -19.596  0.00  0.00    +0.058 C 
ATOM     10  C   UNL     1      31.881 -12.851 -19.794  0.00  0.00    +0.013 C 
ENDROOT
BRANCH   2  12
ATOM     11  F   UNL     1      35.027 -17.195 -25.462  0.00  0.00    -0.204 F 
ATOM     12  C   UNL     1      33.735 -13.667 -23.786  0.00  0.00    +0.056 C 
ATOM     13  C   UNL     1      33.270 -14.038 -25.039  0.00  0.00    +0.017 C 
ATOM     14  C   UNL     1      34.630 -14.466 -23.089  0.00  0.00    +0.017 C 
ATOM     15  C   UNL     1      33.707 -15.235 -25.607  0.00  0.00    +0.031 C 
ATOM     16  C   UNL     1      35.067 -15.663 -23.657  0.00  0.00    +0.031 C 
ATOM     17  C   UNL     1      34.607 -16.047 -24.916  0.00  0.00    +0.140 C 
ENDBRANCH   2  12
BRANCH   3  19
ATOM     18  N   UNL     1      32.340  -6.037 -22.465  0.00  0.00    +0.388 N 
ATOM     19  C   UNL     1      32.739  -8.831 -23.266  0.00  0.00    +0.019 C 
ATOM     20  C   UNL     1      31.355  -8.263 -22.911  0.00  0.00    -0.018 C 
ATOM     21  C   UNL     1      33.834  -8.007 -22.570  0.00  0.00    -0.018 C 
ATOM     22  C   UNL     1      31.284  -6.760 -23.188  0.00  0.00    -0.077 C 
ATOM     23  C   UNL     1      33.672  -6.512 -22.859  0.00  0.00    -0.077 C 
ATOM     24  H   UNL     1      32.221  -6.221 -21.469  0.00  0.00    -0.080 HD
BRANCH  18  25
ATOM     25  C   UNL     1      32.222  -4.597 -22.695  0.00  0.00    -0.055 C 
BRANCH  25  26
ATOM     26  C   UNL     1      30.953  -4.288 -23.476  0.00  0.00    +0.077 C 
BRANCH  26  28
ATOM     27  O   UNL     1      29.328  -2.119 -24.774  0.00  0.00    -0.252 OA
ATOM     28  N   UNL     1      31.240  -3.496 -24.641  0.00  0.00    -0.243 N 
ATOM     29  N   UNL     1      31.102  -1.958 -26.293  0.00  0.00    -0.266 N 
ATOM     30  C   UNL     1      32.496  -3.600 -25.363  0.00  0.00    +0.085 C 
ATOM     31  C   UNL     1      32.344  -2.646 -26.537  0.00  0.00    +0.082 C 
ATOM     32  C   UNL     1      30.423  -2.484 -25.183  0.00  0.00    +0.311 C 
ATOM     33  H   UNL     1      30.770  -1.209 -26.839  0.00  0.00    +0.157 HD
ENDBRANCH  26  28
ENDBRANCH  25  26
ENDBRANCH  18  25
ENDBRANCH   3  19
TORSDOF 5
ENDMDL
MODEL 5
REMARK VINA RESULT:      -9.3      8.922     12.944
REMARK  Name = 60149
REMARK  5 active torsions:
REMARK  status: ('A' for Active; 'I' for Inactive)
REMARK    1  A    between atoms: N_2  and  C_12
REMARK    2  A    between atoms: C_3  and  C_19
REMARK    3  A    between atoms: N_18  and  C_25
REMARK    4  A    between atoms: C_25  and  C_26
REMARK    5  A    between atoms: C_26  and  N_28
REMARK                            x       y       z     vdW  Elec       q    Type
REMARK                         _______ _______ _______ _____ _____    ______ ____
ROOT
ATOM      1 CL   UNL     1      30.742 -11.056 -18.737  0.00  0.00    -0.082 Cl
ATOM      2  N   UNL     1      33.855 -13.694 -22.920  0.00  0.00    -0.265 N 
ATOM      3  C   UNL     1      33.567 -11.517 -23.205  0.00  0.00    -0.006 C 
ATOM      4  C   UNL     1      32.912 -11.892 -22.002  0.00  0.00    +0.012 C 
ATOM      5  C   UNL     1      34.137 -12.641 -23.748  0.00  0.00    +0.065 C 
ATOM      6  C   UNL     1      33.108 -13.265 -21.845  0.00  0.00    +0.055 C 
ATOM      7  C   UNL     1      32.169 -11.196 -21.027  0.00  0.00    +0.012 C 
ATOM      8  C   UNL     1      32.596 -13.981 -20.757  0.00  0.00    +0.016 C 
ATOM      9  C   UNL     1      31.651 -11.900 -19.935  0.00  0.00    +0.058 C 
ATOM     10  C   UNL     1      31.862 -13.271 -19.803  0.00  0.00    +0.013 C 
ENDROOT
BRANCH   2  12
ATOM     11  F   UNL     1      35.519 -18.869 -23.828  0.00  0.00    -0.204 F 
ATOM     12  C   UNL     1      34.276 -15.006 -23.150  0.00  0.00    +0.056 C 
ATOM     13  C   UNL     1      34.240 -15.518 -24.439  0.00  0.00    +0.017 C 
ATOM     14  C   UNL     1      34.724 -15.775 -22.086  0.00  0.00    +0.017 C 
ATOM     15  C   UNL     1      34.660 -16.829 -24.669  0.00  0.00    +0.031 C 
ATOM     16  C   UNL     1      35.144 -17.085 -22.316  0.00  0.00    +0.031 C 
ATOM     17  C   UNL     1      35.114 -17.612 -23.607  0.00  0.00    +0.140 C 
ENDBRANCH   2  12
BRANCH   3  19
ATOM     18  N   UNL     1      34.248  -7.260 -23.675  0.00  0.00    +0.388 N 
ATOM     19  C   UNL     1      33.630 -10.125 -23.794  0.00  0.00    +0.019 C 
ATOM     20  C   UNL     1      32.745  -9.120 -23.039  0.00  0.00    -0.018 C 
ATOM     21  C   UNL     1      35.066  -9.585 -23.889  0.00  0.00    -0.018 C 
ATOM     22  C   UNL     1      32.852  -7.720 -23.647  0.00  0.00    -0.077 C 
ATOM     23  C   UNL     1      35.090  -8.167 -24.465  0.00  0.00    -0.077 C 
ATOM     24  H   UNL     1      34.598  -7.259 -22.718  0.00  0.00    -0.080 HD
BRANCH  18  25
ATOM     25  C   UNL     1      34.326  -5.898 -24.205  0.00  0.00    -0.055 C 
BRANCH  25  26
ATOM     26  C   UNL     1      33.109  -5.596 -25.067  0.00  0.00    +0.077 C 
BRANCH  26  28
ATOM     27  O   UNL     1      32.822  -3.065 -26.663  0.00  0.00    -0.252 OA
ATOM     28  N   UNL     1      32.511  -4.340 -24.702  0.00  0.00    -0.243 N 
ATOM     29  N   UNL     1      31.731  -2.220 -24.773  0.00  0.00    -0.266 N 
ATOM     30  C   UNL     1      31.844  -4.138 -23.427  0.00  0.00    +0.085 C 
ATOM     31  C   UNL     1      31.427  -2.676 -23.440  0.00  0.00    +0.082 C 
ATOM     32  C   UNL     1      32.408  -3.197 -25.518  0.00  0.00    +0.311 C 
ATOM     33  H   UNL     1      31.491  -1.329 -25.118  0.00  0.00    +0.157 HD
ENDBRANCH  26  28
ENDBRANCH  25  26
ENDBRANCH  18  25
ENDBRANCH   3  19
TORSDOF 5
ENDMDL
