MODEL 1
REMARK VINA RESULT:     -11.9      0.000      0.000
REMARK  Name = 9909438
REMARK  10 active torsions:
REMARK  status: ('A' for Active; 'I' for Inactive)
REMARK    1  A    between atoms: C_1  and  C_2
REMARK    2  A    between atoms: C_1  and  C_18
REMARK    3  A    between atoms: C_2  and  C_7
REMARK    4  A    between atoms: N_4  and  C_10
REMARK    5  A    between atoms: C_10  and  C_11
REMARK    6  A    between atoms: C_18  and  C_19
REMARK    7  A    between atoms: C_22  and  O_25
REMARK    8  A    between atoms: O_25  and  C_26
REMARK    9  A    between atoms: C_26  and  C_30
REMARK   10  A    between atoms: C_30  and  O_31
REMARK                            x       y       z     vdW  Elec       q    Type
REMARK                         _______ _______ _______ _____ _____    ______ ____
ROOT
ATOM      1  C   UNL     1      34.735 -22.152 -19.082  0.00  0.00    +0.014 C 
ENDROOT
BRANCH   1   2
ATOM      2  C   UNL     1      33.971 -21.054 -19.818  0.00  0.00    +0.078 C 
BRANCH   2   7
ATOM      3  O   UNL     1      37.855 -18.727 -21.156  0.00  0.00    -0.191 OA
ATOM      4  N   UNL     1      35.626 -18.550 -21.799  0.00  0.00    -0.151 N 
ATOM      5  N   UNL     1      34.494 -19.202 -21.418  0.00  0.00    -0.229 N 
ATOM      6  N   UNL     1      36.195 -20.079 -20.241  0.00  0.00    -0.308 NA
ATOM      7  C   UNL     1      34.906 -20.102 -20.482  0.00  0.00    +0.187 C 
ATOM      8  C   UNL     1      36.684 -19.075 -21.078  0.00  0.00    +0.286 C 
ATOM      9  H   UNL     1      33.577 -19.056 -21.747  0.00  0.00    +0.173 HD
BRANCH   4  10
ATOM     10  C   UNL     1      35.581 -17.504 -22.782  0.00  0.00    +0.152 C 
BRANCH  10  11
ATOM     11  C   UNL     1      34.774 -16.328 -22.315  0.00  0.00    +0.000 C 
ATOM     12  C   UNL     1      34.588 -16.120 -20.954  0.00  0.00    -0.003 C 
ATOM     13  C   UNL     1      34.221 -15.459 -23.248  0.00  0.00    -0.003 C 
ATOM     14  C   UNL     1      33.280 -14.150 -21.449  0.00  0.00    -0.022 C 
ATOM     15  C   UNL     1      33.838 -15.026 -20.519  0.00  0.00    -0.005 C 
ATOM     16  C   UNL     1      33.472 -14.366 -22.814  0.00  0.00    -0.005 C 
ATOM     17  C   UNL     1      32.479 -12.981 -20.984  0.00  0.00    +0.031 C 
ENDBRANCH  10  11
ENDBRANCH   4  10
ENDBRANCH   2   7
ENDBRANCH   1   2
BRANCH   1  18
ATOM     18  C   UNL     1      34.182 -22.407 -17.676  0.00  0.00    +0.027 C 
BRANCH  18  19
ATOM     19  C   UNL     1      35.276 -22.784 -16.709  0.00  0.00    -0.022 C 
ATOM     20  C   UNL     1      34.968 -23.561 -15.603  0.00  0.00    -0.001 C 
ATOM     21  C   UNL     1      36.571 -22.349 -16.943  0.00  0.00    -0.001 C 
ATOM     22  C   UNL     1      37.287 -23.481 -14.932  0.00  0.00    +0.139 C 
ATOM     23  C   UNL     1      35.979 -23.912 -14.709  0.00  0.00    +0.037 C 
ATOM     24  C   UNL     1      37.583 -22.699 -16.048  0.00  0.00    +0.037 C 
BRANCH  22  25
ATOM     25  O   UNL     1      38.275 -23.821 -14.060  0.00  0.00    -0.472 OA
BRANCH  25  26
ATOM     26  C   UNL     1      38.645 -25.198 -14.003  0.00  0.00    +0.221 C 
ATOM     27  C   UNL     1      38.578 -25.645 -12.546  0.00  0.00    +0.055 C 
ATOM     28  C   UNL     1      37.687 -25.982 -14.894  0.00  0.00    +0.055 C 
BRANCH  26  30
ATOM     29  O   UNL     1      41.056 -24.864 -13.925  0.00  0.00    -0.246 OA
ATOM     30  C   UNL     1      40.071 -25.261 -14.535  0.00  0.00    +0.350 C 
BRANCH  30  31
ATOM     31  O   UNL     1      40.158 -25.809 -15.775  0.00  0.00    -0.478 OA
ATOM     32  H   UNL     1      40.951 -26.228 -16.046  0.00  0.00    +0.295 HD
ENDBRANCH  30  31
ENDBRANCH  26  30
ENDBRANCH  25  26
ENDBRANCH  22  25
ENDBRANCH  18  19
ENDBRANCH   1  18
TORSDOF 10
ENDMDL
MODEL 2
REMARK VINA RESULT:     -11.7      1.053      1.864
REMARK  Name = 9909438
REMARK  10 active torsions:
REMARK  status: ('A' for Active; 'I' for Inactive)
REMARK    1  A    between atoms: C_1  and  C_2
REMARK    2  A    between atoms: C_1  and  C_18
REMARK    3  A    between atoms: C_2  and  C_7
REMARK    4  A    between atoms: N_4  and  C_10
REMARK    5  A    between atoms: C_10  and  C_11
REMARK    6  A    between atoms: C_18  and  C_19
REMARK    7  A    between atoms: C_22  and  O_25
REMARK    8  A    between atoms: O_25  and  C_26
REMARK    9  A    between atoms: C_26  and  C_30
REMARK   10  A    between atoms: C_30  and  O_31
REMARK                            x       y       z     vdW  Elec       q    Type
REMARK                         _______ _______ _______ _____ _____    ______ ____
ROOT
ATOM      1  C   UNL     1      34.908 -22.158 -18.931  0.00  0.00    +0.014 C 
ENDROOT
BRANCH   1   2
ATOM      2  C   UNL     1      34.137 -21.158 -19.788  0.00  0.00    +0.078 C 
BRANCH   2   7
ATOM      3  O   UNL     1      37.989 -18.767 -21.105  0.00  0.00    -0.191 OA
ATOM      4  N   UNL     1      35.767 -18.649 -21.783  0.00  0.00    -0.151 N 
ATOM      5  N   UNL     1      34.643 -19.320 -21.408  0.00  0.00    -0.229 N 
ATOM      6  N   UNL     1      36.346 -20.141 -20.194  0.00  0.00    -0.308 NA
ATOM      7  C   UNL     1      35.061 -20.196 -20.453  0.00  0.00    +0.187 C 
ATOM      8  C   UNL     1      36.825 -19.140 -21.039  0.00  0.00    +0.286 C 
ATOM      9  H   UNL     1      33.729 -19.198 -21.753  0.00  0.00    +0.173 HD
BRANCH   4  10
ATOM     10  C   UNL     1      35.714 -17.619 -22.782  0.00  0.00    +0.152 C 
BRANCH  10  11
ATOM     11  C   UNL     1      34.876 -16.453 -22.345  0.00  0.00    +0.000 C 
ATOM     12  C   UNL     1      34.312 -15.617 -23.300  0.00  0.00    -0.003 C 
ATOM     13  C   UNL     1      34.675 -16.221 -20.989  0.00  0.00    -0.003 C 
ATOM     14  C   UNL     1      33.325 -14.293 -21.536  0.00  0.00    -0.022 C 
ATOM     15  C   UNL     1      33.532 -14.532 -22.894  0.00  0.00    -0.005 C 
ATOM     16  C   UNL     1      33.896 -15.137 -20.584  0.00  0.00    -0.005 C 
ATOM     17  C   UNL     1      32.493 -13.134 -21.102  0.00  0.00    +0.031 C 
ENDBRANCH  10  11
ENDBRANCH   4  10
ENDBRANCH   2   7
ENDBRANCH   1   2
BRANCH   1  18
ATOM     18  C   UNL     1      34.174 -22.501 -17.630  0.00  0.00    +0.027 C 
BRANCH  18  19
ATOM     19  C   UNL     1      35.138 -22.838 -16.521  0.00  0.00    -0.022 C 
ATOM     20  C   UNL     1      34.667 -23.466 -15.377  0.00  0.00    -0.001 C 
ATOM     21  C   UNL     1      36.479 -22.517 -16.663  0.00  0.00    -0.001 C 
ATOM     22  C   UNL     1      36.911 -23.462 -14.481  0.00  0.00    +0.139 C 
ATOM     23  C   UNL     1      35.558 -23.780 -14.351  0.00  0.00    +0.037 C 
ATOM     24  C   UNL     1      37.371 -22.829 -15.636  0.00  0.00    +0.037 C 
BRANCH  22  25
ATOM     25  O   UNL     1      37.781 -23.766 -13.480  0.00  0.00    -0.472 OA
BRANCH  25  26
ATOM     26  C   UNL     1      38.095 -25.145 -13.289  0.00  0.00    +0.221 C 
ATOM     27  C   UNL     1      37.306 -25.955 -14.313  0.00  0.00    +0.055 C 
ATOM     28  C   UNL     1      39.602 -25.313 -13.453  0.00  0.00    +0.055 C 
BRANCH  26  30
ATOM     29  O   UNL     1      37.103 -26.514 -11.537  0.00  0.00    -0.246 OA
ATOM     30  C   UNL     1      37.654 -25.472 -11.868  0.00  0.00    +0.350 C 
BRANCH  30  31
ATOM     31  O   UNL     1      37.932 -24.485 -10.978  0.00  0.00    -0.478 OA
ATOM     32  H   UNL     1      37.766 -23.591 -11.203  0.00  0.00    +0.295 HD
ENDBRANCH  30  31
ENDBRANCH  26  30
ENDBRANCH  25  26
ENDBRANCH  22  25
ENDBRANCH  18  19
ENDBRANCH   1  18
TORSDOF 10
ENDMDL
MODEL 3
REMARK VINA RESULT:     -11.6      5.286     12.869
REMARK  Name = 9909438
REMARK  10 active torsions:
REMARK  status: ('A' for Active; 'I' for Inactive)
REMARK    1  A    between atoms: C_1  and  C_2
REMARK    2  A    between atoms: C_1  and  C_18
REMARK    3  A    between atoms: C_2  and  C_7
REMARK    4  A    between atoms: N_4  and  C_10
REMARK    5  A    between atoms: C_10  and  C_11
REMARK    6  A    between atoms: C_18  and  C_19
REMARK    7  A    between atoms: C_22  and  O_25
REMARK    8  A    between atoms: O_25  and  C_26
REMARK    9  A    between atoms: C_26  and  C_30
REMARK   10  A    between atoms: C_30  and  O_31
REMARK                            x       y       z     vdW  Elec       q    Type
REMARK                         _______ _______ _______ _____ _____    ______ ____
ROOT
ATOM      1  C   UNL     1      32.749 -14.378 -20.930  0.00  0.00    +0.014 C 
ENDROOT
BRANCH   1   2
ATOM      2  C   UNL     1      34.201 -14.744 -20.635  0.00  0.00    +0.078 C 
BRANCH   2   7
ATOM      3  O   UNL     1      34.992 -17.803 -24.143  0.00  0.00    -0.191 OA
ATOM      4  N   UNL     1      35.513 -17.853 -21.876  0.00  0.00    -0.151 N 
ATOM      5  N   UNL     1      35.285 -16.989 -20.850  0.00  0.00    -0.229 N 
ATOM      6  N   UNL     1      34.415 -16.066 -22.705  0.00  0.00    -0.308 NA
ATOM      7  C   UNL     1      34.622 -15.941 -21.415  0.00  0.00    +0.187 C 
ATOM      8  C   UNL     1      34.978 -17.301 -23.026  0.00  0.00    +0.286 C 
ATOM      9  H   UNL     1      35.543 -17.096 -19.906  0.00  0.00    +0.173 HD
BRANCH   4  10
ATOM     10  C   UNL     1      36.194 -19.098 -21.656  0.00  0.00    +0.152 C 
BRANCH  10  11
ATOM     11  C   UNL     1      35.428 -20.003 -20.735  0.00  0.00    +0.000 C 
ATOM     12  C   UNL     1      34.039 -19.952 -20.721  0.00  0.00    -0.003 C 
ATOM     13  C   UNL     1      36.114 -20.881 -19.904  0.00  0.00    -0.003 C 
ATOM     14  C   UNL     1      34.008 -21.676 -19.030  0.00  0.00    -0.022 C 
ATOM     15  C   UNL     1      33.326 -20.793 -19.865  0.00  0.00    -0.005 C 
ATOM     16  C   UNL     1      35.402 -21.721 -19.049  0.00  0.00    -0.005 C 
ATOM     17  C   UNL     1      33.246 -22.575 -18.115  0.00  0.00    +0.031 C 
ENDBRANCH  10  11
ENDBRANCH   4  10
ENDBRANCH   2   7
ENDBRANCH   1   2
BRANCH   1  18
ATOM     18  C   UNL     1      32.136 -13.490 -19.841  0.00  0.00    +0.027 C 
BRANCH  18  19
ATOM     19  C   UNL     1      31.980 -12.066 -20.309  0.00  0.00    -0.022 C 
ATOM     20  C   UNL     1      32.080 -11.779 -21.662  0.00  0.00    -0.001 C 
ATOM     21  C   UNL     1      31.739 -11.066 -19.380  0.00  0.00    -0.001 C 
ATOM     22  C   UNL     1      31.691  -9.446 -21.172  0.00  0.00    +0.139 C 
ATOM     23  C   UNL     1      31.934 -10.462 -22.097  0.00  0.00    +0.037 C 
ATOM     24  C   UNL     1      31.594  -9.747 -19.813  0.00  0.00    +0.037 C 
BRANCH  22  25
ATOM     25  O   UNL     1      31.550  -8.160 -21.594  0.00  0.00    -0.472 OA
BRANCH  25  26
ATOM     26  C   UNL     1      32.696  -7.315 -21.496  0.00  0.00    +0.221 C 
ATOM     27  C   UNL     1      33.179  -7.341 -20.049  0.00  0.00    +0.055 C 
ATOM     28  C   UNL     1      33.751  -7.836 -22.468  0.00  0.00    +0.055 C 
BRANCH  26  30
ATOM     29  O   UNL     1      32.382  -5.428 -23.001  0.00  0.00    -0.246 OA
ATOM     30  C   UNL     1      32.217  -5.926 -21.894  0.00  0.00    +0.350 C 
BRANCH  30  31
ATOM     31  O   UNL     1      31.575  -5.271 -20.893  0.00  0.00    -0.478 OA
ATOM     32  H   UNL     1      30.764  -4.835 -21.063  0.00  0.00    +0.295 HD
ENDBRANCH  30  31
ENDBRANCH  26  30
ENDBRANCH  25  26
ENDBRANCH  22  25
ENDBRANCH  18  19
ENDBRANCH   1  18
TORSDOF 10
ENDMDL
MODEL 4
REMARK VINA RESULT:     -11.0      1.728      2.221
REMARK  Name = 9909438
REMARK  10 active torsions:
REMARK  status: ('A' for Active; 'I' for Inactive)
REMARK    1  A    between atoms: C_1  and  C_2
REMARK    2  A    between atoms: C_1  and  C_18
REMARK    3  A    between atoms: C_2  and  C_7
REMARK    4  A    between atoms: N_4  and  C_10
REMARK    5  A    between atoms: C_10  and  C_11
REMARK    6  A    between atoms: C_18  and  C_19
REMARK    7  A    between atoms: C_22  and  O_25
REMARK    8  A    between atoms: O_25  and  C_26
REMARK    9  A    between atoms: C_26  and  C_30
REMARK   10  A    between atoms: C_30  and  O_31
REMARK                            x       y       z     vdW  Elec       q    Type
REMARK                         _______ _______ _______ _____ _____    ______ ____
ROOT
ATOM      1  C   UNL     1      35.066 -21.848 -19.598  0.00  0.00    +0.014 C 
ENDROOT
BRANCH   1   2
ATOM      2  C   UNL     1      34.061 -20.713 -19.777  0.00  0.00    +0.078 C 
BRANCH   2   7
ATOM      3  O   UNL     1      34.737 -18.965 -24.111  0.00  0.00    -0.191 OA
ATOM      4  N   UNL     1      35.166 -18.105 -21.992  0.00  0.00    -0.151 N 
ATOM      5  N   UNL     1      34.989 -18.596 -20.736  0.00  0.00    -0.229 N 
ATOM      6  N   UNL     1      34.258 -20.162 -22.172  0.00  0.00    -0.308 NA
ATOM      7  C   UNL     1      34.444 -19.831 -20.916  0.00  0.00    +0.187 C 
ATOM      8  C   UNL     1      34.725 -19.061 -22.890  0.00  0.00    +0.286 C 
ATOM      9  H   UNL     1      35.207 -18.155 -19.882  0.00  0.00    +0.173 HD
BRANCH   4  10
ATOM     10  C   UNL     1      35.739 -16.805 -22.204  0.00  0.00    +0.152 C 
BRANCH  10  11
ATOM     11  C   UNL     1      34.731 -15.709 -22.016  0.00  0.00    +0.000 C 
ATOM     12  C   UNL     1      34.272 -15.410 -20.739  0.00  0.00    -0.003 C 
ATOM     13  C   UNL     1      34.266 -15.005 -23.121  0.00  0.00    -0.003 C 
ATOM     14  C   UNL     1      32.864 -13.680 -21.667  0.00  0.00    -0.022 C 
ATOM     15  C   UNL     1      33.334 -14.391 -20.564  0.00  0.00    -0.005 C 
ATOM     16  C   UNL     1      33.330 -13.986 -22.945  0.00  0.00    -0.005 C 
ATOM     17  C   UNL     1      31.862 -12.591 -21.479  0.00  0.00    +0.031 C 
ENDBRANCH  10  11
ENDBRANCH   4  10
ENDBRANCH   2   7
ENDBRANCH   1   2
BRANCH   1  18
ATOM     18  C   UNL     1      36.321 -21.403 -18.839  0.00  0.00    +0.027 C 
BRANCH  18  19
ATOM     19  C   UNL     1      36.396 -22.034 -17.472  0.00  0.00    -0.022 C 
ATOM     20  C   UNL     1      35.257 -22.605 -16.923  0.00  0.00    -0.001 C 
ATOM     21  C   UNL     1      37.601 -22.035 -16.787  0.00  0.00    -0.001 C 
ATOM     22  C   UNL     1      36.532 -23.198 -14.959  0.00  0.00    +0.139 C 
ATOM     23  C   UNL     1      35.325 -23.190 -15.659  0.00  0.00    +0.037 C 
ATOM     24  C   UNL     1      37.670 -22.620 -15.522  0.00  0.00    +0.037 C 
BRANCH  22  25
ATOM     25  O   UNL     1      36.600 -23.768 -13.724  0.00  0.00    -0.472 OA
BRANCH  25  26
ATOM     26  C   UNL     1      37.095 -25.104 -13.652  0.00  0.00    +0.221 C 
ATOM     27  C   UNL     1      36.398 -25.925 -14.733  0.00  0.00    +0.055 C 
ATOM     28  C   UNL     1      38.608 -25.058 -13.845  0.00  0.00    +0.055 C 
BRANCH  26  30
ATOM     29  O   UNL     1      37.501 -26.189 -11.511  0.00  0.00    -0.246 OA
ATOM     30  C   UNL     1      36.731 -25.601 -12.260  0.00  0.00    +0.350 C 
BRANCH  30  31
ATOM     31  O   UNL     1      35.446 -25.330 -11.910  0.00  0.00    -0.478 OA
ATOM     32  H   UNL     1      34.941 -24.727 -12.417  0.00  0.00    +0.295 HD
ENDBRANCH  30  31
ENDBRANCH  26  30
ENDBRANCH  25  26
ENDBRANCH  22  25
ENDBRANCH  18  19
ENDBRANCH   1  18
TORSDOF 10
ENDMDL
MODEL 5
REMARK VINA RESULT:     -10.9      6.617     10.562
REMARK  Name = 9909438
REMARK  10 active torsions:
REMARK  status: ('A' for Active; 'I' for Inactive)
REMARK    1  A    between atoms: C_1  and  C_2
REMARK    2  A    between atoms: C_1  and  C_18
REMARK    3  A    between atoms: C_2  and  C_7
REMARK    4  A    between atoms: N_4  and  C_10
REMARK    5  A    between atoms: C_10  and  C_11
REMARK    6  A    between atoms: C_18  and  C_19
REMARK    7  A    between atoms: C_22  and  O_25
REMARK    8  A    between atoms: O_25  and  C_26
REMARK    9  A    between atoms: C_26  and  C_30
REMARK   10  A    between atoms: C_30  and  O_31
REMARK                            x       y       z     vdW  Elec       q    Type
REMARK                         _______ _______ _______ _____ _____    ______ ____
ROOT
ATOM      1  C   UNL     1      32.301 -11.975 -21.727  0.00  0.00    +0.014 C 
ENDROOT
BRANCH   1   2
ATOM      2  C   UNL     1      31.099 -11.057 -21.520  0.00  0.00    +0.078 C 
BRANCH   2   7
ATOM      3  O   UNL     1      33.051  -7.295 -19.439  0.00  0.00    -0.191 OA
ATOM      4  N   UNL     1      31.843  -7.541 -21.412  0.00  0.00    -0.151 N 
ATOM      5  N   UNL     1      31.264  -8.611 -22.021  0.00  0.00    -0.229 N 
ATOM      6  N   UNL     1      32.233  -9.360 -20.137  0.00  0.00    -0.308 NA
ATOM      7  C   UNL     1      31.534  -9.667 -21.204  0.00  0.00    +0.187 C 
ATOM      8  C   UNL     1      32.440  -7.984 -20.246  0.00  0.00    +0.286 C 
ATOM      9  H   UNL     1      30.761  -8.621 -22.868  0.00  0.00    +0.173 HD
BRANCH   4  10
ATOM     10  C   UNL     1      31.757  -6.227 -21.988  0.00  0.00    +0.152 C 
BRANCH  10  11
ATOM     11  C   UNL     1      32.770  -6.023 -23.077  0.00  0.00    +0.000 C 
ATOM     12  C   UNL     1      33.980  -6.703 -23.025  0.00  0.00    -0.003 C 
ATOM     13  C   UNL     1      32.486  -5.156 -24.125  0.00  0.00    -0.003 C 
ATOM     14  C   UNL     1      34.645  -5.646 -25.092  0.00  0.00    -0.022 C 
ATOM     15  C   UNL     1      34.922  -6.514 -24.037  0.00  0.00    -0.005 C 
ATOM     16  C   UNL     1      33.427  -4.967 -25.137  0.00  0.00    -0.005 C 
ATOM     17  C   UNL     1      35.652  -5.444 -26.174  0.00  0.00    +0.031 C 
ENDBRANCH  10  11
ENDBRANCH   4  10
ENDBRANCH   2   7
ENDBRANCH   1   2
BRANCH   1  18
ATOM     18  C   UNL     1      32.270 -13.197 -20.802  0.00  0.00    +0.027 C 
BRANCH  18  19
ATOM     19  C   UNL     1      33.226 -14.267 -21.263  0.00  0.00    -0.022 C 
ATOM     20  C   UNL     1      33.877 -15.049 -20.321  0.00  0.00    -0.001 C 
ATOM     21  C   UNL     1      33.438 -14.452 -22.620  0.00  0.00    -0.001 C 
ATOM     22  C   UNL     1      34.984 -16.238 -22.109  0.00  0.00    +0.139 C 
ATOM     23  C   UNL     1      34.762 -16.041 -20.746  0.00  0.00    +0.037 C 
ATOM     24  C   UNL     1      34.324 -15.444 -23.046  0.00  0.00    +0.037 C 
BRANCH  22  25
ATOM     25  O   UNL     1      35.848 -17.204 -22.525  0.00  0.00    -0.472 OA
BRANCH  25  26
ATOM     26  C   UNL     1      35.630 -18.525 -22.034  0.00  0.00    +0.221 C 
ATOM     27  C   UNL     1      34.450 -18.482 -21.068  0.00  0.00    +0.055 C 
ATOM     28  C   UNL     1      35.366 -19.436 -23.230  0.00  0.00    +0.055 C 
BRANCH  26  30
ATOM     29  O   UNL     1      36.961 -19.543 -20.268  0.00  0.00    -0.246 OA
ATOM     30  C   UNL     1      36.916 -18.914 -21.318  0.00  0.00    +0.350 C 
BRANCH  30  31
ATOM     31  O   UNL     1      38.037 -18.493 -21.958  0.00  0.00    -0.478 OA
ATOM     32  H   UNL     1      38.871 -18.850 -21.726  0.00  0.00    +0.295 HD
ENDBRANCH  30  31
ENDBRANCH  26  30
ENDBRANCH  25  26
ENDBRANCH  22  25
ENDBRANCH  18  19
ENDBRANCH   1  18
TORSDOF 10
ENDMDL
MODEL 6
REMARK VINA RESULT:     -10.8      4.000      9.812
REMARK  Name = 9909438
REMARK  10 active torsions:
REMARK  status: ('A' for Active; 'I' for Inactive)
REMARK    1  A    between atoms: C_1  and  C_2
REMARK    2  A    between atoms: C_1  and  C_18
REMARK    3  A    between atoms: C_2  and  C_7
REMARK    4  A    between atoms: N_4  and  C_10
REMARK    5  A    between atoms: C_10  and  C_11
REMARK    6  A    between atoms: C_18  and  C_19
REMARK    7  A    between atoms: C_22  and  O_25
REMARK    8  A    between atoms: O_25  and  C_26
REMARK    9  A    between atoms: C_26  and  C_30
REMARK   10  A    between atoms: C_30  and  O_31
REMARK                            x       y       z     vdW  Elec       q    Type
REMARK                         _______ _______ _______ _____ _____    ______ ____
ROOT
ATOM      1  C   UNL     1      35.615 -22.271 -16.598  0.00  0.00    +0.014 C 
ENDROOT
BRANCH   1   2
ATOM      2  C   UNL     1      36.185 -23.466 -15.839  0.00  0.00    +0.078 C 
BRANCH   2   7
ATOM      3  O   UNL     1      34.562 -23.906 -11.427  0.00  0.00    -0.191 OA
ATOM      4  N   UNL     1      33.669 -24.507 -13.490  0.00  0.00    -0.151 N 
ATOM      5  N   UNL     1      34.125 -24.400 -14.767  0.00  0.00    -0.229 N 
ATOM      6  N   UNL     1      35.696 -23.519 -13.423  0.00  0.00    -0.308 NA
ATOM      7  C   UNL     1      35.344 -23.801 -14.656  0.00  0.00    +0.187 C 
ATOM      8  C   UNL     1      34.629 -23.974 -12.648  0.00  0.00    +0.286 C 
ATOM      9  H   UNL     1      33.673 -24.690 -15.593  0.00  0.00    +0.173 HD
BRANCH   4  10
ATOM     10  C   UNL     1      32.396 -25.109 -13.207  0.00  0.00    +0.152 C 
BRANCH  10  11
ATOM     11  C   UNL     1      31.291 -24.492 -14.016  0.00  0.00    +0.000 C 
ATOM     12  C   UNL     1      31.215 -23.110 -14.132  0.00  0.00    -0.003 C 
ATOM     13  C   UNL     1      30.356 -25.310 -14.638  0.00  0.00    -0.003 C 
ATOM     14  C   UNL     1      29.247 -23.350 -15.511  0.00  0.00    -0.022 C 
ATOM     15  C   UNL     1      30.188 -22.537 -14.884  0.00  0.00    -0.005 C 
ATOM     16  C   UNL     1      29.330 -24.737 -15.389  0.00  0.00    -0.005 C 
ATOM     17  C   UNL     1      28.149 -22.737 -16.314  0.00  0.00    +0.031 C 
ENDBRANCH  10  11
ENDBRANCH   4  10
ENDBRANCH   2   7
ENDBRANCH   1   2
BRANCH   1  18
ATOM     18  C   UNL     1      34.586 -22.686 -17.656  0.00  0.00    +0.027 C 
BRANCH  18  19
ATOM     19  C   UNL     1      34.600 -21.754 -18.840  0.00  0.00    -0.022 C 
ATOM     20  C   UNL     1      33.402 -21.251 -19.325  0.00  0.00    -0.001 C 
ATOM     21  C   UNL     1      35.810 -21.414 -19.425  0.00  0.00    -0.001 C 
ATOM     22  C   UNL     1      34.625 -20.037 -21.018  0.00  0.00    +0.139 C 
ATOM     23  C   UNL     1      33.414 -20.388 -20.420  0.00  0.00    +0.037 C 
ATOM     24  C   UNL     1      35.823 -20.551 -20.522  0.00  0.00    +0.037 C 
BRANCH  22  25
ATOM     25  O   UNL     1      34.638 -19.196 -22.088  0.00  0.00    -0.472 OA
BRANCH  25  26
ATOM     26  C   UNL     1      35.484 -18.051 -22.003  0.00  0.00    +0.221 C 
ATOM     27  C   UNL     1      35.026 -17.211 -20.815  0.00  0.00    +0.055 C 
ATOM     28  C   UNL     1      36.922 -18.537 -21.848  0.00  0.00    +0.055 C 
BRANCH  26  30
ATOM     29  O   UNL     1      34.749 -17.772 -24.307  0.00  0.00    -0.246 OA
ATOM     30  C   UNL     1      35.294 -17.302 -23.316  0.00  0.00    +0.350 C 
BRANCH  30  31
ATOM     31  O   UNL     1      35.791 -16.039 -23.292  0.00  0.00    -0.478 OA
ATOM     32  H   UNL     1      35.697 -15.485 -24.041  0.00  0.00    +0.295 HD
ENDBRANCH  30  31
ENDBRANCH  26  30
ENDBRANCH  25  26
ENDBRANCH  22  25
ENDBRANCH  18  19
ENDBRANCH   1  18
TORSDOF 10
ENDMDL
MODEL 7
REMARK VINA RESULT:     -10.7      4.120     10.493
REMARK  Name = 9909438
REMARK  10 active torsions:
REMARK  status: ('A' for Active; 'I' for Inactive)
REMARK    1  A    between atoms: C_1  and  C_2
REMARK    2  A    between atoms: C_1  and  C_18
REMARK    3  A    between atoms: C_2  and  C_7
REMARK    4  A    between atoms: N_4  and  C_10
REMARK    5  A    between atoms: C_10  and  C_11
REMARK    6  A    between atoms: C_18  and  C_19
REMARK    7  A    between atoms: C_22  and  O_25
REMARK    8  A    between atoms: O_25  and  C_26
REMARK    9  A    between atoms: C_26  and  C_30
REMARK   10  A    between atoms: C_30  and  O_31
REMARK                            x       y       z     vdW  Elec       q    Type
REMARK                         _______ _______ _______ _____ _____    ______ ____
ROOT
ATOM      1  C   UNL     1      33.414 -23.371 -17.633  0.00  0.00    +0.014 C 
ENDROOT
BRANCH   1   2
ATOM      2  C   UNL     1      32.493 -22.769 -16.576  0.00  0.00    +0.078 C 
BRANCH   2   7
ATOM      3  O   UNL     1      31.873 -25.408 -12.709  0.00  0.00    -0.191 OA
ATOM      4  N   UNL     1      33.627 -24.050 -13.413  0.00  0.00    -0.151 N 
ATOM      5  N   UNL     1      33.819 -23.276 -14.515  0.00  0.00    -0.229 N 
ATOM      6  N   UNL     1      31.799 -24.238 -14.721  0.00  0.00    -0.308 NA
ATOM      7  C   UNL     1      32.687 -23.432 -15.255  0.00  0.00    +0.187 C 
ATOM      8  C   UNL     1      32.383 -24.647 -13.521  0.00  0.00    +0.286 C 
ATOM      9  H   UNL     1      34.605 -22.723 -14.731  0.00  0.00    +0.173 HD
BRANCH   4  10
ATOM     10  C   UNL     1      34.625 -24.131 -12.383  0.00  0.00    +0.152 C 
BRANCH  10  11
ATOM     11  C   UNL     1      35.954 -24.574 -12.920  0.00  0.00    +0.000 C 
ATOM     12  C   UNL     1      36.004 -25.363 -14.063  0.00  0.00    -0.003 C 
ATOM     13  C   UNL     1      37.121 -24.192 -12.270  0.00  0.00    -0.003 C 
ATOM     14  C   UNL     1      38.415 -25.396 -13.917  0.00  0.00    -0.022 C 
ATOM     15  C   UNL     1      37.240 -25.776 -14.563  0.00  0.00    -0.005 C 
ATOM     16  C   UNL     1      38.356 -24.604 -12.770  0.00  0.00    -0.005 C 
ATOM     17  C   UNL     1      39.736 -25.837 -14.451  0.00  0.00    +0.031 C 
ENDBRANCH  10  11
ENDBRANCH   4  10
ENDBRANCH   2   7
ENDBRANCH   1   2
BRANCH   1  18
ATOM     18  C   UNL     1      34.731 -22.599 -17.770  0.00  0.00    +0.027 C 
BRANCH  18  19
ATOM     19  C   UNL     1      34.707 -21.662 -18.950  0.00  0.00    -0.022 C 
ATOM     20  C   UNL     1      35.901 -21.291 -19.549  0.00  0.00    -0.001 C 
ATOM     21  C   UNL     1      33.491 -21.189 -19.419  0.00  0.00    -0.001 C 
ATOM     22  C   UNL     1      34.663 -19.942 -21.124  0.00  0.00    +0.139 C 
ATOM     23  C   UNL     1      35.880 -20.425 -20.643  0.00  0.00    +0.037 C 
ATOM     24  C   UNL     1      33.469 -20.322 -20.512  0.00  0.00    +0.037 C 
BRANCH  22  25
ATOM     25  O   UNL     1      34.640 -19.096 -22.190  0.00  0.00    -0.472 OA
BRANCH  25  26
ATOM     26  C   UNL     1      35.484 -17.946 -22.125  0.00  0.00    +0.221 C 
ATOM     27  C   UNL     1      35.024 -17.090 -20.949  0.00  0.00    +0.055 C 
ATOM     28  C   UNL     1      36.923 -18.426 -21.965  0.00  0.00    +0.055 C 
BRANCH  26  30
ATOM     29  O   UNL     1      34.782 -17.719 -24.445  0.00  0.00    -0.246 OA
ATOM     30  C   UNL     1      35.288 -17.219 -23.448  0.00  0.00    +0.350 C 
BRANCH  30  31
ATOM     31  O   UNL     1      35.734 -15.936 -23.428  0.00  0.00    -0.478 OA
ATOM     32  H   UNL     1      36.435 -15.675 -23.991  0.00  0.00    +0.295 HD
ENDBRANCH  30  31
ENDBRANCH  26  30
ENDBRANCH  25  26
ENDBRANCH  22  25
ENDBRANCH  18  19
ENDBRANCH   1  18
TORSDOF 10
ENDMDL
MODEL 8
REMARK VINA RESULT:     -10.6      3.360      4.930
REMARK  Name = 9909438
REMARK  10 active torsions:
REMARK  status: ('A' for Active; 'I' for Inactive)
REMARK    1  A    between atoms: C_1  and  C_2
REMARK    2  A    between atoms: C_1  and  C_18
REMARK    3  A    between atoms: C_2  and  C_7
REMARK    4  A    between atoms: N_4  and  C_10
REMARK    5  A    between atoms: C_10  and  C_11
REMARK    6  A    between atoms: C_18  and  C_19
REMARK    7  A    between atoms: C_22  and  O_25
REMARK    8  A    between atoms: O_25  and  C_26
REMARK    9  A    between atoms: C_26  and  C_30
REMARK   10  A    between atoms: C_30  and  O_31
REMARK                            x       y       z     vdW  Elec       q    Type
REMARK                         _______ _______ _______ _____ _____    ______ ____
ROOT
ATOM      1  C   UNL     1      35.386 -22.124 -19.386  0.00  0.00    +0.014 C 
ENDROOT
BRANCH   1   2
ATOM      2  C   UNL     1      34.520 -20.952 -19.841  0.00  0.00    +0.078 C 
BRANCH   2   7
ATOM      3  O   UNL     1      38.117 -18.377 -21.492  0.00  0.00    -0.191 OA
ATOM      4  N   UNL     1      35.832 -18.333 -21.927  0.00  0.00    -0.151 N 
ATOM      5  N   UNL     1      34.781 -19.057 -21.454  0.00  0.00    -0.229 N 
ATOM      6  N   UNL     1      36.634 -19.838 -20.450  0.00  0.00    -0.308 NA
ATOM      7  C   UNL     1      35.331 -19.939 -20.573  0.00  0.00    +0.187 C 
ATOM      8  C   UNL     1      36.981 -18.798 -21.313  0.00  0.00    +0.286 C 
ATOM      9  H   UNL     1      33.831 -18.965 -21.696  0.00  0.00    +0.173 HD
BRANCH   4  10
ATOM     10  C   UNL     1      35.634 -17.283 -22.887  0.00  0.00    +0.152 C 
BRANCH  10  11
ATOM     11  C   UNL     1      34.783 -16.175 -22.340  0.00  0.00    +0.000 C 
ATOM     12  C   UNL     1      34.164 -15.289 -23.214  0.00  0.00    -0.003 C 
ATOM     13  C   UNL     1      34.622 -16.044 -20.966  0.00  0.00    -0.003 C 
ATOM     14  C   UNL     1      33.207 -14.121 -21.329  0.00  0.00    -0.022 C 
ATOM     15  C   UNL     1      33.372 -14.258 -22.706  0.00  0.00    -0.005 C 
ATOM     16  C   UNL     1      33.831 -15.014 -20.458  0.00  0.00    -0.005 C 
ATOM     17  C   UNL     1      32.361 -13.019 -20.786  0.00  0.00    +0.031 C 
ENDBRANCH  10  11
ENDBRANCH   4  10
ENDBRANCH   2   7
ENDBRANCH   1   2
BRANCH   1  18
ATOM     18  C   UNL     1      35.694 -22.076 -17.885  0.00  0.00    +0.027 C 
BRANCH  18  19
ATOM     19  C   UNL     1      34.602 -22.725 -17.073  0.00  0.00    -0.022 C 
ATOM     20  C   UNL     1      34.905 -23.260 -15.831  0.00  0.00    -0.001 C 
ATOM     21  C   UNL     1      33.313 -22.774 -17.582  0.00  0.00    -0.001 C 
ATOM     22  C   UNL     1      32.594 -23.916 -15.577  0.00  0.00    +0.139 C 
ATOM     23  C   UNL     1      33.896 -23.859 -15.077  0.00  0.00    +0.037 C 
ATOM     24  C   UNL     1      32.303 -23.374 -16.829  0.00  0.00    +0.037 C 
BRANCH  22  25
ATOM     25  O   UNL     1      31.608 -24.501 -14.844  0.00  0.00    -0.472 OA
BRANCH  25  26
ATOM     26  C   UNL     1      30.769 -23.639 -14.077  0.00  0.00    +0.221 C 
ATOM     27  C   UNL     1      30.524 -24.300 -12.724  0.00  0.00    +0.055 C 
ATOM     28  C   UNL     1      31.473 -22.291 -13.945  0.00  0.00    +0.055 C 
BRANCH  26  30
ATOM     29  O   UNL     1      28.894 -24.449 -15.402  0.00  0.00    -0.246 OA
ATOM     30  C   UNL     1      29.477 -23.511 -14.872  0.00  0.00    +0.350 C 
BRANCH  30  31
ATOM     31  O   UNL     1      29.014 -22.236 -14.945  0.00  0.00    -0.478 OA
ATOM     32  H   UNL     1      28.237 -22.047 -15.433  0.00  0.00    +0.295 HD
ENDBRANCH  30  31
ENDBRANCH  26  30
ENDBRANCH  25  26
ENDBRANCH  22  25
ENDBRANCH  18  19
ENDBRANCH   1  18
TORSDOF 10
ENDMDL
MODEL 9
REMARK VINA RESULT:     -10.5      5.587     13.542
REMARK  Name = 9909438
REMARK  10 active torsions:
REMARK  status: ('A' for Active; 'I' for Inactive)
REMARK    1  A    between atoms: C_1  and  C_2
REMARK    2  A    between atoms: C_1  and  C_18
REMARK    3  A    between atoms: C_2  and  C_7
REMARK    4  A    between atoms: N_4  and  C_10
REMARK    5  A    between atoms: C_10  and  C_11
REMARK    6  A    between atoms: C_18  and  C_19
REMARK    7  A    between atoms: C_22  and  O_25
REMARK    8  A    between atoms: O_25  and  C_26
REMARK    9  A    between atoms: C_26  and  C_30
REMARK   10  A    between atoms: C_30  and  O_31
REMARK                            x       y       z     vdW  Elec       q    Type
REMARK                         _______ _______ _______ _____ _____    ______ ____
ROOT
ATOM      1  C   UNL     1      33.492 -13.626 -23.708  0.00  0.00    +0.014 C 
ENDROOT
BRANCH   1   2
ATOM      2  C   UNL     1      33.908 -14.954 -24.335  0.00  0.00    +0.078 C 
BRANCH   2   7
ATOM      3  O   UNL     1      35.234 -16.883 -20.234  0.00  0.00    -0.191 OA
ATOM      4  N   UNL     1      35.322 -17.655 -22.428  0.00  0.00    -0.151 N 
ATOM      5  N   UNL     1      34.956 -17.111 -23.620  0.00  0.00    -0.229 N 
ATOM      6  N   UNL     1      34.470 -15.606 -22.024  0.00  0.00    -0.308 NA
ATOM      7  C   UNL     1      34.456 -15.884 -23.307  0.00  0.00    +0.187 C 
ATOM      8  C   UNL     1      35.034 -16.737 -21.433  0.00  0.00    +0.286 C 
ATOM      9  H   UNL     1      35.035 -17.516 -24.514  0.00  0.00    +0.173 HD
BRANCH   4  10
ATOM     10  C   UNL     1      35.910 -18.963 -22.361  0.00  0.00    +0.152 C 
BRANCH  10  11
ATOM     11  C   UNL     1      35.267 -19.816 -21.306  0.00  0.00    +0.000 C 
ATOM     12  C   UNL     1      33.881 -19.867 -21.216  0.00  0.00    -0.003 C 
ATOM     13  C   UNL     1      36.064 -20.544 -20.430  0.00  0.00    -0.003 C 
ATOM     14  C   UNL     1      34.075 -21.393 -19.353  0.00  0.00    -0.022 C 
ATOM     15  C   UNL     1      33.283 -20.660 -20.235  0.00  0.00    -0.005 C 
ATOM     16  C   UNL     1      35.466 -21.336 -19.450  0.00  0.00    -0.005 C 
ATOM     17  C   UNL     1      33.436 -22.240 -18.305  0.00  0.00    +0.031 C 
ENDBRANCH  10  11
ENDBRANCH   4  10
ENDBRANCH   2   7
ENDBRANCH   1   2
BRANCH   1  18
ATOM     18  C   UNL     1      34.152 -12.424 -24.393  0.00  0.00    +0.027 C 
BRANCH  18  19
ATOM     19  C   UNL     1      33.788 -11.128 -23.715  0.00  0.00    -0.022 C 
ATOM     20  C   UNL     1      32.727 -11.103 -22.822  0.00  0.00    -0.001 C 
ATOM     21  C   UNL     1      34.519  -9.984 -23.994  0.00  0.00    -0.001 C 
ATOM     22  C   UNL     1      33.118  -8.746 -22.464  0.00  0.00    +0.139 C 
ATOM     23  C   UNL     1      32.390  -9.905 -22.192  0.00  0.00    +0.037 C 
ATOM     24  C   UNL     1      34.181  -8.785 -23.365  0.00  0.00    +0.037 C 
BRANCH  22  25
ATOM     25  O   UNL     1      32.788  -7.576 -21.851  0.00  0.00    -0.472 OA
BRANCH  25  26
ATOM     26  C   UNL     1      31.949  -6.678 -22.576  0.00  0.00    +0.221 C 
ATOM     27  C   UNL     1      32.819  -5.922 -23.575  0.00  0.00    +0.055 C 
ATOM     28  C   UNL     1      30.859  -7.498 -23.260  0.00  0.00    +0.055 C 
BRANCH  26  30
ATOM     29  O   UNL     1      30.183  -5.399 -21.493  0.00  0.00    -0.246 OA
ATOM     30  C   UNL     1      31.360  -5.737 -21.534  0.00  0.00    +0.350 C 
BRANCH  30  31
ATOM     31  O   UNL     1      32.272  -5.294 -20.631  0.00  0.00    -0.478 OA
ATOM     32  H   UNL     1      31.990  -4.827 -19.870  0.00  0.00    +0.295 HD
ENDBRANCH  30  31
ENDBRANCH  26  30
ENDBRANCH  25  26
ENDBRANCH  22  25
ENDBRANCH  18  19
ENDBRANCH   1  18
TORSDOF 10
ENDMDL
