MODEL 1
REMARK VINA RESULT:     -13.5      0.000      0.000
REMARK  Name = 21081761
REMARK  5 active torsions:
REMARK  status: ('A' for Active; 'I' for Inactive)
REMARK    1  A    between atoms: N_2  and  C_6
REMARK    2  A    between atoms: C_3  and  C_25
REMARK    3  A    between atoms: C_7  and  O_12
REMARK    4  A    between atoms: O_12  and  C_16
REMARK    5  A    between atoms: N_24  and  C_31
REMARK                            x       y       z     vdW  Elec       q    Type
REMARK                         _______ _______ _______ _____ _____    ______ ____
ROOT
ATOM      1  O   UNL     1      36.085 -17.543 -20.685  0.00  0.00    -0.270 OA
ATOM      2  N   UNL     1      34.255 -18.823 -21.445  0.00  0.00    -0.280 N 
ATOM      3  C   UNL     1      35.125 -17.731 -21.421  0.00  0.00    +0.254 C 
ATOM      4  H   UNL     1      33.536 -18.789 -22.116  0.00  0.00    +0.155 HD
ENDROOT
BRANCH   2   6
ATOM      5  F   UNL     1      36.701 -22.162 -19.050  0.00  0.00    -0.201 F 
ATOM      6  C   UNL     1      34.280 -19.956 -20.631  0.00  0.00    +0.053 C 
ATOM      7  C   UNL     1      34.330 -22.223 -19.007  0.00  0.00    +0.173 C 
ATOM      8  C   UNL     1      35.500 -20.506 -20.238  0.00  0.00    +0.047 C 
ATOM      9  C   UNL     1      33.084 -20.540 -20.211  0.00  0.00    +0.018 C 
ATOM     10  C   UNL     1      35.526 -21.640 -19.426  0.00  0.00    +0.176 C 
ATOM     11  C   UNL     1      33.109 -21.674 -19.400  0.00  0.00    +0.041 C 
BRANCH   7  12
ATOM     12  O   UNL     1      34.354 -23.348 -18.203  0.00  0.00    -0.451 OA
BRANCH  12  16
ATOM     13  N   UNL     1      34.961 -23.121 -13.593  0.00  0.00    -0.297 N 
ATOM     14  N   UNL     1      32.675 -23.004 -14.343  0.00  0.00    -0.229 NA
ATOM     15  C   UNL     1      34.636 -23.227 -15.799  0.00  0.00    +0.067 C 
ATOM     16  C   UNL     1      33.827 -23.237 -16.947  0.00  0.00    +0.150 C 
ATOM     17  C   UNL     1      33.998 -23.110 -14.568  0.00  0.00    +0.135 C 
ATOM     18  C   UNL     1      36.029 -23.311 -15.535  0.00  0.00    +0.022 C 
ATOM     19  C   UNL     1      36.199 -23.243 -14.170  0.00  0.00    +0.063 C 
ATOM     20  C   UNL     1      32.448 -23.129 -16.772  0.00  0.00    +0.058 C 
ATOM     21  C   UNL     1      31.945 -23.019 -15.483  0.00  0.00    +0.103 C 
ATOM     22  H   UNL     1      34.791 -23.052 -12.625  0.00  0.00    +0.154 HD
ENDBRANCH  12  16
ENDBRANCH   7  12
ENDBRANCH   2   6
BRANCH   3  25
ATOM     23  O   UNL     1      33.938 -15.169 -20.899  0.00  0.00    -0.269 OA
ATOM     24  N   UNL     1      33.978 -14.491 -23.164  0.00  0.00    -0.233 N 
ATOM     25  C   UNL     1      34.787 -16.723 -22.432  0.00  0.00    +0.108 C 
ATOM     26  C   UNL     1      34.208 -15.381 -22.081  0.00  0.00    +0.261 C 
ATOM     27  C   UNL     1      34.219 -14.914 -24.472  0.00  0.00    +0.072 C 
ATOM     28  C   UNL     1      34.999 -17.053 -23.711  0.00  0.00    +0.010 C 
ATOM     29  C   UNL     1      34.699 -16.128 -24.763  0.00  0.00    +0.017 C 
BRANCH  24  31
ATOM     30  F   UNL     1      32.027  -9.359 -22.173  0.00  0.00    -0.204 F 
ATOM     31  C   UNL     1      33.471 -13.157 -22.906  0.00  0.00    +0.059 C 
ATOM     32  C   UNL     1      33.983 -12.068 -23.612  0.00  0.00    +0.018 C 
ATOM     33  C   UNL     1      32.471 -12.963 -21.953  0.00  0.00    +0.018 C 
ATOM     34  C   UNL     1      33.495 -10.786 -23.365  0.00  0.00    +0.031 C 
ATOM     35  C   UNL     1      31.983 -11.680 -21.705  0.00  0.00    +0.031 C 
ATOM     36  C   UNL     1      32.495 -10.592 -22.412  0.00  0.00    +0.140 C 
ENDBRANCH  24  31
ENDBRANCH   3  25
TORSDOF 5
ENDMDL
MODEL 2
REMARK VINA RESULT:     -13.2      3.868      6.946
REMARK  Name = 21081761
REMARK  5 active torsions:
REMARK  status: ('A' for Active; 'I' for Inactive)
REMARK    1  A    between atoms: N_2  and  C_6
REMARK    2  A    between atoms: C_3  and  C_25
REMARK    3  A    between atoms: C_7  and  O_12
REMARK    4  A    between atoms: O_12  and  C_16
REMARK    5  A    between atoms: N_24  and  C_31
REMARK                            x       y       z     vdW  Elec       q    Type
REMARK                         _______ _______ _______ _____ _____    ______ ____
ROOT
ATOM      1  O   UNL     1      31.309 -12.630 -21.483  0.00  0.00    -0.270 OA
ATOM      2  N   UNL     1      33.590 -12.549 -22.081  0.00  0.00    -0.280 N 
ATOM      3  C   UNL     1      32.355 -12.027 -21.692  0.00  0.00    +0.254 C 
ATOM      4  H   UNL     1      34.318 -11.897 -22.200  0.00  0.00    +0.155 HD
ENDROOT
BRANCH   2   6
ATOM      5  F   UNL     1      34.425 -16.136 -25.131  0.00  0.00    -0.201 F 
ATOM      6  C   UNL     1      33.919 -13.884 -22.321  0.00  0.00    +0.053 C 
ATOM      7  C   UNL     1      34.574 -16.552 -22.800  0.00  0.00    +0.173 C 
ATOM      8  C   UNL     1      34.010 -14.356 -23.630  0.00  0.00    +0.047 C 
ATOM      9  C   UNL     1      34.157 -14.747 -21.251  0.00  0.00    +0.018 C 
ATOM     10  C   UNL     1      34.338 -15.690 -23.871  0.00  0.00    +0.176 C 
ATOM     11  C   UNL     1      34.484 -16.081 -21.490  0.00  0.00    +0.041 C 
BRANCH   7  12
ATOM     12  O   UNL     1      34.898 -17.875 -23.037  0.00  0.00    -0.451 OA
BRANCH  12  16
ATOM     13  N   UNL     1      34.934 -20.920 -19.515  0.00  0.00    -0.297 N 
ATOM     14  N   UNL     1      37.059 -19.911 -20.034  0.00  0.00    -0.229 NA
ATOM     15  C   UNL     1      34.950 -19.455 -21.200  0.00  0.00    +0.067 C 
ATOM     16  C   UNL     1      35.582 -18.542 -22.061  0.00  0.00    +0.150 C 
ATOM     17  C   UNL     1      35.739 -20.080 -20.240  0.00  0.00    +0.135 C 
ATOM     18  C   UNL     1      33.629 -19.947 -21.032  0.00  0.00    +0.022 C 
ATOM     19  C   UNL     1      33.649 -20.846 -19.989  0.00  0.00    +0.063 C 
ATOM     20  C   UNL     1      36.950 -18.329 -21.892  0.00  0.00    +0.058 C 
ATOM     21  C   UNL     1      37.615 -19.022 -20.890  0.00  0.00    +0.103 C 
ATOM     22  H   UNL     1      35.232 -21.489 -18.769  0.00  0.00    +0.154 HD
ENDBRANCH  12  16
ENDBRANCH   7  12
ENDBRANCH   2   6
BRANCH   3  25
ATOM     23  O   UNL     1      33.513 -10.166 -23.547  0.00  0.00    -0.269 OA
ATOM     24  N   UNL     1      32.887  -8.259 -22.296  0.00  0.00    -0.233 N 
ATOM     25  C   UNL     1      32.388 -10.569 -21.533  0.00  0.00    +0.108 C 
ATOM     26  C   UNL     1      32.971  -9.650 -22.569  0.00  0.00    +0.261 C 
ATOM     27  C   UNL     1      32.353  -7.821 -21.084  0.00  0.00    +0.072 C 
ATOM     28  C   UNL     1      31.884 -10.073 -20.397  0.00  0.00    +0.010 C 
ATOM     29  C   UNL     1      31.874  -8.660 -20.159  0.00  0.00    +0.017 C 
BRANCH  24  31
ATOM     30  F   UNL     1      34.781  -4.580 -26.039  0.00  0.00    -0.204 F 
ATOM     31  C   UNL     1      33.379  -7.303 -23.269  0.00  0.00    +0.059 C 
ATOM     32  C   UNL     1      34.752  -7.147 -23.460  0.00  0.00    +0.018 C 
ATOM     33  C   UNL     1      32.480  -6.539 -24.014  0.00  0.00    +0.018 C 
ATOM     34  C   UNL     1      35.226  -6.227 -24.396  0.00  0.00    +0.031 C 
ATOM     35  C   UNL     1      32.953  -5.620 -24.950  0.00  0.00    +0.031 C 
ATOM     36  C   UNL     1      34.326  -5.464 -25.141  0.00  0.00    +0.140 C 
ENDBRANCH  24  31
ENDBRANCH   3  25
TORSDOF 5
ENDMDL
MODEL 3
REMARK VINA RESULT:     -13.0      3.325     11.443
REMARK  Name = 21081761
REMARK  5 active torsions:
REMARK  status: ('A' for Active; 'I' for Inactive)
REMARK    1  A    between atoms: N_2  and  C_6
REMARK    2  A    between atoms: C_3  and  C_25
REMARK    3  A    between atoms: C_7  and  O_12
REMARK    4  A    between atoms: O_12  and  C_16
REMARK    5  A    between atoms: N_24  and  C_31
REMARK                            x       y       z     vdW  Elec       q    Type
REMARK                         _______ _______ _______ _____ _____    ______ ____
ROOT
ATOM      1  O   UNL     1      35.252 -14.347 -22.971  0.00  0.00    -0.270 OA
ATOM      2  N   UNL     1      33.242 -14.913 -21.873  0.00  0.00    -0.280 N 
ATOM      3  C   UNL     1      34.443 -15.160 -22.541  0.00  0.00    +0.254 C 
ATOM      4  H   UNL     1      32.724 -15.707 -21.604  0.00  0.00    +0.155 HD
ENDROOT
BRANCH   2   6
ATOM      5  F   UNL     1      31.579 -11.858 -18.591  0.00  0.00    -0.201 F 
ATOM      6  C   UNL     1      32.685 -13.678 -21.540  0.00  0.00    +0.053 C 
ATOM      7  C   UNL     1      31.570 -11.210 -20.873  0.00  0.00    +0.173 C 
ATOM      8  C   UNL     1      32.403 -13.376 -20.207  0.00  0.00    +0.047 C 
ATOM      9  C   UNL     1      32.410 -12.745 -22.539  0.00  0.00    +0.018 C 
ATOM     10  C   UNL     1      31.845 -12.142 -19.873  0.00  0.00    +0.176 C 
ATOM     11  C   UNL     1      31.851 -11.511 -22.206  0.00  0.00    +0.041 C 
BRANCH   7  12
ATOM     12  O   UNL     1      31.016  -9.987 -20.544  0.00  0.00    -0.451 OA
BRANCH  12  16
ATOM     13  N   UNL     1      32.277  -6.437 -23.280  0.00  0.00    -0.297 N 
ATOM     14  N   UNL     1      33.391  -6.548 -21.147  0.00  0.00    -0.229 NA
ATOM     15  C   UNL     1      31.694  -8.129 -21.944  0.00  0.00    +0.067 C 
ATOM     16  C   UNL     1      31.777  -8.872 -20.755  0.00  0.00    +0.150 C 
ATOM     17  C   UNL     1      32.513  -7.010 -22.058  0.00  0.00    +0.135 C 
ATOM     18  C   UNL     1      30.947  -8.216 -23.149  0.00  0.00    +0.022 C 
ATOM     19  C   UNL     1      31.327  -7.163 -23.952  0.00  0.00    +0.063 C 
ATOM     20  C   UNL     1      32.671  -8.437 -19.777  0.00  0.00    +0.058 C 
ATOM     21  C   UNL     1      33.430  -7.301 -20.024  0.00  0.00    +0.103 C 
ATOM     22  H   UNL     1      32.721  -5.628 -23.624  0.00  0.00    +0.154 HD
ENDBRANCH  12  16
ENDBRANCH   7  12
ENDBRANCH   2   6
BRANCH   3  25
ATOM     23  O   UNL     1      34.777 -17.068 -20.422  0.00  0.00    -0.269 OA
ATOM     24  N   UNL     1      35.028 -18.911 -21.882  0.00  0.00    -0.233 N 
ATOM     25  C   UNL     1      34.704 -16.594 -22.714  0.00  0.00    +0.108 C 
ATOM     26  C   UNL     1      34.822 -17.544 -21.557  0.00  0.00    +0.261 C 
ATOM     27  C   UNL     1      35.181 -19.290 -23.216  0.00  0.00    +0.072 C 
ATOM     28  C   UNL     1      34.854 -17.034 -23.968  0.00  0.00    +0.010 C 
ATOM     29  C   UNL     1      35.110 -18.420 -24.229  0.00  0.00    +0.017 C 
BRANCH  24  31
ATOM     30  F   UNL     1      35.306 -22.722 -17.817  0.00  0.00    -0.204 F 
ATOM     31  C   UNL     1      35.100 -19.902 -20.825  0.00  0.00    +0.059 C 
ATOM     32  C   UNL     1      33.930 -20.466 -20.317  0.00  0.00    +0.018 C 
ATOM     33  C   UNL     1      36.340 -20.291 -20.318  0.00  0.00    +0.018 C 
ATOM     34  C   UNL     1      33.999 -21.419 -19.301  0.00  0.00    +0.031 C 
ATOM     35  C   UNL     1      36.410 -21.244 -19.302  0.00  0.00    +0.031 C 
ATOM     36  C   UNL     1      35.239 -21.808 -18.793  0.00  0.00    +0.140 C 
ENDBRANCH  24  31
ENDBRANCH   3  25
TORSDOF 5
ENDMDL
MODEL 4
REMARK VINA RESULT:     -12.5      2.922     10.814
REMARK  Name = 21081761
REMARK  5 active torsions:
REMARK  status: ('A' for Active; 'I' for Inactive)
REMARK    1  A    between atoms: N_2  and  C_6
REMARK    2  A    between atoms: C_3  and  C_25
REMARK    3  A    between atoms: C_7  and  O_12
REMARK    4  A    between atoms: O_12  and  C_16
REMARK    5  A    between atoms: N_24  and  C_31
REMARK                            x       y       z     vdW  Elec       q    Type
REMARK                         _______ _______ _______ _____ _____    ______ ____
ROOT
ATOM      1  O   UNL     1      32.723 -22.374 -19.487  0.00  0.00    -0.270 OA
ATOM      2  N   UNL     1      34.657 -21.201 -18.815  0.00  0.00    -0.280 N 
ATOM      3  C   UNL     1      33.587 -22.086 -18.667  0.00  0.00    +0.254 C 
ATOM      4  H   UNL     1      35.248 -21.102 -18.034  0.00  0.00    +0.155 HD
ENDROOT
BRANCH   2   6
ATOM      5  F   UNL     1      37.894 -18.803 -21.392  0.00  0.00    -0.201 F 
ATOM      6  C   UNL     1      34.990 -20.438 -19.934  0.00  0.00    +0.053 C 
ATOM      7  C   UNL     1      35.656 -18.911 -22.172  0.00  0.00    +0.173 C 
ATOM      8  C   UNL     1      36.300 -19.991 -20.110  0.00  0.00    +0.047 C 
ATOM      9  C   UNL     1      34.013 -20.122 -20.879  0.00  0.00    +0.018 C 
ATOM     10  C   UNL     1      36.633 -19.228 -21.229  0.00  0.00    +0.176 C 
ATOM     11  C   UNL     1      34.346 -19.358 -21.997  0.00  0.00    +0.041 C 
BRANCH   7  12
ATOM     12  O   UNL     1      35.984 -18.154 -23.281  0.00  0.00    -0.451 OA
BRANCH  12  16
ATOM     13  N   UNL     1      33.659 -14.411 -21.776  0.00  0.00    -0.297 N 
ATOM     14  N   UNL     1      33.603 -14.778 -24.156  0.00  0.00    -0.229 NA
ATOM     15  C   UNL     1      34.765 -16.199 -22.530  0.00  0.00    +0.067 C 
ATOM     16  C   UNL     1      35.213 -17.057 -23.547  0.00  0.00    +0.150 C 
ATOM     17  C   UNL     1      33.985 -15.110 -22.909  0.00  0.00    +0.135 C 
ATOM     18  C   UNL     1      34.902 -16.136 -21.117  0.00  0.00    +0.022 C 
ATOM     19  C   UNL     1      34.211 -15.026 -20.681  0.00  0.00    +0.063 C 
ATOM     20  C   UNL     1      34.847 -16.759 -24.858  0.00  0.00    +0.058 C 
ATOM     21  C   UNL     1      34.062 -15.638 -25.094  0.00  0.00    +0.103 C 
ATOM     22  H   UNL     1      33.113 -13.592 -21.751  0.00  0.00    +0.154 HD
ENDBRANCH  12  16
ENDBRANCH   7  12
ENDBRANCH   2   6
BRANCH   3  25
ATOM     23  O   UNL     1      35.884 -22.859 -17.128  0.00  0.00    -0.269 OA
ATOM     24  N   UNL     1      34.613 -23.608 -15.280  0.00  0.00    -0.233 N 
ATOM     25  C   UNL     1      33.556 -22.713 -17.341  0.00  0.00    +0.108 C 
ATOM     26  C   UNL     1      34.802 -23.049 -16.572  0.00  0.00    +0.261 C 
ATOM     27  C   UNL     1      33.323 -23.883 -14.825  0.00  0.00    +0.072 C 
ATOM     28  C   UNL     1      32.351 -22.998 -16.834  0.00  0.00    +0.010 C 
ATOM     29  C   UNL     1      32.229 -23.609 -15.544  0.00  0.00    +0.017 C 
BRANCH  24  31
ATOM     30  F   UNL     1      39.038 -24.781 -12.090  0.00  0.00    -0.204 F 
ATOM     31  C   UNL     1      35.763 -23.913 -14.450  0.00  0.00    +0.059 C 
ATOM     32  C   UNL     1      36.398 -25.150 -14.567  0.00  0.00    +0.018 C 
ATOM     33  C   UNL     1      36.234 -22.969 -13.537  0.00  0.00    +0.018 C 
ATOM     34  C   UNL     1      37.505 -25.442 -13.769  0.00  0.00    +0.031 C 
ATOM     35  C   UNL     1      37.341 -23.262 -12.740  0.00  0.00    +0.031 C 
ATOM     36  C   UNL     1      37.976 -24.499 -12.856  0.00  0.00    +0.140 C 
ENDBRANCH  24  31
ENDBRANCH   3  25
TORSDOF 5
ENDMDL
MODEL 5
REMARK VINA RESULT:     -12.5      2.843     11.039
REMARK  Name = 21081761
REMARK  5 active torsions:
REMARK  status: ('A' for Active; 'I' for Inactive)
REMARK    1  A    between atoms: N_2  and  C_6
REMARK    2  A    between atoms: C_3  and  C_25
REMARK    3  A    between atoms: C_7  and  O_12
REMARK    4  A    between atoms: O_12  and  C_16
REMARK    5  A    between atoms: N_24  and  C_31
REMARK                            x       y       z     vdW  Elec       q    Type
REMARK                         _______ _______ _______ _____ _____    ______ ____
ROOT
ATOM      1  O   UNL     1      36.770 -21.587 -19.731  0.00  0.00    -0.270 OA
ATOM      2  N   UNL     1      34.758 -20.366 -19.894  0.00  0.00    -0.280 N 
ATOM      3  C   UNL     1      35.625 -21.333 -19.380  0.00  0.00    +0.254 C 
ATOM      4  H   UNL     1      33.868 -20.315 -19.476  0.00  0.00    +0.155 HD
ENDROOT
BRANCH   2   6
ATOM      5  F   UNL     1      34.291 -19.087 -24.479  0.00  0.00    -0.201 F 
ATOM      6  C   UNL     1      34.999 -19.464 -20.931  0.00  0.00    +0.053 C 
ATOM      7  C   UNL     1      35.483 -17.661 -23.004  0.00  0.00    +0.173 C 
ATOM      8  C   UNL     1      34.516 -19.728 -22.213  0.00  0.00    +0.047 C 
ATOM      9  C   UNL     1      35.723 -18.297 -20.686  0.00  0.00    +0.018 C 
ATOM     10  C   UNL     1      34.759 -18.827 -23.250  0.00  0.00    +0.176 C 
ATOM     11  C   UNL     1      35.966 -17.396 -21.722  0.00  0.00    +0.041 C 
BRANCH   7  12
ATOM     12  O   UNL     1      35.725 -16.768 -24.031  0.00  0.00    -0.451 OA
BRANCH  12  16
ATOM     13  N   UNL     1      32.888 -13.358 -22.618  0.00  0.00    -0.297 N 
ATOM     14  N   UNL     1      32.718 -13.948 -24.947  0.00  0.00    -0.229 NA
ATOM     15  C   UNL     1      34.236 -14.990 -23.327  0.00  0.00    +0.067 C 
ATOM     16  C   UNL     1      34.752 -15.850 -24.311  0.00  0.00    +0.150 C 
ATOM     17  C   UNL     1      33.247 -14.092 -23.718  0.00  0.00    +0.135 C 
ATOM     18  C   UNL     1      34.465 -14.774 -21.942  0.00  0.00    +0.022 C 
ATOM     19  C   UNL     1      33.622 -13.764 -21.534  0.00  0.00    +0.063 C 
ATOM     20  C   UNL     1      34.239 -15.743 -25.603  0.00  0.00    +0.058 C 
ATOM     21  C   UNL     1      33.251 -14.801 -25.853  0.00  0.00    +0.103 C 
ATOM     22  H   UNL     1      32.207 -12.646 -22.608  0.00  0.00    +0.154 HD
ENDBRANCH  12  16
ENDBRANCH   7  12
ENDBRANCH   2   6
BRANCH   3  25
ATOM     23  O   UNL     1      37.030 -22.417 -17.123  0.00  0.00    -0.269 OA
ATOM     24  N   UNL     1      35.081 -23.286 -16.103  0.00  0.00    -0.233 N 
ATOM     25  C   UNL     1      35.021 -22.100 -18.285  0.00  0.00    +0.108 C 
ATOM     26  C   UNL     1      35.812 -22.599 -17.109  0.00  0.00    +0.261 C 
ATOM     27  C   UNL     1      33.718 -23.527 -16.280  0.00  0.00    +0.072 C 
ATOM     28  C   UNL     1      33.713 -22.364 -18.380  0.00  0.00    +0.010 C 
ATOM     29  C   UNL     1      33.042 -23.106 -17.354  0.00  0.00    +0.017 C 
BRANCH  24  31
ATOM     30  F   UNL     1      37.692 -25.085 -11.513  0.00  0.00    -0.204 F 
ATOM     31  C   UNL     1      35.760 -23.754 -14.910  0.00  0.00    +0.059 C 
ATOM     32  C   UNL     1      36.161 -22.842 -13.933  0.00  0.00    +0.018 C 
ATOM     33  C   UNL     1      36.011 -25.115 -14.739  0.00  0.00    +0.018 C 
ATOM     34  C   UNL     1      36.813 -23.292 -12.786  0.00  0.00    +0.031 C 
ATOM     35  C   UNL     1      36.663 -25.565 -13.591  0.00  0.00    +0.031 C 
ATOM     36  C   UNL     1      37.064 -24.653 -12.614  0.00  0.00    +0.140 C 
ENDBRANCH  24  31
ENDBRANCH   3  25
TORSDOF 5
ENDMDL
MODEL 6
REMARK VINA RESULT:     -12.4      3.169      5.630
REMARK  Name = 21081761
REMARK  5 active torsions:
REMARK  status: ('A' for Active; 'I' for Inactive)
REMARK    1  A    between atoms: N_2  and  C_6
REMARK    2  A    between atoms: C_3  and  C_25
REMARK    3  A    between atoms: C_7  and  O_12
REMARK    4  A    between atoms: O_12  and  C_16
REMARK    5  A    between atoms: N_24  and  C_31
REMARK                            x       y       z     vdW  Elec       q    Type
REMARK                         _______ _______ _______ _____ _____    ______ ____
ROOT
ATOM      1  O   UNL     1      33.177 -13.321 -24.050  0.00  0.00    -0.270 OA
ATOM      2  N   UNL     1      33.795 -13.664 -21.799  0.00  0.00    -0.280 N 
ATOM      3  C   UNL     1      33.311 -12.943 -22.893  0.00  0.00    +0.254 C 
ATOM      4  H   UNL     1      33.828 -13.181 -20.942  0.00  0.00    +0.155 HD
ENDROOT
BRANCH   2   6
ATOM      5  F   UNL     1      35.322 -17.578 -24.085  0.00  0.00    -0.201 F 
ATOM      6  C   UNL     1      34.239 -14.986 -21.773  0.00  0.00    +0.053 C 
ATOM      7  C   UNL     1      35.123 -17.632 -21.721  0.00  0.00    +0.173 C 
ATOM      8  C   UNL     1      34.566 -15.637 -22.964  0.00  0.00    +0.047 C 
ATOM      9  C   UNL     1      34.355 -15.659 -20.557  0.00  0.00    +0.018 C 
ATOM     10  C   UNL     1      35.008 -16.960 -22.938  0.00  0.00    +0.176 C 
ATOM     11  C   UNL     1      34.796 -16.982 -20.531  0.00  0.00    +0.041 C 
BRANCH   7  12
ATOM     12  O   UNL     1      35.560 -18.943 -21.695  0.00  0.00    -0.451 OA
BRANCH  12  16
ATOM     13  N   UNL     1      35.506 -22.201 -18.369  0.00  0.00    -0.297 N 
ATOM     14  N   UNL     1      33.361 -21.653 -19.318  0.00  0.00    -0.229 NA
ATOM     15  C   UNL     1      35.498 -20.641 -19.967  0.00  0.00    +0.067 C 
ATOM     16  C   UNL     1      34.863 -19.825 -20.918  0.00  0.00    +0.150 C 
ATOM     17  C   UNL     1      34.696 -21.505 -19.228  0.00  0.00    +0.135 C 
ATOM     18  C   UNL     1      36.833 -20.839 -19.525  0.00  0.00    +0.022 C 
ATOM     19  C   UNL     1      36.807 -21.804 -18.542  0.00  0.00    +0.063 C 
ATOM     20  C   UNL     1      33.480 -19.937 -21.052  0.00  0.00    +0.058 C 
ATOM     21  C   UNL     1      32.803 -20.844 -20.248  0.00  0.00    +0.103 C 
ATOM     22  H   UNL     1      35.201 -22.882 -17.726  0.00  0.00    +0.154 HD
ENDBRANCH  12  16
ENDBRANCH   7  12
ENDBRANCH   2   6
BRANCH   3  25
ATOM     23  O   UNL     1      34.325 -10.557 -24.128  0.00  0.00    -0.269 OA
ATOM     24  N   UNL     1      32.980  -9.105 -22.834  0.00  0.00    -0.233 N 
ATOM     25  C   UNL     1      32.935 -11.570 -22.538  0.00  0.00    +0.108 C 
ATOM     26  C   UNL     1      33.473 -10.367 -23.259  0.00  0.00    +0.261 C 
ATOM     27  C   UNL     1      32.104  -9.032 -21.750  0.00  0.00    +0.072 C 
ATOM     28  C   UNL     1      32.090 -11.421 -21.511  0.00  0.00    +0.010 C 
ATOM     29  C   UNL     1      31.669 -10.115 -21.098  0.00  0.00    +0.017 C 
BRANCH  24  31
ATOM     30  F   UNL     1      34.627  -4.459 -25.448  0.00  0.00    -0.204 F 
ATOM     31  C   UNL     1      33.408  -7.897 -23.513  0.00  0.00    +0.059 C 
ATOM     32  C   UNL     1      34.766  -7.589 -23.598  0.00  0.00    +0.018 C 
ATOM     33  C   UNL     1      32.461  -7.044 -24.082  0.00  0.00    +0.018 C 
ATOM     34  C   UNL     1      35.177  -6.428 -24.252  0.00  0.00    +0.031 C 
ATOM     35  C   UNL     1      32.873  -5.883 -24.736  0.00  0.00    +0.031 C 
ATOM     36  C   UNL     1      34.231  -5.575 -24.821  0.00  0.00    +0.140 C 
ENDBRANCH  24  31
ENDBRANCH   3  25
TORSDOF 5
ENDMDL
MODEL 7
REMARK VINA RESULT:     -12.3      3.568      6.500
REMARK  Name = 21081761
REMARK  5 active torsions:
REMARK  status: ('A' for Active; 'I' for Inactive)
REMARK    1  A    between atoms: N_2  and  C_6
REMARK    2  A    between atoms: C_3  and  C_25
REMARK    3  A    between atoms: C_7  and  O_12
REMARK    4  A    between atoms: O_12  and  C_16
REMARK    5  A    between atoms: N_24  and  C_31
REMARK                            x       y       z     vdW  Elec       q    Type
REMARK                         _______ _______ _______ _____ _____    ______ ____
ROOT
ATOM      1  O   UNL     1      32.452 -12.520 -22.358  0.00  0.00    -0.270 OA
ATOM      2  N   UNL     1      34.523 -13.027 -23.368  0.00  0.00    -0.280 N 
ATOM      3  C   UNL     1      33.492 -12.199 -22.920  0.00  0.00    +0.254 C 
ATOM      4  H   UNL     1      35.284 -12.576 -23.800  0.00  0.00    +0.155 HD
ENDROOT
BRANCH   2   6
ATOM      5  F   UNL     1      34.686 -17.321 -25.466  0.00  0.00    -0.201 F 
ATOM      6  C   UNL     1      34.606 -14.417 -23.278  0.00  0.00    +0.053 C 
ATOM      7  C   UNL     1      34.769 -17.196 -23.099  0.00  0.00    +0.173 C 
ATOM      8  C   UNL     1      34.605 -15.193 -24.438  0.00  0.00    +0.047 C 
ATOM      9  C   UNL     1      34.690 -15.032 -22.029  0.00  0.00    +0.018 C 
ATOM     10  C   UNL     1      34.686 -16.583 -24.348  0.00  0.00    +0.176 C 
ATOM     11  C   UNL     1      34.770 -16.421 -21.939  0.00  0.00    +0.041 C 
BRANCH   7  12
ATOM     12  O   UNL     1      34.848 -18.573 -23.009  0.00  0.00    -0.451 OA
BRANCH  12  16
ATOM     13  N   UNL     1      34.752 -21.125 -19.116  0.00  0.00    -0.297 N 
ATOM     14  N   UNL     1      36.892 -20.174 -19.678  0.00  0.00    -0.229 NA
ATOM     15  C   UNL     1      34.831 -19.895 -20.978  0.00  0.00    +0.067 C 
ATOM     16  C   UNL     1      35.495 -19.099 -21.926  0.00  0.00    +0.150 C 
ATOM     17  C   UNL     1      35.582 -20.381 -19.912  0.00  0.00    +0.135 C 
ATOM     18  C   UNL     1      33.506 -20.374 -20.800  0.00  0.00    +0.022 C 
ATOM     19  C   UNL     1      33.487 -21.127 -19.647  0.00  0.00    +0.063 C 
ATOM     20  C   UNL     1      36.853 -18.852 -21.732  0.00  0.00    +0.058 C 
ATOM     21  C   UNL     1      37.479 -19.400 -20.621  0.00  0.00    +0.103 C 
ATOM     22  H   UNL     1      35.021 -21.589 -18.290  0.00  0.00    +0.154 HD
ENDBRANCH  12  16
ENDBRANCH   7  12
ENDBRANCH   2   6
BRANCH   3  25
ATOM     23  O   UNL     1      31.773 -10.012 -22.208  0.00  0.00    -0.269 OA
ATOM     24  N   UNL     1      33.244  -8.355 -23.033  0.00  0.00    -0.233 N 
ATOM     25  C   UNL     1      33.756 -10.780 -23.187  0.00  0.00    +0.108 C 
ATOM     26  C   UNL     1      32.831  -9.683 -22.744  0.00  0.00    +0.261 C 
ATOM     27  C   UNL     1      34.416  -8.137 -23.759  0.00  0.00    +0.072 C 
ATOM     28  C   UNL     1      34.869 -10.491 -23.873  0.00  0.00    +0.010 C 
ATOM     29  C   UNL     1      35.205  -9.132 -24.177  0.00  0.00    +0.017 C 
BRANCH  24  31
ATOM     30  F   UNL     1      30.127  -4.049 -21.340  0.00  0.00    -0.204 F 
ATOM     31  C   UNL     1      32.434  -7.236 -22.593  0.00  0.00    +0.059 C 
ATOM     32  C   UNL     1      31.537  -6.635 -23.476  0.00  0.00    +0.018 C 
ATOM     33  C   UNL     1      32.552  -6.760 -21.287  0.00  0.00    +0.018 C 
ATOM     34  C   UNL     1      30.757  -5.559 -23.053  0.00  0.00    +0.031 C 
ATOM     35  C   UNL     1      31.773  -5.684 -20.863  0.00  0.00    +0.031 C 
ATOM     36  C   UNL     1      30.875  -5.083 -21.746  0.00  0.00    +0.140 C 
ENDBRANCH  24  31
ENDBRANCH   3  25
TORSDOF 5
ENDMDL
MODEL 8
REMARK VINA RESULT:     -12.3      4.527     13.562
REMARK  Name = 21081761
REMARK  5 active torsions:
REMARK  status: ('A' for Active; 'I' for Inactive)
REMARK    1  A    between atoms: N_2  and  C_6
REMARK    2  A    between atoms: C_3  and  C_25
REMARK    3  A    between atoms: C_7  and  O_12
REMARK    4  A    between atoms: O_12  and  C_16
REMARK    5  A    between atoms: N_24  and  C_31
REMARK                            x       y       z     vdW  Elec       q    Type
REMARK                         _______ _______ _______ _____ _____    ______ ____
ROOT
ATOM      1  O   UNL     1      32.669 -13.012 -22.200  0.00  0.00    -0.270 OA
ATOM      2  N   UNL     1      34.247 -12.069 -23.680  0.00  0.00    -0.280 N 
ATOM      3  C   UNL     1      33.554 -13.101 -23.042  0.00  0.00    +0.254 C 
ATOM      4  H   UNL     1      34.930 -12.344 -24.333  0.00  0.00    +0.155 HD
ENDROOT
BRANCH   2   6
ATOM      5  F   UNL     1      31.607  -8.340 -22.265  0.00  0.00    -0.201 F 
ATOM      6  C   UNL     1      34.088 -10.694 -23.503  0.00  0.00    +0.053 C 
ATOM      7  C   UNL     1      33.771  -7.945 -23.153  0.00  0.00    +0.173 C 
ATOM      8  C   UNL     1      32.905 -10.191 -22.962  0.00  0.00    +0.047 C 
ATOM      9  C   UNL     1      35.114  -9.821 -23.869  0.00  0.00    +0.018 C 
ATOM     10  C   UNL     1      32.746  -8.816 -22.787  0.00  0.00    +0.176 C 
ATOM     11  C   UNL     1      34.955  -8.447 -23.695  0.00  0.00    +0.041 C 
BRANCH   7  12
ATOM     12  O   UNL     1      33.614  -6.582 -22.981  0.00  0.00    -0.451 OA
BRANCH  12  16
ATOM     13  N   UNL     1      31.676  -3.140 -25.446  0.00  0.00    -0.297 N 
ATOM     14  N   UNL     1      33.581  -4.201 -26.469  0.00  0.00    -0.229 NA
ATOM     15  C   UNL     1      32.629  -4.795 -24.288  0.00  0.00    +0.067 C 
ATOM     16  C   UNL     1      33.590  -5.803 -24.103  0.00  0.00    +0.150 C 
ATOM     17  C   UNL     1      32.693  -4.059 -25.467  0.00  0.00    +0.135 C 
ATOM     18  C   UNL     1      31.530  -4.288 -23.545  0.00  0.00    +0.022 C 
ATOM     19  C   UNL     1      30.963  -3.271 -24.281  0.00  0.00    +0.063 C 
ATOM     20  C   UNL     1      34.535  -5.993 -25.110  0.00  0.00    +0.058 C 
ATOM     21  C   UNL     1      34.482  -5.185 -26.238  0.00  0.00    +0.103 C 
ATOM     22  H   UNL     1      31.486  -2.486 -26.156  0.00  0.00    +0.154 HD
ENDBRANCH  12  16
ENDBRANCH   7  12
ENDBRANCH   2   6
BRANCH   3  25
ATOM     23  O   UNL     1      34.692 -15.134 -21.366  0.00  0.00    -0.269 OA
ATOM     24  N   UNL     1      34.877 -16.719 -23.112  0.00  0.00    -0.233 N 
ATOM     25  C   UNL     1      33.993 -14.428 -23.486  0.00  0.00    +0.108 C 
ATOM     26  C   UNL     1      34.539 -15.462 -22.542  0.00  0.00    +0.261 C 
ATOM     27  C   UNL     1      34.764 -16.908 -24.489  0.00  0.00    +0.072 C 
ATOM     28  C   UNL     1      33.906 -14.688 -24.796  0.00  0.00    +0.010 C 
ATOM     29  C   UNL     1      34.311 -15.960 -25.316  0.00  0.00    +0.017 C 
BRANCH  24  31
ATOM     30  F   UNL     1      36.738 -20.836 -19.840  0.00  0.00    -0.204 F 
ATOM     31  C   UNL     1      35.361 -17.789 -22.261  0.00  0.00    +0.059 C 
ATOM     32  C   UNL     1      34.481 -18.772 -21.808  0.00  0.00    +0.018 C 
ATOM     33  C   UNL     1      36.707 -17.835 -21.896  0.00  0.00    +0.018 C 
ATOM     34  C   UNL     1      34.946 -19.802 -20.991  0.00  0.00    +0.031 C 
ATOM     35  C   UNL     1      37.173 -18.865 -21.078  0.00  0.00    +0.031 C 
ATOM     36  C   UNL     1      36.292 -19.848 -20.626  0.00  0.00    +0.140 C 
ENDBRANCH  24  31
ENDBRANCH   3  25
TORSDOF 5
ENDMDL
MODEL 9
REMARK VINA RESULT:     -12.2      3.098     11.409
REMARK  Name = 21081761
REMARK  5 active torsions:
REMARK  status: ('A' for Active; 'I' for Inactive)
REMARK    1  A    between atoms: N_2  and  C_6
REMARK    2  A    between atoms: C_3  and  C_25
REMARK    3  A    between atoms: C_7  and  O_12
REMARK    4  A    between atoms: O_12  and  C_16
REMARK    5  A    between atoms: N_24  and  C_31
REMARK                            x       y       z     vdW  Elec       q    Type
REMARK                         _______ _______ _______ _____ _____    ______ ____
ROOT
ATOM      1  O   UNL     1      32.042 -22.148 -17.915  0.00  0.00    -0.270 OA
ATOM      2  N   UNL     1      34.398 -22.049 -17.990  0.00  0.00    -0.280 N 
ATOM      3  C   UNL     1      33.153 -22.436 -17.489  0.00  0.00    +0.254 C 
ATOM      4  H   UNL     1      35.185 -22.385 -17.503  0.00  0.00    +0.155 HD
ENDROOT
BRANCH   2   6
ATOM      5  F   UNL     1      37.506 -19.760 -20.814  0.00  0.00    -0.201 F 
ATOM      6  C   UNL     1      34.662 -21.242 -19.098  0.00  0.00    +0.053 C 
ATOM      7  C   UNL     1      35.190 -19.629 -21.311  0.00  0.00    +0.173 C 
ATOM      8  C   UNL     1      35.977 -20.895 -19.411  0.00  0.00    +0.047 C 
ATOM      9  C   UNL     1      33.612 -20.783 -19.892  0.00  0.00    +0.018 C 
ATOM     10  C   UNL     1      36.241 -20.088 -20.518  0.00  0.00    +0.176 C 
ATOM     11  C   UNL     1      33.875 -19.975 -20.998  0.00  0.00    +0.041 C 
BRANCH   7  12
ATOM     12  O   UNL     1      35.451 -18.828 -22.407  0.00  0.00    -0.451 OA
BRANCH  12  16
ATOM     13  N   UNL     1      34.136 -14.893 -24.521  0.00  0.00    -0.297 N 
ATOM     14  N   UNL     1      34.309 -14.772 -22.122  0.00  0.00    -0.229 NA
ATOM     15  C   UNL     1      34.764 -16.764 -23.477  0.00  0.00    +0.067 C 
ATOM     16  C   UNL     1      35.079 -17.515 -22.332  0.00  0.00    +0.150 C 
ATOM     17  C   UNL     1      34.398 -15.435 -23.290  0.00  0.00    +0.135 C 
ATOM     18  C   UNL     1      34.715 -17.012 -24.875  0.00  0.00    +0.022 C 
ATOM     19  C   UNL     1      34.326 -15.844 -25.491  0.00  0.00    +0.063 C 
ATOM     20  C   UNL     1      35.003 -16.877 -21.095  0.00  0.00    +0.058 C 
ATOM     21  C   UNL     1      34.624 -15.542 -21.054  0.00  0.00    +0.103 C 
ATOM     22  H   UNL     1      33.853 -13.964 -24.685  0.00  0.00    +0.154 HD
ENDBRANCH  12  16
ENDBRANCH   7  12
ENDBRANCH   2   6
BRANCH   3  25
ATOM     23  O   UNL     1      35.603 -23.458 -16.394  0.00  0.00    -0.269 OA
ATOM     24  N   UNL     1      34.546 -24.539 -14.576  0.00  0.00    -0.233 N 
ATOM     25  C   UNL     1      33.269 -23.293 -16.303  0.00  0.00    +0.108 C 
ATOM     26  C   UNL     1      34.591 -23.754 -15.759  0.00  0.00    +0.261 C 
ATOM     27  C   UNL     1      33.313 -24.900 -14.030  0.00  0.00    +0.072 C 
ATOM     28  C   UNL     1      32.127 -23.674 -15.719  0.00  0.00    +0.010 C 
ATOM     29  C   UNL     1      32.147 -24.509 -14.555  0.00  0.00    +0.017 C 
BRANCH  24  31
ATOM     30  F   UNL     1      39.294 -26.237 -12.189  0.00  0.00    -0.204 F 
ATOM     31  C   UNL     1      35.780 -24.980 -13.955  0.00  0.00    +0.059 C 
ATOM     32  C   UNL     1      36.333 -24.248 -12.904  0.00  0.00    +0.018 C 
ATOM     33  C   UNL     1      36.414 -26.137 -14.410  0.00  0.00    +0.018 C 
ATOM     34  C   UNL     1      37.519 -24.673 -12.307  0.00  0.00    +0.031 C 
ATOM     35  C   UNL     1      37.601 -26.562 -13.813  0.00  0.00    +0.031 C 
ATOM     36  C   UNL     1      38.154 -25.830 -12.761  0.00  0.00    +0.140 C 
ENDBRANCH  24  31
ENDBRANCH   3  25
TORSDOF 5
ENDMDL
