MODEL 1
REMARK VINA RESULT:     -11.5      0.000      0.000
REMARK  Name = 5288712
REMARK  5 active torsions:
REMARK  status: ('A' for Active; 'I' for Inactive)
REMARK    1  A    between atoms: C_1  and  N_18
REMARK    2  A    between atoms: C_2  and  S_7
REMARK    3  A    between atoms: S_7  and  N_10
REMARK    4  A    between atoms: N_10  and  C_13
REMARK    5  A    between atoms: N_18  and  C_26
REMARK                            x       y       z     vdW  Elec       q    Type
REMARK                         _______ _______ _______ _____ _____    ______ ____
ROOT
ATOM      1  C   UNL     1      35.665 -19.552 -20.896  0.00  0.00    +0.048 C 
ATOM      2  C   UNL     1      34.447 -21.536 -19.349  0.00  0.00    +0.129 C 
ATOM      3  C   UNL     1      36.444 -20.430 -20.139  0.00  0.00    +0.016 C 
ATOM      4  C   UNL     1      34.272 -19.672 -20.876  0.00  0.00    +0.016 C 
ATOM      5  C   UNL     1      35.836 -21.420 -19.367  0.00  0.00    +0.022 C 
ATOM      6  C   UNL     1      33.664 -20.661 -20.103  0.00  0.00    +0.022 C 
ENDROOT
BRANCH   2   7
ATOM      7  S   UNL     1      33.685 -22.774 -18.382  0.00  0.00    +0.103 S 
ATOM      8  O   UNL     1      33.782 -24.033 -19.112  0.00  0.00    -0.146 OA
ATOM      9  O   UNL     1      32.371 -22.256 -18.020  0.00  0.00    -0.146 OA
BRANCH   7  10
ATOM     10  N   UNL     1      34.632 -22.874 -17.050  0.00  0.00    -0.093 NA
BRANCH  10  13
ATOM     11  N   UNL     1      33.067 -23.458 -15.322  0.00  0.00    -0.369 N 
ATOM     12  N   UNL     1      35.119 -24.453 -15.408  0.00  0.00    -0.369 N 
ATOM     13  C   UNL     1      34.268 -23.543 -15.988  0.00  0.00    +0.212 C 
ATOM     14  H   UNL     1      32.370 -22.840 -15.639  0.00  0.00    +0.159 HD
ATOM     15  H   UNL     1      32.906 -24.016 -14.527  0.00  0.00    +0.159 HD
ATOM     16  H   UNL     1      36.013 -24.606 -15.793  0.00  0.00    +0.159 HD
ATOM     17  H   UNL     1      34.835 -24.952 -14.609  0.00  0.00    +0.159 HD
ENDBRANCH  10  13
ENDBRANCH   7  10
ENDBRANCH   2   7
BRANCH   1  18
ATOM     18  N   UNL     1      36.277 -18.556 -21.675  0.00  0.00    -0.311 N 
ATOM     19  H   UNL     1      37.203 -18.331 -21.429  0.00  0.00    +0.152 HD
BRANCH  18  26
ATOM     20  O   UNL     1      35.004 -16.353 -20.284  0.00  0.00    -0.270 OA
ATOM     21  N   UNL     1      33.976 -14.901 -21.839  0.00  0.00    -0.280 N 
ATOM     22  C   UNL     1      34.496 -15.976 -23.804  0.00  0.00    +0.019 C 
ATOM     23  C   UNL     1      35.056 -16.731 -22.689  0.00  0.00    +0.069 C 
ATOM     24  C   UNL     1      33.851 -14.875 -23.232  0.00  0.00    +0.051 C 
ATOM     25  C   UNL     1      34.707 -16.016 -21.415  0.00  0.00    +0.251 C 
ATOM     26  C   UNL     1      35.761 -17.863 -22.722  0.00  0.00    +0.066 C 
ATOM     27  C   UNL     1      34.502 -16.157 -25.174  0.00  0.00    +0.001 C 
ATOM     28  C   UNL     1      33.197 -13.925 -23.991  0.00  0.00    +0.015 C 
ATOM     29  C   UNL     1      33.845 -15.205 -25.962  0.00  0.00    +0.000 C 
ATOM     30  C   UNL     1      33.199 -14.101 -25.377  0.00  0.00    +0.001 C 
ATOM     31  H   UNL     1      33.597 -14.222 -21.234  0.00  0.00    +0.155 HD
ENDBRANCH  18  26
ENDBRANCH   1  18
TORSDOF 5
ENDMDL
MODEL 2
REMARK VINA RESULT:     -11.2      2.755      9.360
REMARK  Name = 5288712
REMARK  5 active torsions:
REMARK  status: ('A' for Active; 'I' for Inactive)
REMARK    1  A    between atoms: C_1  and  N_18
REMARK    2  A    between atoms: C_2  and  S_7
REMARK    3  A    between atoms: S_7  and  N_10
REMARK    4  A    between atoms: N_10  and  C_13
REMARK    5  A    between atoms: N_18  and  C_26
REMARK                            x       y       z     vdW  Elec       q    Type
REMARK                         _______ _______ _______ _____ _____    ______ ____
ROOT
ATOM      1  C   UNL     1      34.790 -21.814 -19.005  0.00  0.00    +0.048 C 
ATOM      2  C   UNL     1      35.240 -19.831 -20.922  0.00  0.00    +0.129 C 
ATOM      3  C   UNL     1      36.094 -21.473 -19.369  0.00  0.00    +0.016 C 
ATOM      4  C   UNL     1      33.710 -21.157 -19.604  0.00  0.00    +0.016 C 
ATOM      5  C   UNL     1      36.319 -20.483 -20.326  0.00  0.00    +0.022 C 
ATOM      6  C   UNL     1      33.935 -20.168 -20.562  0.00  0.00    +0.022 C 
ENDROOT
BRANCH   2   7
ATOM      7  S   UNL     1      35.521 -18.592 -22.121  0.00  0.00    +0.103 S 
ATOM      8  O   UNL     1      34.687 -18.894 -23.279  0.00  0.00    -0.146 OA
ATOM      9  O   UNL     1      36.967 -18.505 -22.284  0.00  0.00    -0.146 OA
BRANCH   7  10
ATOM     10  N   UNL     1      34.956 -17.226 -21.417  0.00  0.00    -0.093 NA
BRANCH  10  13
ATOM     11  N   UNL     1      34.487 -14.873 -21.556  0.00  0.00    -0.369 N 
ATOM     12  N   UNL     1      35.448 -15.966 -23.314  0.00  0.00    -0.369 N 
ATOM     13  C   UNL     1      34.952 -16.076 -22.038  0.00  0.00    +0.212 C 
ATOM     14  H   UNL     1      34.106 -14.818 -20.651  0.00  0.00    +0.159 HD
ATOM     15  H   UNL     1      34.536 -14.067 -22.119  0.00  0.00    +0.159 HD
ATOM     16  H   UNL     1      35.812 -16.760 -23.771  0.00  0.00    +0.159 HD
ATOM     17  H   UNL     1      35.440 -15.096 -23.772  0.00  0.00    +0.159 HD
ENDBRANCH  10  13
ENDBRANCH   7  10
ENDBRANCH   2   7
BRANCH   1  18
ATOM     18  N   UNL     1      34.562 -22.810 -18.041  0.00  0.00    -0.311 N 
ATOM     19  H   UNL     1      35.339 -23.373 -17.818  0.00  0.00    +0.152 HD
BRANCH  18  26
ATOM     20  O   UNL     1      35.531 -22.873 -15.309  0.00  0.00    -0.270 OA
ATOM     21  N   UNL     1      33.754 -23.362 -13.831  0.00  0.00    -0.280 N 
ATOM     22  C   UNL     1      32.023 -23.566 -15.332  0.00  0.00    +0.019 C 
ATOM     23  C   UNL     1      33.247 -23.255 -16.061  0.00  0.00    +0.069 C 
ATOM     24  C   UNL     1      32.386 -23.619 -13.983  0.00  0.00    +0.051 C 
ATOM     25  C   UNL     1      34.365 -23.126 -15.067  0.00  0.00    +0.251 C 
ATOM     26  C   UNL     1      33.416 -23.100 -17.375  0.00  0.00    +0.066 C 
ATOM     27  C   UNL     1      30.715 -23.790 -15.720  0.00  0.00    +0.001 C 
ATOM     28  C   UNL     1      31.475 -23.893 -12.982  0.00  0.00    +0.015 C 
ATOM     29  C   UNL     1      29.776 -24.069 -14.721  0.00  0.00    +0.000 C 
ATOM     30  C   UNL     1      30.152 -24.120 -13.366  0.00  0.00    +0.001 C 
ATOM     31  H   UNL     1      34.224 -23.349 -12.966  0.00  0.00    +0.155 HD
ENDBRANCH  18  26
ENDBRANCH   1  18
TORSDOF 5
ENDMDL
MODEL 3
REMARK VINA RESULT:     -11.1      3.645      6.421
REMARK  Name = 5288712
REMARK  5 active torsions:
REMARK  status: ('A' for Active; 'I' for Inactive)
REMARK    1  A    between atoms: C_1  and  N_18
REMARK    2  A    between atoms: C_2  and  S_7
REMARK    3  A    between atoms: S_7  and  N_10
REMARK    4  A    between atoms: N_10  and  C_13
REMARK    5  A    between atoms: N_18  and  C_26
REMARK                            x       y       z     vdW  Elec       q    Type
REMARK                         _______ _______ _______ _____ _____    ______ ____
ROOT
ATOM      1  C   UNL     1      35.323 -23.229 -16.034  0.00  0.00    +0.048 C 
ATOM      2  C   UNL     1      35.951 -23.799 -13.370  0.00  0.00    +0.129 C 
ATOM      3  C   UNL     1      34.408 -23.909 -15.227  0.00  0.00    +0.016 C 
ATOM      4  C   UNL     1      36.554 -22.834 -15.501  0.00  0.00    +0.016 C 
ATOM      5  C   UNL     1      34.721 -24.193 -13.897  0.00  0.00    +0.022 C 
ATOM      6  C   UNL     1      36.868 -23.119 -14.172  0.00  0.00    +0.022 C 
ENDROOT
BRANCH   2   7
ATOM      7  S   UNL     1      36.343 -24.155 -11.707  0.00  0.00    +0.103 S 
ATOM      8  O   UNL     1      35.144 -23.929 -10.907  0.00  0.00    -0.146 OA
ATOM      9  O   UNL     1      37.556 -23.403 -11.406  0.00  0.00    -0.146 OA
BRANCH   7  10
ATOM     10  N   UNL     1      36.668 -25.759 -11.712  0.00  0.00    -0.093 NA
BRANCH  10  13
ATOM     11  N   UNL     1      38.835 -25.994 -12.725  0.00  0.00    -0.369 N 
ATOM     12  N   UNL     1      37.085 -27.279 -13.427  0.00  0.00    -0.369 N 
ATOM     13  C   UNL     1      37.502 -26.296 -12.562  0.00  0.00    +0.212 C 
ATOM     14  H   UNL     1      39.256 -25.304 -12.164  0.00  0.00    +0.159 HD
ATOM     15  H   UNL     1      39.367 -26.468 -13.404  0.00  0.00    +0.159 HD
ATOM     16  H   UNL     1      36.149 -27.586 -13.409  0.00  0.00    +0.159 HD
ATOM     17  H   UNL     1      37.721 -27.678 -14.063  0.00  0.00    +0.159 HD
ENDBRANCH  10  13
ENDBRANCH   7  10
ENDBRANCH   2   7
BRANCH   1  18
ATOM     18  N   UNL     1      35.008 -22.941 -17.373  0.00  0.00    -0.311 N 
ATOM     19  H   UNL     1      34.245 -23.438 -17.747  0.00  0.00    +0.152 HD
BRANCH  18  26
ATOM     20  O   UNL     1      32.734 -22.032 -18.925  0.00  0.00    -0.270 OA
ATOM     21  N   UNL     1      33.436 -20.457 -20.540  0.00  0.00    -0.280 N 
ATOM     22  C   UNL     1      35.691 -20.394 -20.093  0.00  0.00    +0.019 C 
ATOM     23  C   UNL     1      35.053 -21.333 -19.178  0.00  0.00    +0.069 C 
ATOM     24  C   UNL     1      34.665 -19.890 -20.898  0.00  0.00    +0.051 C 
ATOM     25  C   UNL     1      33.583 -21.362 -19.484  0.00  0.00    +0.251 C 
ATOM     26  C   UNL     1      35.614 -22.070 -18.217  0.00  0.00    +0.066 C 
ATOM     27  C   UNL     1      36.996 -19.974 -20.268  0.00  0.00    +0.001 C 
ATOM     28  C   UNL     1      34.895 -18.962 -21.894  0.00  0.00    +0.015 C 
ATOM     29  C   UNL     1      37.251 -19.033 -21.272  0.00  0.00    +0.000 C 
ATOM     30  C   UNL     1      36.211 -18.532 -22.077  0.00  0.00    +0.001 C 
ATOM     31  H   UNL     1      32.579 -20.246 -20.977  0.00  0.00    +0.155 HD
ENDBRANCH  18  26
ENDBRANCH   1  18
TORSDOF 5
ENDMDL
MODEL 4
REMARK VINA RESULT:     -11.0      1.819      2.567
REMARK  Name = 5288712
REMARK  5 active torsions:
REMARK  status: ('A' for Active; 'I' for Inactive)
REMARK    1  A    between atoms: C_1  and  N_18
REMARK    2  A    between atoms: C_2  and  S_7
REMARK    3  A    between atoms: S_7  and  N_10
REMARK    4  A    between atoms: N_10  and  C_13
REMARK    5  A    between atoms: N_18  and  C_26
REMARK                            x       y       z     vdW  Elec       q    Type
REMARK                         _______ _______ _______ _____ _____    ______ ____
ROOT
ATOM      1  C   UNL     1      35.249 -19.791 -20.758  0.00  0.00    +0.048 C 
ATOM      2  C   UNL     1      34.285 -21.742 -19.003  0.00  0.00    +0.129 C 
ATOM      3  C   UNL     1      33.873 -19.980 -20.605  0.00  0.00    +0.016 C 
ATOM      4  C   UNL     1      36.140 -20.583 -20.028  0.00  0.00    +0.016 C 
ATOM      5  C   UNL     1      33.392 -20.954 -19.729  0.00  0.00    +0.022 C 
ATOM      6  C   UNL     1      35.659 -21.557 -19.153  0.00  0.00    +0.022 C 
ENDROOT
BRANCH   2   7
ATOM      7  S   UNL     1      33.683 -22.961 -17.907  0.00  0.00    +0.103 S 
ATOM      8  O   UNL     1      34.493 -22.909 -16.695  0.00  0.00    -0.146 OA
ATOM      9  O   UNL     1      33.621 -24.200 -18.674  0.00  0.00    -0.146 OA
BRANCH   7  10
ATOM     10  N   UNL     1      32.170 -22.453 -17.543  0.00  0.00    -0.093 NA
BRANCH  10  13
ATOM     11  N   UNL     1      32.052 -23.508 -15.386  0.00  0.00    -0.369 N 
ATOM     12  N   UNL     1      30.153 -22.789 -16.427  0.00  0.00    -0.369 N 
ATOM     13  C   UNL     1      31.520 -22.899 -16.501  0.00  0.00    +0.212 C 
ATOM     14  H   UNL     1      33.024 -23.647 -15.317  0.00  0.00    +0.159 HD
ATOM     15  H   UNL     1      31.459 -23.804 -14.659  0.00  0.00    +0.159 HD
ATOM     16  H   UNL     1      29.653 -22.369 -17.165  0.00  0.00    +0.159 HD
ATOM     17  H   UNL     1      29.673 -23.127 -15.638  0.00  0.00    +0.159 HD
ENDBRANCH  10  13
ENDBRANCH   7  10
ENDBRANCH   2   7
BRANCH   1  18
ATOM     18  N   UNL     1      35.734 -18.810 -21.639  0.00  0.00    -0.311 N 
ATOM     19  H   UNL     1      36.431 -19.109 -22.266  0.00  0.00    +0.152 HD
BRANCH  18  26
ATOM     20  O   UNL     1      35.007 -18.677 -24.443  0.00  0.00    -0.270 OA
ATOM     21  N   UNL     1      34.300 -16.490 -24.991  0.00  0.00    -0.280 N 
ATOM     22  C   UNL     1      34.536 -15.462 -22.948  0.00  0.00    +0.019 C 
ATOM     23  C   UNL     1      34.932 -16.861 -22.823  0.00  0.00    +0.069 C 
ATOM     24  C   UNL     1      34.161 -15.291 -24.284  0.00  0.00    +0.051 C 
ATOM     25  C   UNL     1      34.771 -17.515 -24.165  0.00  0.00    +0.251 C 
ATOM     26  C   UNL     1      35.369 -17.508 -21.742  0.00  0.00    +0.066 C 
ATOM     27  C   UNL     1      34.481 -14.406 -22.058  0.00  0.00    +0.001 C 
ATOM     28  C   UNL     1      33.723 -14.079 -24.779  0.00  0.00    +0.015 C 
ATOM     29  C   UNL     1      34.040 -13.168 -22.539  0.00  0.00    +0.000 C 
ATOM     30  C   UNL     1      33.664 -13.006 -23.886  0.00  0.00    +0.001 C 
ATOM     31  H   UNL     1      34.092 -16.598 -25.948  0.00  0.00    +0.155 HD
ENDBRANCH  18  26
ENDBRANCH   1  18
TORSDOF 5
ENDMDL
MODEL 5
REMARK VINA RESULT:     -10.5      2.762      9.854
REMARK  Name = 5288712
REMARK  5 active torsions:
REMARK  status: ('A' for Active; 'I' for Inactive)
REMARK    1  A    between atoms: C_1  and  N_18
REMARK    2  A    between atoms: C_2  and  S_7
REMARK    3  A    between atoms: S_7  and  N_10
REMARK    4  A    between atoms: N_10  and  C_13
REMARK    5  A    between atoms: N_18  and  C_26
REMARK                            x       y       z     vdW  Elec       q    Type
REMARK                         _______ _______ _______ _____ _____    ______ ____
ROOT
ATOM      1  C   UNL     1      34.820 -21.974 -18.545  0.00  0.00    +0.048 C 
ATOM      2  C   UNL     1      35.226 -20.137 -20.612  0.00  0.00    +0.129 C 
ATOM      3  C   UNL     1      36.117 -21.618 -18.923  0.00  0.00    +0.016 C 
ATOM      4  C   UNL     1      33.726 -21.407 -19.206  0.00  0.00    +0.016 C 
ATOM      5  C   UNL     1      36.319 -20.701 -19.954  0.00  0.00    +0.022 C 
ATOM      6  C   UNL     1      33.929 -20.490 -20.238  0.00  0.00    +0.022 C 
ENDROOT
BRANCH   2   7
ATOM      7  S   UNL     1      35.478 -18.990 -21.903  0.00  0.00    +0.103 S 
ATOM      8  O   UNL     1      34.593 -19.355 -23.004  0.00  0.00    -0.146 OA
ATOM      9  O   UNL     1      36.918 -18.943 -22.129  0.00  0.00    -0.146 OA
BRANCH   7  10
ATOM     10  N   UNL     1      34.965 -17.568 -21.276  0.00  0.00    -0.093 NA
BRANCH  10  13
ATOM     11  N   UNL     1      34.535 -15.221 -21.564  0.00  0.00    -0.369 N 
ATOM     12  N   UNL     1      35.592 -16.412 -23.198  0.00  0.00    -0.369 N 
ATOM     13  C   UNL     1      35.015 -16.451 -21.953  0.00  0.00    +0.212 C 
ATOM     14  H   UNL     1      34.097 -15.116 -20.689  0.00  0.00    +0.159 HD
ATOM     15  H   UNL     1      34.629 -14.445 -22.163  0.00  0.00    +0.159 HD
ATOM     16  H   UNL     1      35.975 -17.231 -23.590  0.00  0.00    +0.159 HD
ATOM     17  H   UNL     1      35.625 -15.566 -23.700  0.00  0.00    +0.159 HD
ENDBRANCH  10  13
ENDBRANCH   7  10
ENDBRANCH   2   7
BRANCH   1  18
ATOM     18  N   UNL     1      34.615 -22.897 -17.505  0.00  0.00    -0.311 N 
ATOM     19  H   UNL     1      33.809 -23.457 -17.585  0.00  0.00    +0.152 HD
BRANCH  18  26
ATOM     20  O   UNL     1      32.565 -23.344 -15.504  0.00  0.00    -0.270 OA
ATOM     21  N   UNL     1      33.562 -23.777 -13.407  0.00  0.00    -0.280 N 
ATOM     22  C   UNL     1      35.786 -23.631 -13.977  0.00  0.00    +0.019 C 
ATOM     23  C   UNL     1      34.975 -23.389 -15.165  0.00  0.00    +0.069 C 
ATOM     24  C   UNL     1      34.879 -23.862 -12.938  0.00  0.00    +0.051 C 
ATOM     25  C   UNL     1      33.529 -23.488 -14.775  0.00  0.00    +0.251 C 
ATOM     26  C   UNL     1      35.381 -23.121 -16.408  0.00  0.00    +0.066 C 
ATOM     27  C   UNL     1      37.148 -23.664 -13.744  0.00  0.00    +0.001 C 
ATOM     28  C   UNL     1      35.286 -24.130 -11.647  0.00  0.00    +0.015 C 
ATOM     29  C   UNL     1      37.582 -23.935 -12.442  0.00  0.00    +0.000 C 
ATOM     30  C   UNL     1      36.661 -24.165 -11.404  0.00  0.00    +0.001 C 
ATOM     31  H   UNL     1      32.763 -23.905 -12.846  0.00  0.00    +0.155 HD
ENDBRANCH  18  26
ENDBRANCH   1  18
TORSDOF 5
ENDMDL
MODEL 6
REMARK VINA RESULT:     -10.4      4.095      6.292
REMARK  Name = 5288712
REMARK  5 active torsions:
REMARK  status: ('A' for Active; 'I' for Inactive)
REMARK    1  A    between atoms: C_1  and  N_18
REMARK    2  A    between atoms: C_2  and  S_7
REMARK    3  A    between atoms: S_7  and  N_10
REMARK    4  A    between atoms: N_10  and  C_13
REMARK    5  A    between atoms: N_18  and  C_26
REMARK                            x       y       z     vdW  Elec       q    Type
REMARK                         _______ _______ _______ _____ _____    ______ ____
ROOT
ATOM      1  C   UNL     1      33.784 -14.458 -22.716  0.00  0.00    +0.048 C 
ATOM      2  C   UNL     1      35.034 -16.887 -22.125  0.00  0.00    +0.129 C 
ATOM      3  C   UNL     1      33.959 -14.853 -21.388  0.00  0.00    +0.016 C 
ATOM      4  C   UNL     1      34.238 -15.284 -23.748  0.00  0.00    +0.016 C 
ATOM      5  C   UNL     1      34.583 -16.065 -21.093  0.00  0.00    +0.022 C 
ATOM      6  C   UNL     1      34.861 -16.497 -23.453  0.00  0.00    +0.022 C 
ENDROOT
BRANCH   2   7
ATOM      7  S   UNL     1      35.814 -18.405 -21.757  0.00  0.00    +0.103 S 
ATOM      8  O   UNL     1      36.461 -18.270 -20.456  0.00  0.00    -0.146 OA
ATOM      9  O   UNL     1      36.619 -18.742 -22.925  0.00  0.00    -0.146 OA
BRANCH   7  10
ATOM     10  N   UNL     1      34.573 -19.463 -21.611  0.00  0.00    -0.093 NA
BRANCH  10  13
ATOM     11  N   UNL     1      35.379 -20.783 -19.771  0.00  0.00    -0.369 N 
ATOM     12  N   UNL     1      33.141 -20.437 -20.053  0.00  0.00    -0.369 N 
ATOM     13  C   UNL     1      34.402 -20.189 -20.538  0.00  0.00    +0.212 C 
ATOM     14  H   UNL     1      36.327 -20.681 -20.014  0.00  0.00    +0.159 HD
ATOM     15  H   UNL     1      35.128 -21.312 -18.979  0.00  0.00    +0.159 HD
ATOM     16  H   UNL     1      32.354 -20.065 -20.515  0.00  0.00    +0.159 HD
ATOM     17  H   UNL     1      33.023 -20.985 -19.244  0.00  0.00    +0.159 HD
ENDBRANCH  10  13
ENDBRANCH   7  10
ENDBRANCH   2   7
BRANCH   1  18
ATOM     18  N   UNL     1      33.156 -13.237 -23.014  0.00  0.00    -0.311 N 
ATOM     19  H   UNL     1      32.172 -13.251 -23.008  0.00  0.00    +0.152 HD
BRANCH  18  26
ATOM     20  O   UNL     1      31.367 -11.434 -21.615  0.00  0.00    -0.270 OA
ATOM     21  N   UNL     1      32.074  -9.200 -21.914  0.00  0.00    -0.280 N 
ATOM     22  C   UNL     1      33.929  -9.534 -23.233  0.00  0.00    +0.019 C 
ATOM     23  C   UNL     1      33.327 -10.827 -22.925  0.00  0.00    +0.069 C 
ATOM     24  C   UNL     1      33.129  -8.581 -22.594  0.00  0.00    +0.051 C 
ATOM     25  C   UNL     1      32.120 -10.589 -22.065  0.00  0.00    +0.251 C 
ATOM     26  C   UNL     1      33.725 -12.041 -23.307  0.00  0.00    +0.066 C 
ATOM     27  C   UNL     1      35.033  -9.149 -23.970  0.00  0.00    +0.001 C 
ATOM     28  C   UNL     1      33.394  -7.228 -22.663  0.00  0.00    +0.015 C 
ATOM     29  C   UNL     1      35.320  -7.782 -24.052  0.00  0.00    +0.000 C 
ATOM     30  C   UNL     1      34.509  -6.831 -23.406  0.00  0.00    +0.001 C 
ATOM     31  H   UNL     1      31.389  -8.718 -21.395  0.00  0.00    +0.155 HD
ENDBRANCH  18  26
ENDBRANCH   1  18
TORSDOF 5
ENDMDL
MODEL 7
REMARK VINA RESULT:     -10.3      1.670      2.157
REMARK  Name = 5288712
REMARK  5 active torsions:
REMARK  status: ('A' for Active; 'I' for Inactive)
REMARK    1  A    between atoms: C_1  and  N_18
REMARK    2  A    between atoms: C_2  and  S_7
REMARK    3  A    between atoms: S_7  and  N_10
REMARK    4  A    between atoms: N_10  and  C_13
REMARK    5  A    between atoms: N_18  and  C_26
REMARK                            x       y       z     vdW  Elec       q    Type
REMARK                         _______ _______ _______ _____ _____    ______ ____
ROOT
ATOM      1  C   UNL     1      35.070 -20.428 -20.271  0.00  0.00    +0.048 C 
ATOM      2  C   UNL     1      34.094 -22.195 -18.338  0.00  0.00    +0.129 C 
ATOM      3  C   UNL     1      35.956 -21.195 -19.510  0.00  0.00    +0.016 C 
ATOM      4  C   UNL     1      33.694 -20.549 -20.061  0.00  0.00    +0.016 C 
ATOM      5  C   UNL     1      35.469 -22.077 -18.546  0.00  0.00    +0.022 C 
ATOM      6  C   UNL     1      33.206 -21.431 -19.096  0.00  0.00    +0.022 C 
ENDROOT
BRANCH   2   7
ATOM      7  S   UNL     1      33.484 -23.299 -17.131  0.00  0.00    +0.103 S 
ATOM      8  O   UNL     1      33.686 -24.657 -17.625  0.00  0.00    -0.146 OA
ATOM      9  O   UNL     1      32.135 -22.846 -16.812  0.00  0.00    -0.146 OA
BRANCH   7  10
ATOM     10  N   UNL     1      34.470 -23.064 -15.846  0.00  0.00    -0.093 NA
BRANCH  10  13
ATOM     11  N   UNL     1      34.656 -25.044 -14.496  0.00  0.00    -0.369 N 
ATOM     12  N   UNL     1      36.501 -24.153 -15.502  0.00  0.00    -0.369 N 
ATOM     13  C   UNL     1      35.146 -24.040 -15.301  0.00  0.00    +0.212 C 
ATOM     14  H   UNL     1      33.698 -25.075 -14.275  0.00  0.00    +0.159 HD
ATOM     15  H   UNL     1      35.266 -25.730 -14.140  0.00  0.00    +0.159 HD
ATOM     16  H   UNL     1      36.972 -23.494 -16.063  0.00  0.00    +0.159 HD
ATOM     17  H   UNL     1      37.000 -24.892 -15.087  0.00  0.00    +0.159 HD
ENDBRANCH  10  13
ENDBRANCH   7  10
ENDBRANCH   2   7
BRANCH   1  18
ATOM     18  N   UNL     1      35.560 -19.539 -21.243  0.00  0.00    -0.311 N 
ATOM     19  H   UNL     1      36.170 -19.931 -21.910  0.00  0.00    +0.152 HD
BRANCH  18  26
ATOM     20  O   UNL     1      35.034 -19.401 -24.091  0.00  0.00    -0.270 OA
ATOM     21  N   UNL     1      34.535 -17.176 -24.714  0.00  0.00    -0.280 N 
ATOM     22  C   UNL     1      34.715 -16.133 -22.672  0.00  0.00    +0.019 C 
ATOM     23  C   UNL     1      34.992 -17.555 -22.503  0.00  0.00    +0.069 C 
ATOM     24  C   UNL     1      34.444 -15.957 -24.032  0.00  0.00    +0.051 C 
ATOM     25  C   UNL     1      34.871 -18.220 -23.844  0.00  0.00    +0.251 C 
ATOM     26  C   UNL     1      35.305 -18.215 -21.387  0.00  0.00    +0.066 C 
ATOM     27  C   UNL     1      34.683 -15.060 -21.802  0.00  0.00    +0.001 C 
ATOM     28  C   UNL     1      34.134 -14.724 -24.571  0.00  0.00    +0.015 C 
ATOM     29  C   UNL     1      34.371 -13.801 -22.327  0.00  0.00    +0.000 C 
ATOM     30  C   UNL     1      34.100 -13.635 -23.698  0.00  0.00    +0.001 C 
ATOM     31  H   UNL     1      34.384 -17.285 -25.681  0.00  0.00    +0.155 HD
ENDBRANCH  18  26
ENDBRANCH   1  18
TORSDOF 5
ENDMDL
MODEL 8
REMARK VINA RESULT:     -10.2      3.847      6.203
REMARK  Name = 5288712
REMARK  5 active torsions:
REMARK  status: ('A' for Active; 'I' for Inactive)
REMARK    1  A    between atoms: C_1  and  N_18
REMARK    2  A    between atoms: C_2  and  S_7
REMARK    3  A    between atoms: S_7  and  N_10
REMARK    4  A    between atoms: N_10  and  C_13
REMARK    5  A    between atoms: N_18  and  C_26
REMARK                            x       y       z     vdW  Elec       q    Type
REMARK                         _______ _______ _______ _____ _____    ______ ____
ROOT
ATOM      1  C   UNL     1      35.949 -23.104 -16.362  0.00  0.00    +0.048 C 
ATOM      2  C   UNL     1      37.190 -24.211 -14.115  0.00  0.00    +0.129 C 
ATOM      3  C   UNL     1      37.265 -22.758 -16.044  0.00  0.00    +0.016 C 
ATOM      4  C   UNL     1      35.257 -24.007 -15.550  0.00  0.00    +0.016 C 
ATOM      5  C   UNL     1      37.884 -23.311 -14.923  0.00  0.00    +0.022 C 
ATOM      6  C   UNL     1      35.876 -24.559 -14.428  0.00  0.00    +0.022 C 
ENDROOT
BRANCH   2   7
ATOM      7  S   UNL     1      37.965 -24.902 -12.711  0.00  0.00    +0.103 S 
ATOM      8  O   UNL     1      39.407 -24.802 -12.903  0.00  0.00    -0.146 OA
ATOM      9  O   UNL     1      37.358 -26.214 -12.518  0.00  0.00    -0.146 OA
BRANCH   7  10
ATOM     10  N   UNL     1      37.533 -23.903 -11.489  0.00  0.00    -0.093 NA
BRANCH  10  13
ATOM     11  N   UNL     1      35.381 -24.880 -11.050  0.00  0.00    -0.369 N 
ATOM     12  N   UNL     1      36.437 -23.642  -9.450  0.00  0.00    -0.369 N 
ATOM     13  C   UNL     1      36.498 -24.143 -10.728  0.00  0.00    +0.212 C 
ATOM     14  H   UNL     1      35.303 -25.293 -11.940  0.00  0.00    +0.159 HD
ATOM     15  H   UNL     1      34.660 -24.992 -10.390  0.00  0.00    +0.159 HD
ATOM     16  H   UNL     1      37.179 -23.097  -9.098  0.00  0.00    +0.159 HD
ATOM     17  H   UNL     1      35.654 -23.829  -8.885  0.00  0.00    +0.159 HD
ENDBRANCH  10  13
ENDBRANCH   7  10
ENDBRANCH   2   7
BRANCH   1  18
ATOM     18  N   UNL     1      35.325 -22.548 -17.491  0.00  0.00    -0.311 N 
ATOM     19  H   UNL     1      34.385 -22.808 -17.630  0.00  0.00    +0.152 HD
BRANCH  18  26
ATOM     20  O   UNL     1      32.945 -21.890 -19.011  0.00  0.00    -0.270 OA
ATOM     21  N   UNL     1      33.488 -20.391 -20.754  0.00  0.00    -0.280 N 
ATOM     22  C   UNL     1      35.748 -20.159 -20.401  0.00  0.00    +0.019 C 
ATOM     23  C   UNL     1      35.204 -21.070 -19.401  0.00  0.00    +0.069 C 
ATOM     24  C   UNL     1      34.664 -19.776 -21.197  0.00  0.00    +0.051 C 
ATOM     25  C   UNL     1      33.729 -21.210 -19.646  0.00  0.00    +0.251 C 
ATOM     26  C   UNL     1      35.844 -21.702 -18.416  0.00  0.00    +0.066 C 
ATOM     27  C   UNL     1      37.017 -19.672 -20.656  0.00  0.00    +0.001 C 
ATOM     28  C   UNL     1      34.799 -18.907 -22.261  0.00  0.00    +0.015 C 
ATOM     29  C   UNL     1      37.175 -18.790 -21.730  0.00  0.00    +0.000 C 
ATOM     30  C   UNL     1      36.078 -18.411 -22.525  0.00  0.00    +0.001 C 
ATOM     31  H   UNL     1      32.604 -20.264 -21.170  0.00  0.00    +0.155 HD
ENDBRANCH  18  26
ENDBRANCH   1  18
TORSDOF 5
ENDMDL
MODEL 9
REMARK VINA RESULT:     -10.2      2.864      9.031
REMARK  Name = 5288712
REMARK  5 active torsions:
REMARK  status: ('A' for Active; 'I' for Inactive)
REMARK    1  A    between atoms: C_1  and  N_18
REMARK    2  A    between atoms: C_2  and  S_7
REMARK    3  A    between atoms: S_7  and  N_10
REMARK    4  A    between atoms: N_10  and  C_13
REMARK    5  A    between atoms: N_18  and  C_26
REMARK                            x       y       z     vdW  Elec       q    Type
REMARK                         _______ _______ _______ _____ _____    ______ ____
ROOT
ATOM      1  C   UNL     1      34.916 -19.660 -21.688  0.00  0.00    +0.048 C 
ATOM      2  C   UNL     1      34.865 -17.355 -23.267  0.00  0.00    +0.129 C 
ATOM      3  C   UNL     1      34.744 -19.760 -23.070  0.00  0.00    +0.016 C 
ATOM      4  C   UNL     1      35.063 -18.400 -21.099  0.00  0.00    +0.016 C 
ATOM      5  C   UNL     1      34.719 -18.609 -23.859  0.00  0.00    +0.022 C 
ATOM      6  C   UNL     1      35.037 -17.250 -21.887  0.00  0.00    +0.022 C 
ENDROOT
BRANCH   2   7
ATOM      7  S   UNL     1      34.833 -15.914 -24.254  0.00  0.00    +0.103 S 
ATOM      8  O   UNL     1      34.631 -16.326 -25.639  0.00  0.00    -0.146 OA
ATOM      9  O   UNL     1      36.025 -15.153 -23.900  0.00  0.00    -0.146 OA
BRANCH   7  10
ATOM     10  N   UNL     1      33.493 -15.120 -23.750  0.00  0.00    -0.093 NA
BRANCH  10  13
ATOM     11  N   UNL     1      34.405 -12.936 -23.331  0.00  0.00    -0.369 N 
ATOM     12  N   UNL     1      32.732 -13.762 -22.017  0.00  0.00    -0.369 N 
ATOM     13  C   UNL     1      33.560 -13.995 -23.088  0.00  0.00    +0.212 C 
ATOM     14  H   UNL     1      35.049 -12.979 -24.073  0.00  0.00    +0.159 HD
ATOM     15  H   UNL     1      34.364 -12.134 -22.760  0.00  0.00    +0.159 HD
ATOM     16  H   UNL     1      32.078 -14.446 -21.741  0.00  0.00    +0.159 HD
ATOM     17  H   UNL     1      32.790 -12.912 -21.525  0.00  0.00    +0.159 HD
ENDBRANCH  10  13
ENDBRANCH   7  10
ENDBRANCH   2   7
BRANCH   1  18
ATOM     18  N   UNL     1      34.943 -20.818 -20.893  0.00  0.00    -0.311 N 
ATOM     19  H   UNL     1      34.359 -21.553 -21.191  0.00  0.00    +0.152 HD
BRANCH  18  26
ATOM     20  O   UNL     1      33.082 -22.468 -19.401  0.00  0.00    -0.270 OA
ATOM     21  N   UNL     1      34.036 -23.094 -17.333  0.00  0.00    -0.280 N 
ATOM     22  C   UNL     1      36.078 -22.048 -17.494  0.00  0.00    +0.019 C 
ATOM     23  C   UNL     1      35.312 -21.781 -18.706  0.00  0.00    +0.069 C 
ATOM     24  C   UNL     1      35.258 -22.850 -16.694  0.00  0.00    +0.051 C 
ATOM     25  C   UNL     1      33.984 -22.470 -18.583  0.00  0.00    +0.251 C 
ATOM     26  C   UNL     1      35.666 -21.060 -19.771  0.00  0.00    +0.066 C 
ATOM     27  C   UNL     1      37.338 -21.677 -17.062  0.00  0.00    +0.001 C 
ATOM     28  C   UNL     1      35.654 -23.307 -15.453  0.00  0.00    +0.015 C 
ATOM     29  C   UNL     1      37.759 -22.130 -15.807  0.00  0.00    +0.000 C 
ATOM     30  C   UNL     1      36.926 -22.937 -15.011  0.00  0.00    +0.001 C 
ATOM     31  H   UNL     1      33.308 -23.636 -16.950  0.00  0.00    +0.155 HD
ENDBRANCH  18  26
ENDBRANCH   1  18
TORSDOF 5
ENDMDL
