MODEL 1
REMARK VINA RESULT:     -11.9      0.000      0.000
REMARK  Name = 11740318
REMARK  5 active torsions:
REMARK  status: ('A' for Active; 'I' for Inactive)
REMARK    1  A    between atoms: N_1  and  C_20
REMARK    2  A    between atoms: C_2  and  O_8
REMARK    3  A    between atoms: O_8  and  C_9
REMARK    4  A    between atoms: C_14  and  N_15
REMARK    5  A    between atoms: C_20  and  C_23
REMARK                            x       y       z     vdW  Elec       q    Type
REMARK                         _______ _______ _______ _____ _____    ______ ____
ROOT
ATOM      1  N   UNL     1      33.781 -23.610 -14.318  0.00  0.00    +0.392 N 
ATOM      2  C   UNL     1      33.256 -22.912 -16.635  0.00  0.00    +0.145 C 
ATOM      3  C   UNL     1      34.044 -23.872 -15.739  0.00  0.00    -0.032 C 
ATOM      4  C   UNL     1      31.762 -22.977 -16.333  0.00  0.00    +0.039 C 
ATOM      5  C   UNL     1      31.509 -22.781 -14.844  0.00  0.00    -0.019 C 
ATOM      6  C   UNL     1      32.352 -23.746 -14.007  0.00  0.00    -0.077 C 
ATOM      7  H   UNL     1      34.055 -22.647 -14.121  0.00  0.00    -0.079 HD
ENDROOT
BRANCH   2   8
ATOM      8  O   UNL     1      33.457 -23.254 -18.001  0.00  0.00    -0.481 OA
BRANCH   8   9
ATOM      9  C   UNL     1      33.809 -22.236 -18.846  0.00  0.00    +0.138 C 
ATOM     10  C   UNL     1      32.822 -21.431 -19.404  0.00  0.00    +0.038 C 
ATOM     11  C   UNL     1      35.151 -22.016 -19.139  0.00  0.00    +0.038 C 
ATOM     12  C   UNL     1      33.181 -20.393 -20.266  0.00  0.00    +0.018 C 
ATOM     13  C   UNL     1      35.510 -20.979 -20.000  0.00  0.00    +0.018 C 
ATOM     14  C   UNL     1      34.524 -20.168 -20.563  0.00  0.00    +0.057 C 
BRANCH  14  15
ATOM     15  N   UNL     1      34.881 -19.139 -21.416  0.00  0.00    -0.246 N 
ATOM     16  N   UNL     1      35.308 -18.050 -23.314  0.00  0.00    -0.224 NA
ATOM     17  C   UNL     1      35.241 -17.865 -21.056  0.00  0.00    +0.092 C 
ATOM     18  C   UNL     1      34.938 -19.195 -22.786  0.00  0.00    +0.172 C 
ATOM     19  C   UNL     1      35.498 -17.217 -22.240  0.00  0.00    +0.117 C 
ENDBRANCH  14  15
ENDBRANCH   8   9
ENDBRANCH   2   8
BRANCH   1  20
ATOM     20  C   UNL     1      34.576 -24.504 -13.477  0.00  0.00    -0.050 C 
BRANCH  20  23
ATOM     21  O   UNL     1      38.962 -26.683 -14.108  0.00  0.00    -0.435 OA
ATOM     22  O   UNL     1      39.976 -24.662 -14.941  0.00  0.00    -0.435 OA
ATOM     23  C   UNL     1      36.027 -24.511 -13.880  0.00  0.00    -0.040 C 
ATOM     24  C   UNL     1      36.760 -25.687 -13.766  0.00  0.00    +0.034 C 
ATOM     25  C   UNL     1      36.607 -23.331 -14.362  0.00  0.00    -0.003 C 
ATOM     26  C   UNL     1      38.085 -25.643 -14.148  0.00  0.00    +0.176 C 
ATOM     27  C   UNL     1      37.950 -23.314 -14.743  0.00  0.00    +0.040 C 
ATOM     28  C   UNL     1      38.664 -24.489 -14.623  0.00  0.00    +0.176 C 
ATOM     29  C   UNL     1      40.158 -26.054 -14.613  0.00  0.00    +0.429 C 
ENDBRANCH  20  23
ENDBRANCH   1  20
TORSDOF 5
ENDMDL
MODEL 2
REMARK VINA RESULT:     -10.7      4.423      8.378
REMARK  Name = 11740318
REMARK  5 active torsions:
REMARK  status: ('A' for Active; 'I' for Inactive)
REMARK    1  A    between atoms: N_1  and  C_20
REMARK    2  A    between atoms: C_2  and  O_8
REMARK    3  A    between atoms: O_8  and  C_9
REMARK    4  A    between atoms: C_14  and  N_15
REMARK    5  A    between atoms: C_20  and  C_23
REMARK                            x       y       z     vdW  Elec       q    Type
REMARK                         _______ _______ _______ _____ _____    ______ ____
ROOT
ATOM      1  N   UNL     1      35.177 -19.173 -22.024  0.00  0.00    +0.392 N 
ATOM      2  C   UNL     1      34.817 -16.966 -23.087  0.00  0.00    +0.145 C 
ATOM      3  C   UNL     1      35.599 -17.766 -22.041  0.00  0.00    -0.032 C 
ATOM      4  C   UNL     1      34.948 -17.594 -24.471  0.00  0.00    +0.039 C 
ATOM      5  C   UNL     1      34.583 -19.072 -24.424  0.00  0.00    -0.019 C 
ATOM      6  C   UNL     1      35.373 -19.803 -23.336  0.00  0.00    -0.077 C 
ATOM      7  H   UNL     1      34.181 -19.198 -21.808  0.00  0.00    -0.079 HD
ENDROOT
BRANCH   2   8
ATOM      8  O   UNL     1      35.316 -15.634 -23.145  0.00  0.00    -0.481 OA
BRANCH   8   9
ATOM      9  C   UNL     1      34.543 -14.662 -22.570  0.00  0.00    +0.138 C 
ATOM     10  C   UNL     1      34.173 -14.776 -21.234  0.00  0.00    +0.038 C 
ATOM     11  C   UNL     1      34.136 -13.567 -23.326  0.00  0.00    +0.038 C 
ATOM     12  C   UNL     1      33.385 -13.784 -20.647  0.00  0.00    +0.018 C 
ATOM     13  C   UNL     1      33.349 -12.576 -22.739  0.00  0.00    +0.018 C 
ATOM     14  C   UNL     1      32.974 -12.685 -21.400  0.00  0.00    +0.057 C 
BRANCH  14  15
ATOM     15  N   UNL     1      32.194 -11.702 -20.819  0.00  0.00    -0.246 N 
ATOM     16  N   UNL     1      31.112  -9.769 -20.566  0.00  0.00    -0.224 NA
ATOM     17  C   UNL     1      31.590 -11.757 -19.589  0.00  0.00    +0.092 C 
ATOM     18  C   UNL     1      31.874 -10.483 -21.364  0.00  0.00    +0.172 C 
ATOM     19  C   UNL     1      30.931 -10.558 -19.458  0.00  0.00    +0.117 C 
ENDBRANCH  14  15
ENDBRANCH   8   9
ENDBRANCH   2   8
BRANCH   1  20
ATOM     20  C   UNL     1      35.899 -19.911 -20.988  0.00  0.00    -0.050 C 
BRANCH  20  23
ATOM     21  O   UNL     1      34.910 -23.072 -17.326  0.00  0.00    -0.435 OA
ATOM     22  O   UNL     1      32.530 -22.777 -17.559  0.00  0.00    -0.435 OA
ATOM     23  C   UNL     1      34.964 -20.667 -20.082  0.00  0.00    -0.040 C 
ATOM     24  C   UNL     1      35.490 -21.524 -19.122  0.00  0.00    +0.034 C 
ATOM     25  C   UNL     1      33.583 -20.488 -20.226  0.00  0.00    -0.003 C 
ATOM     26  C   UNL     1      34.593 -22.193 -18.316  0.00  0.00    +0.176 C 
ATOM     27  C   UNL     1      32.696 -21.178 -19.396  0.00  0.00    +0.040 C 
ATOM     28  C   UNL     1      33.234 -22.026 -18.449  0.00  0.00    +0.176 C 
ATOM     29  C   UNL     1      33.599 -23.437 -16.850  0.00  0.00    +0.429 C 
ENDBRANCH  20  23
ENDBRANCH   1  20
TORSDOF 5
ENDMDL
MODEL 3
REMARK VINA RESULT:     -10.7      2.906      5.008
REMARK  Name = 11740318
REMARK  5 active torsions:
REMARK  status: ('A' for Active; 'I' for Inactive)
REMARK    1  A    between atoms: N_1  and  C_20
REMARK    2  A    between atoms: C_2  and  O_8
REMARK    3  A    between atoms: O_8  and  C_9
REMARK    4  A    between atoms: C_14  and  N_15
REMARK    5  A    between atoms: C_20  and  C_23
REMARK                            x       y       z     vdW  Elec       q    Type
REMARK                         _______ _______ _______ _____ _____    ______ ____
ROOT
ATOM      1  N   UNL     1      35.769 -21.233 -18.666  0.00  0.00    +0.392 N 
ATOM      2  C   UNL     1      35.154 -19.829 -20.611  0.00  0.00    +0.145 C 
ATOM      3  C   UNL     1      36.214 -20.733 -19.973  0.00  0.00    -0.032 C 
ATOM      4  C   UNL     1      33.814 -20.550 -20.727  0.00  0.00    +0.039 C 
ATOM      5  C   UNL     1      33.402 -21.131 -19.381  0.00  0.00    -0.019 C 
ATOM      6  C   UNL     1      34.517 -21.993 -18.785  0.00  0.00    -0.077 C 
ATOM      7  H   UNL     1      35.592 -20.427 -18.066  0.00  0.00    -0.079 HD
ENDROOT
BRANCH   2   8
ATOM      8  O   UNL     1      35.574 -19.441 -21.914  0.00  0.00    -0.481 OA
BRANCH   8   9
ATOM      9  C   UNL     1      35.249 -18.173 -22.314  0.00  0.00    +0.138 C 
ATOM     10  C   UNL     1      35.064 -17.902 -23.665  0.00  0.00    +0.038 C 
ATOM     11  C   UNL     1      35.106 -17.166 -21.365  0.00  0.00    +0.038 C 
ATOM     12  C   UNL     1      34.733 -16.609 -24.073  0.00  0.00    +0.018 C 
ATOM     13  C   UNL     1      34.775 -15.874 -21.771  0.00  0.00    +0.018 C 
ATOM     14  C   UNL     1      34.588 -15.595 -23.126  0.00  0.00    +0.057 C 
BRANCH  14  15
ATOM     15  N   UNL     1      34.259 -14.314 -23.529  0.00  0.00    -0.246 N 
ATOM     16  N   UNL     1      33.607 -12.641 -24.850  0.00  0.00    -0.224 NA
ATOM     17  C   UNL     1      34.275 -13.183 -22.754  0.00  0.00    +0.092 C 
ATOM     18  C   UNL     1      33.848 -13.931 -24.782  0.00  0.00    +0.172 C 
ATOM     19  C   UNL     1      33.871 -12.169 -23.589  0.00  0.00    +0.117 C 
ENDBRANCH  14  15
ENDBRANCH   8   9
ENDBRANCH   2   8
BRANCH   1  20
ATOM     20  C   UNL     1      36.811 -22.055 -18.051  0.00  0.00    -0.050 C 
BRANCH  20  23
ATOM     21  O   UNL     1      37.883 -23.008 -13.327  0.00  0.00    -0.435 OA
ATOM     22  O   UNL     1      35.596 -23.552 -12.798  0.00  0.00    -0.435 OA
ATOM     23  C   UNL     1      36.449 -22.462 -16.648  0.00  0.00    -0.040 C 
ATOM     24  C   UNL     1      37.443 -22.516 -15.677  0.00  0.00    +0.034 C 
ATOM     25  C   UNL     1      35.117 -22.776 -16.351  0.00  0.00    -0.003 C 
ATOM     26  C   UNL     1      37.062 -22.893 -14.406  0.00  0.00    +0.176 C 
ATOM     27  C   UNL     1      34.758 -23.155 -15.056  0.00  0.00    +0.040 C 
ATOM     28  C   UNL     1      35.756 -23.205 -14.104  0.00  0.00    +0.176 C 
ATOM     29  C   UNL     1      36.947 -23.424 -12.311  0.00  0.00    +0.429 C 
ENDBRANCH  20  23
ENDBRANCH   1  20
TORSDOF 5
ENDMDL
MODEL 4
REMARK VINA RESULT:     -10.7      3.805     10.501
REMARK  Name = 11740318
REMARK  5 active torsions:
REMARK  status: ('A' for Active; 'I' for Inactive)
REMARK    1  A    between atoms: N_1  and  C_20
REMARK    2  A    between atoms: C_2  and  O_8
REMARK    3  A    between atoms: O_8  and  C_9
REMARK    4  A    between atoms: C_14  and  N_15
REMARK    5  A    between atoms: C_20  and  C_23
REMARK                            x       y       z     vdW  Elec       q    Type
REMARK                         _______ _______ _______ _____ _____    ______ ____
ROOT
ATOM      1  N   UNL     1      35.425 -18.460 -21.816  0.00  0.00    +0.392 N 
ATOM      2  C   UNL     1      35.267 -20.338 -20.211  0.00  0.00    +0.145 C 
ATOM      3  C   UNL     1      34.807 -19.766 -21.556  0.00  0.00    -0.032 C 
ATOM      4  C   UNL     1      36.788 -20.428 -20.142  0.00  0.00    +0.039 C 
ATOM      5  C   UNL     1      37.419 -19.087 -20.491  0.00  0.00    -0.019 C 
ATOM      6  C   UNL     1      36.891 -18.557 -21.826  0.00  0.00    -0.077 C 
ATOM      7  H   UNL     1      35.157 -17.830 -21.060  0.00  0.00    -0.079 HD
ENDROOT
BRANCH   2   8
ATOM      8  O   UNL     1      34.728 -21.644 -20.035  0.00  0.00    -0.481 OA
BRANCH   8   9
ATOM      9  C   UNL     1      34.630 -22.101 -18.748  0.00  0.00    +0.138 C 
ATOM     10  C   UNL     1      33.410 -22.569 -18.273  0.00  0.00    +0.038 C 
ATOM     11  C   UNL     1      35.753 -22.094 -17.927  0.00  0.00    +0.038 C 
ATOM     12  C   UNL     1      33.311 -23.035 -16.961  0.00  0.00    +0.018 C 
ATOM     13  C   UNL     1      35.654 -22.560 -16.616  0.00  0.00    +0.018 C 
ATOM     14  C   UNL     1      34.433 -23.031 -16.133  0.00  0.00    +0.057 C 
BRANCH  14  15
ATOM     15  N   UNL     1      34.335 -23.493 -14.834  0.00  0.00    -0.246 N 
ATOM     16  N   UNL     1      33.415 -24.173 -12.920  0.00  0.00    -0.224 NA
ATOM     17  C   UNL     1      35.375 -23.803 -13.995  0.00  0.00    +0.092 C 
ATOM     18  C   UNL     1      33.177 -23.734 -14.136  0.00  0.00    +0.172 C 
ATOM     19  C   UNL     1      34.783 -24.218 -12.826  0.00  0.00    +0.117 C 
ENDBRANCH  14  15
ENDBRANCH   8   9
ENDBRANCH   2   8
BRANCH   1  20
ATOM     20  C   UNL     1      34.940 -17.907 -23.080  0.00  0.00    -0.050 C 
BRANCH  20  23
ATOM     21  O   UNL     1      33.913 -13.478 -25.006  0.00  0.00    -0.435 OA
ATOM     22  O   UNL     1      33.944 -12.404 -22.848  0.00  0.00    -0.435 OA
ATOM     23  C   UNL     1      34.676 -16.428 -22.981  0.00  0.00    -0.040 C 
ATOM     24  C   UNL     1      34.416 -15.704 -24.140  0.00  0.00    +0.034 C 
ATOM     25  C   UNL     1      34.696 -15.814 -21.723  0.00  0.00    -0.003 C 
ATOM     26  C   UNL     1      34.181 -14.352 -23.997  0.00  0.00    +0.176 C 
ATOM     27  C   UNL     1      34.454 -14.444 -21.607  0.00  0.00    +0.040 C 
ATOM     28  C   UNL     1      34.199 -13.739 -22.766  0.00  0.00    +0.176 C 
ATOM     29  C   UNL     1      33.762 -12.246 -24.270  0.00  0.00    +0.429 C 
ENDBRANCH  20  23
ENDBRANCH   1  20
TORSDOF 5
ENDMDL
MODEL 5
REMARK VINA RESULT:     -10.5      3.549     10.353
REMARK  Name = 11740318
REMARK  5 active torsions:
REMARK  status: ('A' for Active; 'I' for Inactive)
REMARK    1  A    between atoms: N_1  and  C_20
REMARK    2  A    between atoms: C_2  and  O_8
REMARK    3  A    between atoms: O_8  and  C_9
REMARK    4  A    between atoms: C_14  and  N_15
REMARK    5  A    between atoms: C_20  and  C_23
REMARK                            x       y       z     vdW  Elec       q    Type
REMARK                         _______ _______ _______ _____ _____    ______ ____
ROOT
ATOM      1  N   UNL     1      35.633 -18.127 -22.030  0.00  0.00    +0.392 N 
ATOM      2  C   UNL     1      35.258 -20.021 -20.480  0.00  0.00    +0.145 C 
ATOM      3  C   UNL     1      34.896 -19.380 -21.823  0.00  0.00    -0.032 C 
ATOM      4  C   UNL     1      36.763 -20.245 -20.364  0.00  0.00    +0.039 C 
ATOM      5  C   UNL     1      37.519 -18.956 -20.658  0.00  0.00    -0.019 C 
ATOM      6  C   UNL     1      37.085 -18.351 -21.995  0.00  0.00    -0.077 C 
ATOM      7  H   UNL     1      35.395 -17.494 -21.267  0.00  0.00    -0.079 HD
ENDROOT
BRANCH   2   8
ATOM      8  O   UNL     1      34.603 -21.278 -20.354  0.00  0.00    -0.481 OA
BRANCH   8   9
ATOM      9  C   UNL     1      34.557 -21.826 -19.101  0.00  0.00    +0.138 C 
ATOM     10  C   UNL     1      35.723 -21.921 -18.347  0.00  0.00    +0.038 C 
ATOM     11  C   UNL     1      33.346 -22.283 -18.591  0.00  0.00    +0.038 C 
ATOM     12  C   UNL     1      35.677 -22.481 -17.069  0.00  0.00    +0.018 C 
ATOM     13  C   UNL     1      33.300 -22.842 -17.314  0.00  0.00    +0.018 C 
ATOM     14  C   UNL     1      34.466 -22.940 -16.553  0.00  0.00    +0.057 C 
BRANCH  14  15
ATOM     15  N   UNL     1      34.419 -23.494 -15.287  0.00  0.00    -0.246 N 
ATOM     16  N   UNL     1      33.583 -24.215 -13.350  0.00  0.00    -0.224 NA
ATOM     17  C   UNL     1      35.479 -23.992 -14.573  0.00  0.00    +0.092 C 
ATOM     18  C   UNL     1      33.302 -23.653 -14.504  0.00  0.00    +0.172 C 
ATOM     19  C   UNL     1      34.939 -24.429 -13.386  0.00  0.00    +0.117 C 
ENDBRANCH  14  15
ENDBRANCH   8   9
ENDBRANCH   2   8
BRANCH   1  20
ATOM     20  C   UNL     1      35.241 -17.505 -23.295  0.00  0.00    -0.050 C 
BRANCH  20  23
ATOM     21  O   UNL     1      33.151 -14.049 -20.455  0.00  0.00    -0.435 OA
ATOM     22  O   UNL     1      32.510 -12.712 -22.354  0.00  0.00    -0.435 OA
ATOM     23  C   UNL     1      34.505 -16.210 -23.078  0.00  0.00    -0.040 C 
ATOM     24  C   UNL     1      34.208 -15.805 -21.782  0.00  0.00    +0.034 C 
ATOM     25  C   UNL     1      34.137 -15.441 -24.188  0.00  0.00    -0.003 C 
ATOM     26  C   UNL     1      33.533 -14.611 -21.634  0.00  0.00    +0.176 C 
ATOM     27  C   UNL     1      33.454 -14.236 -24.011  0.00  0.00    +0.040 C 
ATOM     28  C   UNL     1      33.165 -13.848 -22.719  0.00  0.00    +0.176 C 
ATOM     29  C   UNL     1      32.505 -12.846 -20.918  0.00  0.00    +0.429 C 
ENDBRANCH  20  23
ENDBRANCH   1  20
TORSDOF 5
ENDMDL
MODEL 6
REMARK VINA RESULT:     -10.4      3.247      9.876
REMARK  Name = 11740318
REMARK  5 active torsions:
REMARK  status: ('A' for Active; 'I' for Inactive)
REMARK    1  A    between atoms: N_1  and  C_20
REMARK    2  A    between atoms: C_2  and  O_8
REMARK    3  A    between atoms: O_8  and  C_9
REMARK    4  A    between atoms: C_14  and  N_15
REMARK    5  A    between atoms: C_20  and  C_23
REMARK                            x       y       z     vdW  Elec       q    Type
REMARK                         _______ _______ _______ _____ _____    ______ ____
ROOT
ATOM      1  N   UNL     1      35.496 -19.755 -21.110  0.00  0.00    +0.392 N 
ATOM      2  C   UNL     1      35.209 -21.708 -19.616  0.00  0.00    +0.145 C 
ATOM      3  C   UNL     1      36.092 -20.519 -20.007  0.00  0.00    -0.032 C 
ATOM      4  C   UNL     1      33.796 -21.252 -19.266  0.00  0.00    +0.039 C 
ATOM      5  C   UNL     1      33.219 -20.395 -20.384  0.00  0.00    -0.019 C 
ATOM      6  C   UNL     1      34.165 -19.249 -20.749  0.00  0.00    -0.077 C 
ATOM      7  H   UNL     1      35.388 -20.384 -21.905  0.00  0.00    -0.079 HD
ENDROOT
BRANCH   2   8
ATOM      8  O   UNL     1      35.765 -22.369 -18.485  0.00  0.00    -0.481 OA
BRANCH   8   9
ATOM      9  C   UNL     1      34.895 -22.726 -17.491  0.00  0.00    +0.138 C 
ATOM     10  C   UNL     1      35.305 -22.673 -16.163  0.00  0.00    +0.038 C 
ATOM     11  C   UNL     1      33.607 -23.139 -17.817  0.00  0.00    +0.038 C 
ATOM     12  C   UNL     1      34.418 -23.037 -15.149  0.00  0.00    +0.018 C 
ATOM     13  C   UNL     1      32.720 -23.502 -16.804  0.00  0.00    +0.018 C 
ATOM     14  C   UNL     1      33.125 -23.451 -15.470  0.00  0.00    +0.057 C 
BRANCH  14  15
ATOM     15  N   UNL     1      32.245 -23.811 -14.466  0.00  0.00    -0.246 N 
ATOM     16  N   UNL     1      31.374 -24.950 -12.759  0.00  0.00    -0.224 NA
ATOM     17  C   UNL     1      31.076 -23.175 -14.136  0.00  0.00    +0.092 C 
ATOM     18  C   UNL     1      32.377 -24.873 -13.606  0.00  0.00    +0.172 C 
ATOM     19  C   UNL     1      30.560 -23.894 -13.084  0.00  0.00    +0.117 C 
ENDBRANCH  14  15
ENDBRANCH   8   9
ENDBRANCH   2   8
BRANCH   1  20
ATOM     20  C   UNL     1      36.374 -18.652 -21.502  0.00  0.00    -0.050 C 
BRANCH  20  23
ATOM     21  O   UNL     1      34.540 -16.572 -25.587  0.00  0.00    -0.435 OA
ATOM     22  O   UNL     1      33.614 -14.714 -24.364  0.00  0.00    -0.435 OA
ATOM     23  C   UNL     1      35.626 -17.574 -22.240  0.00  0.00    -0.040 C 
ATOM     24  C   UNL     1      35.479 -17.671 -23.619  0.00  0.00    +0.034 C 
ATOM     25  C   UNL     1      35.091 -16.499 -21.520  0.00  0.00    -0.003 C 
ATOM     26  C   UNL     1      34.785 -16.659 -24.251  0.00  0.00    +0.176 C 
ATOM     27  C   UNL     1      34.393 -15.488 -22.184  0.00  0.00    +0.040 C 
ATOM     28  C   UNL     1      34.257 -15.597 -23.553  0.00  0.00    +0.176 C 
ATOM     29  C   UNL     1      33.796 -15.338 -25.651  0.00  0.00    +0.429 C 
ENDBRANCH  20  23
ENDBRANCH   1  20
TORSDOF 5
ENDMDL
MODEL 7
REMARK VINA RESULT:     -10.2      6.409     10.335
REMARK  Name = 11740318
REMARK  5 active torsions:
REMARK  status: ('A' for Active; 'I' for Inactive)
REMARK    1  A    between atoms: N_1  and  C_20
REMARK    2  A    between atoms: C_2  and  O_8
REMARK    3  A    between atoms: O_8  and  C_9
REMARK    4  A    between atoms: C_14  and  N_15
REMARK    5  A    between atoms: C_20  and  C_23
REMARK                            x       y       z     vdW  Elec       q    Type
REMARK                         _______ _______ _______ _____ _____    ______ ____
ROOT
ATOM      1  N   UNL     1      35.119 -16.315 -22.293  0.00  0.00    +0.392 N 
ATOM      2  C   UNL     1      34.174 -14.049 -22.607  0.00  0.00    +0.145 C 
ATOM      3  C   UNL     1      34.286 -15.473 -23.160  0.00  0.00    -0.032 C 
ATOM      4  C   UNL     1      33.645 -14.054 -21.176  0.00  0.00    +0.039 C 
ATOM      5  C   UNL     1      34.471 -14.991 -20.305  0.00  0.00    -0.019 C 
ATOM      6  C   UNL     1      34.572 -16.384 -20.932  0.00  0.00    -0.077 C 
ATOM      7  H   UNL     1      36.045 -15.889 -22.239  0.00  0.00    -0.079 HD
ENDROOT
BRANCH   2   8
ATOM      8  O   UNL     1      33.283 -13.288 -23.416  0.00  0.00    -0.481 OA
BRANCH   8   9
ATOM      9  C   UNL     1      33.012 -12.011 -23.000  0.00  0.00    +0.138 C 
ATOM     10  C   UNL     1      32.067 -11.798 -22.003  0.00  0.00    +0.038 C 
ATOM     11  C   UNL     1      33.685 -10.940 -23.579  0.00  0.00    +0.038 C 
ATOM     12  C   UNL     1      31.790 -10.497 -21.579  0.00  0.00    +0.018 C 
ATOM     13  C   UNL     1      33.409  -9.641 -23.155  0.00  0.00    +0.018 C 
ATOM     14  C   UNL     1      32.461  -9.419 -22.155  0.00  0.00    +0.057 C 
BRANCH  14  15
ATOM     15  N   UNL     1      32.188  -8.130 -21.735  0.00  0.00    -0.246 N 
ATOM     16  N   UNL     1      32.300  -6.255 -20.533  0.00  0.00    -0.224 NA
ATOM     17  C   UNL     1      31.289  -7.260 -22.295  0.00  0.00    +0.092 C 
ATOM     18  C   UNL     1      32.770  -7.474 -20.678  0.00  0.00    +0.172 C 
ATOM     19  C   UNL     1      31.376  -6.116 -21.539  0.00  0.00    +0.117 C 
ENDBRANCH  14  15
ENDBRANCH   8   9
ENDBRANCH   2   8
BRANCH   1  20
ATOM     20  C   UNL     1      35.254 -17.657 -22.860  0.00  0.00    -0.050 C 
BRANCH  20  23
ATOM     21  O   UNL     1      34.167 -21.365 -19.787  0.00  0.00    -0.435 OA
ATOM     22  O   UNL     1      36.425 -21.491 -18.955  0.00  0.00    -0.435 OA
ATOM     23  C   UNL     1      35.604 -18.677 -21.809  0.00  0.00    -0.040 C 
ATOM     24  C   UNL     1      34.616 -19.532 -21.336  0.00  0.00    +0.034 C 
ATOM     25  C   UNL     1      36.919 -18.742 -21.333  0.00  0.00    -0.003 C 
ATOM     26  C   UNL     1      34.986 -20.450 -20.374  0.00  0.00    +0.176 C 
ATOM     27  C   UNL     1      37.267 -19.680 -20.359  0.00  0.00    +0.040 C 
ATOM     28  C   UNL     1      36.275 -20.521 -19.898  0.00  0.00    +0.176 C 
ATOM     29  C   UNL     1      35.086 -22.023 -18.891  0.00  0.00    +0.429 C 
ENDBRANCH  20  23
ENDBRANCH   1  20
TORSDOF 5
ENDMDL
MODEL 8
REMARK VINA RESULT:     -10.1      8.311     14.346
REMARK  Name = 11740318
REMARK  5 active torsions:
REMARK  status: ('A' for Active; 'I' for Inactive)
REMARK    1  A    between atoms: N_1  and  C_20
REMARK    2  A    between atoms: C_2  and  O_8
REMARK    3  A    between atoms: O_8  and  C_9
REMARK    4  A    between atoms: C_14  and  N_15
REMARK    5  A    between atoms: C_20  and  C_23
REMARK                            x       y       z     vdW  Elec       q    Type
REMARK                         _______ _______ _______ _____ _____    ______ ____
ROOT
ATOM      1  N   UNL     1      32.992 -11.094 -22.312  0.00  0.00    +0.392 N 
ATOM      2  C   UNL     1      34.015 -12.982 -23.545  0.00  0.00    +0.145 C 
ATOM      3  C   UNL     1      32.781 -12.462 -22.803  0.00  0.00    -0.032 C 
ATOM      4  C   UNL     1      34.407 -12.046 -24.685  0.00  0.00    +0.039 C 
ATOM      5  C   UNL     1      34.548 -10.617 -24.177  0.00  0.00    -0.019 C 
ATOM      6  C   UNL     1      33.296 -10.174 -23.416  0.00  0.00    -0.077 C 
ATOM      7  H   UNL     1      33.796 -11.108 -21.684  0.00  0.00    -0.079 HD
ENDROOT
BRANCH   2   8
ATOM      8  O   UNL     1      33.742 -14.269 -24.090  0.00  0.00    -0.481 OA
BRANCH   8   9
ATOM      9  C   UNL     1      34.215 -15.346 -23.390  0.00  0.00    +0.138 C 
ATOM     10  C   UNL     1      34.627 -16.485 -24.074  0.00  0.00    +0.038 C 
ATOM     11  C   UNL     1      34.279 -15.293 -22.001  0.00  0.00    +0.038 C 
ATOM     12  C   UNL     1      35.109 -17.584 -23.360  0.00  0.00    +0.018 C 
ATOM     13  C   UNL     1      34.760 -16.390 -21.289  0.00  0.00    +0.018 C 
ATOM     14  C   UNL     1      35.176 -17.536 -21.968  0.00  0.00    +0.057 C 
BRANCH  14  15
ATOM     15  N   UNL     1      35.654 -18.624 -21.261  0.00  0.00    -0.246 N 
ATOM     16  N   UNL     1      37.074 -19.933 -20.148  0.00  0.00    -0.224 NA
ATOM     17  C   UNL     1      34.944 -19.740 -20.899  0.00  0.00    +0.092 C 
ATOM     18  C   UNL     1      36.930 -18.792 -20.784  0.00  0.00    +0.172 C 
ATOM     19  C   UNL     1      35.839 -20.529 -20.216  0.00  0.00    +0.117 C 
ENDBRANCH  14  15
ENDBRANCH   8   9
ENDBRANCH   2   8
BRANCH   1  20
ATOM     20  C   UNL     1      31.823 -10.631 -21.566  0.00  0.00    -0.050 C 
BRANCH  20  23
ATOM     21  O   UNL     1      30.686  -6.069 -23.074  0.00  0.00    -0.435 OA
ATOM     22  O   UNL     1      31.703  -5.052 -21.140  0.00  0.00    -0.435 OA
ATOM     23  C   UNL     1      31.809  -9.133 -21.419  0.00  0.00    -0.040 C 
ATOM     24  C   UNL     1      31.206  -8.358 -22.404  0.00  0.00    +0.034 C 
ATOM     25  C   UNL     1      32.402  -8.552 -20.292  0.00  0.00    -0.003 C 
ATOM     26  C   UNL     1      31.219  -6.990 -22.225  0.00  0.00    +0.176 C 
ATOM     27  C   UNL     1      32.400  -7.164 -20.135  0.00  0.00    +0.040 C 
ATOM     28  C   UNL     1      31.800  -6.409 -21.121  0.00  0.00    +0.176 C 
ATOM     29  C   UNL     1      30.996  -4.843 -22.379  0.00  0.00    +0.429 C 
ENDBRANCH  20  23
ENDBRANCH   1  20
TORSDOF 5
ENDMDL
MODEL 9
REMARK VINA RESULT:     -10.0     10.619     15.479
REMARK  Name = 11740318
REMARK  5 active torsions:
REMARK  status: ('A' for Active; 'I' for Inactive)
REMARK    1  A    between atoms: N_1  and  C_20
REMARK    2  A    between atoms: C_2  and  O_8
REMARK    3  A    between atoms: O_8  and  C_9
REMARK    4  A    between atoms: C_14  and  N_15
REMARK    5  A    between atoms: C_20  and  C_23
REMARK                            x       y       z     vdW  Elec       q    Type
REMARK                         _______ _______ _______ _____ _____    ______ ____
ROOT
ATOM      1  N   UNL     1      32.029  -9.822 -21.289  0.00  0.00    +0.392 N 
ATOM      2  C   UNL     1      32.503  -7.525 -22.082  0.00  0.00    +0.145 C 
ATOM      3  C   UNL     1      31.632  -8.775 -22.239  0.00  0.00    -0.032 C 
ATOM      4  C   UNL     1      32.468  -7.006 -20.648  0.00  0.00    +0.039 C 
ATOM      5  C   UNL     1      32.805  -8.121 -19.668  0.00  0.00    -0.019 C 
ATOM      6  C   UNL     1      31.924  -9.350 -19.902  0.00  0.00    -0.077 C 
ATOM      7  H   UNL     1      33.005 -10.054 -21.469  0.00  0.00    -0.079 HD
ENDROOT
BRANCH   2   8
ATOM      8  O   UNL     1      32.032  -6.498 -22.948  0.00  0.00    -0.481 OA
BRANCH   8   9
ATOM      9  C   UNL     1      32.902  -6.053 -23.906  0.00  0.00    +0.138 C 
ATOM     10  C   UNL     1      32.488  -5.085 -24.816  0.00  0.00    +0.038 C 
ATOM     11  C   UNL     1      34.191  -6.571 -23.962  0.00  0.00    +0.038 C 
ATOM     12  C   UNL     1      33.375  -4.631 -25.794  0.00  0.00    +0.018 C 
ATOM     13  C   UNL     1      35.077  -6.117 -24.938  0.00  0.00    +0.018 C 
ATOM     14  C   UNL     1      34.669  -5.147 -25.854  0.00  0.00    +0.057 C 
BRANCH  14  15
ATOM     15  N   UNL     1      35.548  -4.697 -26.822  0.00  0.00    -0.246 N 
ATOM     16  N   UNL     1      37.465  -4.090 -27.785  0.00  0.00    -0.224 NA
ATOM     17  C   UNL     1      35.235  -4.333 -28.106  0.00  0.00    +0.092 C 
ATOM     18  C   UNL     1      36.904  -4.531 -26.681  0.00  0.00    +0.172 C 
ATOM     19  C   UNL     1      36.430  -3.964 -28.677  0.00  0.00    +0.117 C 
ENDBRANCH  14  15
ENDBRANCH   8   9
ENDBRANCH   2   8
BRANCH   1  20
ATOM     20  C   UNL     1      31.218 -11.024 -21.484  0.00  0.00    -0.050 C 
BRANCH  20  23
ATOM     21  O   UNL     1      34.439 -14.130 -23.572  0.00  0.00    -0.435 OA
ATOM     22  O   UNL     1      34.397 -15.626 -21.683  0.00  0.00    -0.435 OA
ATOM     23  C   UNL     1      32.061 -12.271 -21.504  0.00  0.00    -0.040 C 
ATOM     24  C   UNL     1      32.853 -12.539 -22.615  0.00  0.00    +0.034 C 
ATOM     25  C   UNL     1      32.029 -13.134 -20.402  0.00  0.00    -0.003 C 
ATOM     26  C   UNL     1      33.608 -13.694 -22.586  0.00  0.00    +0.176 C 
ATOM     27  C   UNL     1      32.803 -14.296 -20.398  0.00  0.00    +0.040 C 
ATOM     28  C   UNL     1      33.583 -14.549 -21.508  0.00  0.00    +0.176 C 
ATOM     29  C   UNL     1      34.936 -15.353 -22.992  0.00  0.00    +0.429 C 
ENDBRANCH  20  23
ENDBRANCH   1  20
TORSDOF 5
ENDMDL
