MODEL 1
REMARK VINA RESULT:     -12.3      0.000      0.000
REMARK  Name = 25195365
REMARK  5 active torsions:
REMARK  status: ('A' for Active; 'I' for Inactive)
REMARK    1  A    between atoms: C_1  and  C_3
REMARK    2  A    between atoms: C_1  and  C_17
REMARK    3  A    between atoms: C_4  and  C_9
REMARK    4  A    between atoms: C_6  and  O_15
REMARK    5  A    between atoms: C_18  and  C_23
REMARK                            x       y       z     vdW  Elec       q    Type
REMARK                         _______ _______ _______ _____ _____    ______ ____
ROOT
ATOM      1  C   UNL     1      35.447 -17.656 -22.628  0.00  0.00    +0.086 C 
ATOM      2  C   UNL     1      35.168 -18.131 -24.066  0.00  0.00    +0.019 C 
ENDROOT
BRANCH   1   3
ATOM      3  C   UNL     1      34.721 -16.400 -22.282  0.00  0.00    -0.007 C 
ATOM      4  C   UNL     1      33.364 -14.050 -21.635  0.00  0.00    +0.034 C 
ATOM      5  C   UNL     1      34.213 -15.587 -23.295  0.00  0.00    +0.034 C 
ATOM      6  C   UNL     1      33.534 -14.411 -22.972  0.00  0.00    +0.138 C 
ATOM      7  C   UNL     1      34.551 -16.037 -20.946  0.00  0.00    -0.003 C 
ATOM      8  C   UNL     1      33.873 -14.863 -20.622  0.00  0.00    +0.003 C 
BRANCH   4   9
ATOM      9  C   UNL     1      32.665 -12.835 -21.278  0.00  0.00    +0.003 C 
ATOM     10  C   UNL     1      31.998 -12.747 -20.055  0.00  0.00    +0.000 C 
ATOM     11  C   UNL     1      32.656 -11.750 -22.155  0.00  0.00    +0.000 C 
ATOM     12  C   UNL     1      31.325 -11.576 -19.710  0.00  0.00    +0.000 C 
ATOM     13  C   UNL     1      31.982 -10.579 -21.810  0.00  0.00    +0.000 C 
ATOM     14  C   UNL     1      31.316 -10.493 -20.588  0.00  0.00    +0.000 C 
ENDBRANCH   4   9
BRANCH   6  15
ATOM     15  O   UNL     1      33.046 -13.636 -23.982  0.00  0.00    -0.471 OA
ATOM     16  C   UNL     1      33.108 -14.176 -25.300  0.00  0.00    +0.252 C 
ENDBRANCH   6  15
ENDBRANCH   1   3
BRANCH   1  17
ATOM     17  C   UNL     1      35.150 -18.757 -21.675  0.00  0.00    -0.087 C 
ATOM     18  C   UNL     1      34.890 -19.637 -20.899  0.00  0.00    -0.076 C 
BRANCH  18  23
ATOM     19  N   UNL     1      35.306 -22.357 -18.408  0.00  0.00    -0.336 NA
ATOM     20  N   UNL     1      32.956 -22.064 -18.852  0.00  0.00    -0.317 NA
ATOM     21  N   UNL     1      32.216 -20.426 -20.390  0.00  0.00    -0.334 N 
ATOM     22  N   UNL     1      33.702 -23.685 -17.327  0.00  0.00    -0.283 N 
ATOM     23  C   UNL     1      34.575 -20.684 -19.977  0.00  0.00    +0.179 C 
ATOM     24  C   UNL     1      35.557 -21.364 -19.287  0.00  0.00    +0.120 C 
ATOM     25  C   UNL     1      33.279 -21.080 -19.717  0.00  0.00    +0.186 C 
ATOM     26  C   UNL     1      37.002 -21.032 -19.478  0.00  0.00    +0.064 C 
ATOM     27  C   UNL     1      34.003 -22.650 -18.241  0.00  0.00    +0.196 C 
ATOM     28  H   UNL     1      31.285 -20.695 -20.218  0.00  0.00    +0.144 HD
ATOM     29  H   UNL     1      32.410 -19.703 -21.030  0.00  0.00    +0.144 HD
ATOM     30  H   UNL     1      34.428 -24.148 -16.853  0.00  0.00    +0.156 HD
ATOM     31  H   UNL     1      32.765 -23.941 -17.166  0.00  0.00    +0.156 HD
ENDBRANCH  18  23
ENDBRANCH   1  17
TORSDOF 5
ENDMDL
MODEL 2
REMARK VINA RESULT:     -11.9      4.713      7.485
REMARK  Name = 25195365
REMARK  5 active torsions:
REMARK  status: ('A' for Active; 'I' for Inactive)
REMARK    1  A    between atoms: C_1  and  C_3
REMARK    2  A    between atoms: C_1  and  C_17
REMARK    3  A    between atoms: C_4  and  C_9
REMARK    4  A    between atoms: C_6  and  O_15
REMARK    5  A    between atoms: C_18  and  C_23
REMARK                            x       y       z     vdW  Elec       q    Type
REMARK                         _______ _______ _______ _____ _____    ______ ____
ROOT
ATOM      1  C   UNL     1      32.994 -23.155 -17.331  0.00  0.00    +0.086 C 
ATOM      2  C   UNL     1      31.625 -22.807 -16.717  0.00  0.00    +0.019 C 
ENDROOT
BRANCH   1   3
ATOM      3  C   UNL     1      33.426 -22.179 -18.372  0.00  0.00    -0.007 C 
ATOM      4  C   UNL     1      34.232 -20.353 -20.321  0.00  0.00    +0.034 C 
ATOM      5  C   UNL     1      34.776 -22.062 -18.702  0.00  0.00    +0.034 C 
ATOM      6  C   UNL     1      35.180 -21.148 -19.676  0.00  0.00    +0.138 C 
ATOM      7  C   UNL     1      32.479 -21.383 -19.017  0.00  0.00    -0.003 C 
ATOM      8  C   UNL     1      32.882 -20.471 -19.991  0.00  0.00    +0.003 C 
BRANCH   4   9
ATOM      9  C   UNL     1      34.629 -19.399 -21.334  0.00  0.00    +0.003 C 
ATOM     10  C   UNL     1      34.617 -19.765 -22.680  0.00  0.00    +0.000 C 
ATOM     11  C   UNL     1      35.024 -18.113 -20.965  0.00  0.00    +0.000 C 
ATOM     12  C   UNL     1      34.998 -18.845 -23.657  0.00  0.00    +0.000 C 
ATOM     13  C   UNL     1      35.407 -17.194 -21.942  0.00  0.00    +0.000 C 
ATOM     14  C   UNL     1      35.393 -17.560 -23.287  0.00  0.00    +0.000 C 
ENDBRANCH   4   9
BRANCH   6  15
ATOM     15  O   UNL     1      36.506 -21.055 -19.980  0.00  0.00    -0.471 OA
ATOM     16  C   UNL     1      37.375 -20.594 -18.948  0.00  0.00    +0.252 C 
ENDBRANCH   6  15
ENDBRANCH   1   3
BRANCH   1  17
ATOM     17  C   UNL     1      34.000 -23.304 -16.247  0.00  0.00    -0.087 C 
ATOM     18  C   UNL     1      34.797 -23.432 -15.357  0.00  0.00    -0.076 C 
BRANCH  18  23
ATOM     19  N   UNL     1      37.966 -23.267 -13.432  0.00  0.00    -0.336 NA
ATOM     20  N   UNL     1      36.292 -24.352 -12.080  0.00  0.00    -0.317 NA
ATOM     21  N   UNL     1      34.101 -24.678 -12.909  0.00  0.00    -0.334 N 
ATOM     22  N   UNL     1      38.469 -24.022 -11.268  0.00  0.00    -0.283 N 
ATOM     23  C   UNL     1      35.742 -23.589 -14.294  0.00  0.00    +0.179 C 
ATOM     24  C   UNL     1      37.042 -23.141 -14.407  0.00  0.00    +0.120 C 
ATOM     25  C   UNL     1      35.420 -24.192 -13.097  0.00  0.00    +0.186 C 
ATOM     26  C   UNL     1      37.518 -22.469 -15.655  0.00  0.00    +0.064 C 
ATOM     27  C   UNL     1      37.529 -23.873 -12.311  0.00  0.00    +0.196 C 
ATOM     28  H   UNL     1      33.853 -25.112 -12.061  0.00  0.00    +0.144 HD
ATOM     29  H   UNL     1      33.434 -24.581 -13.627  0.00  0.00    +0.144 HD
ATOM     30  H   UNL     1      39.388 -23.690 -11.383  0.00  0.00    +0.156 HD
ATOM     31  H   UNL     1      38.204 -24.458 -10.426  0.00  0.00    +0.156 HD
ENDBRANCH  18  23
ENDBRANCH   1  17
TORSDOF 5
ENDMDL
MODEL 3
REMARK VINA RESULT:     -11.1      1.107      2.054
REMARK  Name = 25195365
REMARK  5 active torsions:
REMARK  status: ('A' for Active; 'I' for Inactive)
REMARK    1  A    between atoms: C_1  and  C_3
REMARK    2  A    between atoms: C_1  and  C_17
REMARK    3  A    between atoms: C_4  and  C_9
REMARK    4  A    between atoms: C_6  and  O_15
REMARK    5  A    between atoms: C_18  and  C_23
REMARK                            x       y       z     vdW  Elec       q    Type
REMARK                         _______ _______ _______ _____ _____    ______ ____
ROOT
ATOM      1  C   UNL     1      35.374 -17.972 -23.291  0.00  0.00    +0.086 C 
ATOM      2  C   UNL     1      34.928 -18.608 -24.622  0.00  0.00    +0.019 C 
ENDROOT
BRANCH   1   3
ATOM      3  C   UNL     1      34.781 -16.622 -23.068  0.00  0.00    -0.007 C 
ATOM      4  C   UNL     1      33.670 -14.098 -22.651  0.00  0.00    +0.034 C 
ATOM      5  C   UNL     1      34.491 -16.193 -21.772  0.00  0.00    +0.034 C 
ATOM      6  C   UNL     1      33.936 -14.931 -21.563  0.00  0.00    +0.138 C 
ATOM      7  C   UNL     1      34.514 -15.789 -24.154  0.00  0.00    -0.003 C 
ATOM      8  C   UNL     1      33.960 -14.527 -23.946  0.00  0.00    +0.003 C 
BRANCH   4   9
ATOM      9  C   UNL     1      33.094 -12.785 -22.456  0.00  0.00    +0.003 C 
ATOM     10  C   UNL     1      33.633 -11.681 -23.117  0.00  0.00    +0.000 C 
ATOM     11  C   UNL     1      31.998 -12.622 -21.608  0.00  0.00    +0.000 C 
ATOM     12  C   UNL     1      33.077 -10.416 -22.931  0.00  0.00    +0.000 C 
ATOM     13  C   UNL     1      31.442 -11.356 -21.422  0.00  0.00    +0.000 C 
ATOM     14  C   UNL     1      31.982 -10.254 -22.083  0.00  0.00    +0.000 C 
ENDBRANCH   4   9
BRANCH   6  15
ATOM     15  O   UNL     1      33.664 -14.536 -20.287  0.00  0.00    -0.471 OA
ATOM     16  C   UNL     1      32.564 -15.167 -19.635  0.00  0.00    +0.252 C 
ENDBRANCH   6  15
ENDBRANCH   1   3
BRANCH   1  17
ATOM     17  C   UNL     1      35.086 -18.907 -22.173  0.00  0.00    -0.087 C 
ATOM     18  C   UNL     1      34.857 -19.680 -21.283  0.00  0.00    -0.076 C 
BRANCH  18  23
ATOM     19  N   UNL     1      35.398 -22.076 -18.500  0.00  0.00    -0.336 NA
ATOM     20  N   UNL     1      33.028 -21.833 -18.865  0.00  0.00    -0.317 NA
ATOM     21  N   UNL     1      32.212 -20.394 -20.555  0.00  0.00    -0.334 N 
ATOM     22  N   UNL     1      33.851 -23.258 -17.191  0.00  0.00    -0.283 N 
ATOM     23  C   UNL     1      34.588 -20.605 -20.226  0.00  0.00    +0.179 C 
ATOM     24  C   UNL     1      35.604 -21.199 -19.504  0.00  0.00    +0.120 C 
ATOM     25  C   UNL     1      33.308 -20.964 -19.858  0.00  0.00    +0.186 C 
ATOM     26  C   UNL     1      37.038 -20.896 -19.803  0.00  0.00    +0.064 C 
ATOM     27  C   UNL     1      34.105 -22.344 -18.237  0.00  0.00    +0.196 C 
ATOM     28  H   UNL     1      31.291 -20.637 -20.307  0.00  0.00    +0.144 HD
ATOM     29  H   UNL     1      32.374 -19.755 -21.287  0.00  0.00    +0.144 HD
ATOM     30  H   UNL     1      34.600 -23.662 -16.698  0.00  0.00    +0.156 HD
ATOM     31  H   UNL     1      32.923 -23.490 -16.955  0.00  0.00    +0.156 HD
ENDBRANCH  18  23
ENDBRANCH   1  17
TORSDOF 5
ENDMDL
MODEL 4
REMARK VINA RESULT:     -10.9      4.778      8.106
REMARK  Name = 25195365
REMARK  5 active torsions:
REMARK  status: ('A' for Active; 'I' for Inactive)
REMARK    1  A    between atoms: C_1  and  C_3
REMARK    2  A    between atoms: C_1  and  C_17
REMARK    3  A    between atoms: C_4  and  C_9
REMARK    4  A    between atoms: C_6  and  O_15
REMARK    5  A    between atoms: C_18  and  C_23
REMARK                            x       y       z     vdW  Elec       q    Type
REMARK                         _______ _______ _______ _____ _____    ______ ____
ROOT
ATOM      1  C   UNL     1      31.299 -10.314 -21.031  0.00  0.00    +0.086 C 
ATOM      2  C   UNL     1      31.484 -10.061 -19.522  0.00  0.00    +0.019 C 
ENDROOT
BRANCH   1   3
ATOM      3  C   UNL     1      31.624  -9.119 -21.861  0.00  0.00    -0.007 C 
ATOM      4  C   UNL     1      32.229  -6.883 -23.416  0.00  0.00    +0.034 C 
ATOM      5  C   UNL     1      32.920  -8.604 -21.867  0.00  0.00    +0.034 C 
ATOM      6  C   UNL     1      33.223  -7.485 -22.644  0.00  0.00    +0.138 C 
ATOM      7  C   UNL     1      30.630  -8.516 -22.633  0.00  0.00    -0.003 C 
ATOM      8  C   UNL     1      30.933  -7.399 -23.410  0.00  0.00    +0.003 C 
BRANCH   4   9
ATOM      9  C   UNL     1      32.521  -5.722 -24.229  0.00  0.00    +0.003 C 
ATOM     10  C   UNL     1      32.056  -4.465 -23.842  0.00  0.00    +0.000 C 
ATOM     11  C   UNL     1      33.268  -5.859 -25.399  0.00  0.00    +0.000 C 
ATOM     12  C   UNL     1      32.339  -3.346 -24.624  0.00  0.00    +0.000 C 
ATOM     13  C   UNL     1      33.550  -4.740 -26.182  0.00  0.00    +0.000 C 
ATOM     14  C   UNL     1      33.085  -3.483 -25.794  0.00  0.00    +0.000 C 
ENDBRANCH   4   9
BRANCH   6  15
ATOM     15  O   UNL     1      34.498  -7.003 -22.633  0.00  0.00    -0.471 OA
ATOM     16  C   UNL     1      35.451  -7.674 -23.455  0.00  0.00    +0.252 C 
ENDBRANCH   6  15
ENDBRANCH   1   3
BRANCH   1  17
ATOM     17  C   UNL     1      32.085 -11.510 -21.434  0.00  0.00    -0.087 C 
ATOM     18  C   UNL     1      32.736 -12.471 -21.744  0.00  0.00    -0.076 C 
BRANCH  18  23
ATOM     19  N   UNL     1      34.230 -15.867 -21.647  0.00  0.00    -0.336 NA
ATOM     20  N   UNL     1      35.049 -14.714 -23.598  0.00  0.00    -0.317 NA
ATOM     21  N   UNL     1      34.357 -12.501 -24.068  0.00  0.00    -0.334 N 
ATOM     22  N   UNL     1      35.728 -16.910 -23.122  0.00  0.00    -0.283 N 
ATOM     23  C   UNL     1      33.513 -13.615 -22.107  0.00  0.00    +0.179 C 
ATOM     24  C   UNL     1      33.513 -14.764 -21.343  0.00  0.00    +0.120 C 
ATOM     25  C   UNL     1      34.307 -13.648 -23.234  0.00  0.00    +0.186 C 
ATOM     26  C   UNL     1      32.695 -14.859 -20.095  0.00  0.00    +0.064 C 
ATOM     27  C   UNL     1      34.964 -15.774 -22.772  0.00  0.00    +0.196 C 
ATOM     28  H   UNL     1      34.918 -12.505 -24.877  0.00  0.00    +0.144 HD
ATOM     29  H   UNL     1      33.831 -11.702 -23.837  0.00  0.00    +0.144 HD
ATOM     30  H   UNL     1      35.703 -17.712 -22.554  0.00  0.00    +0.156 HD
ATOM     31  H   UNL     1      36.283 -16.897 -23.935  0.00  0.00    +0.156 HD
ENDBRANCH  18  23
ENDBRANCH   1  17
TORSDOF 5
ENDMDL
MODEL 5
REMARK VINA RESULT:     -10.9      5.623      9.480
REMARK  Name = 25195365
REMARK  5 active torsions:
REMARK  status: ('A' for Active; 'I' for Inactive)
REMARK    1  A    between atoms: C_1  and  C_3
REMARK    2  A    between atoms: C_1  and  C_17
REMARK    3  A    between atoms: C_4  and  C_9
REMARK    4  A    between atoms: C_6  and  O_15
REMARK    5  A    between atoms: C_18  and  C_23
REMARK                            x       y       z     vdW  Elec       q    Type
REMARK                         _______ _______ _______ _____ _____    ______ ____
ROOT
ATOM      1  C   UNL     1      33.482 -14.281 -25.266  0.00  0.00    +0.086 C 
ATOM      2  C   UNL     1      34.055 -14.381 -26.693  0.00  0.00    +0.019 C 
ENDROOT
BRANCH   1   3
ATOM      3  C   UNL     1      34.021 -15.329 -24.352  0.00  0.00    -0.007 C 
ATOM      4  C   UNL     1      35.029 -17.290 -22.643  0.00  0.00    +0.034 C 
ATOM      5  C   UNL     1      34.022 -15.118 -22.973  0.00  0.00    +0.034 C 
ATOM      6  C   UNL     1      34.527 -16.099 -22.118  0.00  0.00    +0.138 C 
ATOM      7  C   UNL     1      34.524 -16.520 -24.876  0.00  0.00    -0.003 C 
ATOM      8  C   UNL     1      35.028 -17.500 -24.022  0.00  0.00    +0.003 C 
BRANCH   4   9
ATOM      9  C   UNL     1      35.557 -18.319 -21.774  0.00  0.00    +0.003 C 
ATOM     10  C   UNL     1      34.723 -19.336 -21.309  0.00  0.00    +0.000 C 
ATOM     11  C   UNL     1      36.902 -18.296 -21.401  0.00  0.00    +0.000 C 
ATOM     12  C   UNL     1      35.232 -20.329 -20.472  0.00  0.00    +0.000 C 
ATOM     13  C   UNL     1      37.411 -19.288 -20.564  0.00  0.00    +0.000 C 
ATOM     14  C   UNL     1      36.576 -20.304 -20.100  0.00  0.00    +0.000 C 
ENDBRANCH   4   9
BRANCH   6  15
ATOM     15  O   UNL     1      34.514 -15.867 -20.774  0.00  0.00    -0.471 OA
ATOM     16  C   UNL     1      33.477 -15.028 -20.272  0.00  0.00    +0.252 C 
ENDBRANCH   6  15
ENDBRANCH   1   3
BRANCH   1  17
ATOM     17  C   UNL     1      33.699 -12.909 -24.740  0.00  0.00    -0.087 C 
ATOM     18  C   UNL     1      33.852 -11.794 -24.319  0.00  0.00    -0.076 C 
BRANCH  18  23
ATOM     19  N   UNL     1      33.293  -8.676 -22.384  0.00  0.00    -0.336 NA
ATOM     20  N   UNL     1      35.248  -8.393 -23.766  0.00  0.00    -0.317 NA
ATOM     21  N   UNL     1      35.986 -10.139 -25.180  0.00  0.00    -0.334 N 
ATOM     22  N   UNL     1      34.506  -6.667 -22.358  0.00  0.00    -0.283 N 
ATOM     23  C   UNL     1      34.027 -10.466 -23.817  0.00  0.00    +0.179 C 
ATOM     24  C   UNL     1      33.166  -9.922 -22.886  0.00  0.00    +0.120 C 
ATOM     25  C   UNL     1      35.060  -9.647 -24.224  0.00  0.00    +0.186 C 
ATOM     26  C   UNL     1      32.005 -10.705 -22.362  0.00  0.00    +0.064 C 
ATOM     27  C   UNL     1      34.341  -7.977 -22.861  0.00  0.00    +0.196 C 
ATOM     28  H   UNL     1      36.729  -9.570 -25.483  0.00  0.00    +0.144 HD
ATOM     29  H   UNL     1      35.884 -11.050 -25.539  0.00  0.00    +0.144 HD
ATOM     30  H   UNL     1      33.873  -6.312 -21.694  0.00  0.00    +0.156 HD
ATOM     31  H   UNL     1      35.256  -6.111 -22.671  0.00  0.00    +0.156 HD
ENDBRANCH  18  23
ENDBRANCH   1  17
TORSDOF 5
ENDMDL
MODEL 6
REMARK VINA RESULT:     -10.9      3.841      6.935
REMARK  Name = 25195365
REMARK  5 active torsions:
REMARK  status: ('A' for Active; 'I' for Inactive)
REMARK    1  A    between atoms: C_1  and  C_3
REMARK    2  A    between atoms: C_1  and  C_17
REMARK    3  A    between atoms: C_4  and  C_9
REMARK    4  A    between atoms: C_6  and  O_15
REMARK    5  A    between atoms: C_18  and  C_23
REMARK                            x       y       z     vdW  Elec       q    Type
REMARK                         _______ _______ _______ _____ _____    ______ ____
ROOT
ATOM      1  C   UNL     1      31.665 -11.898 -20.988  0.00  0.00    +0.086 C 
ATOM      2  C   UNL     1      31.679 -11.718 -19.458  0.00  0.00    +0.019 C 
ENDROOT
BRANCH   1   3
ATOM      3  C   UNL     1      32.110 -10.676 -21.718  0.00  0.00    -0.007 C 
ATOM      4  C   UNL     1      32.945  -8.392 -23.085  0.00  0.00    +0.034 C 
ATOM      5  C   UNL     1      31.739  -9.413 -21.258  0.00  0.00    +0.034 C 
ATOM      6  C   UNL     1      32.156  -8.271 -21.941  0.00  0.00    +0.138 C 
ATOM      7  C   UNL     1      32.899 -10.797 -22.863  0.00  0.00    -0.003 C 
ATOM      8  C   UNL     1      33.317  -9.655 -23.546  0.00  0.00    +0.003 C 
BRANCH   4   9
ATOM      9  C   UNL     1      33.388  -7.220 -23.809  0.00  0.00    +0.003 C 
ATOM     10  C   UNL     1      34.748  -7.020 -24.048  0.00  0.00    +0.000 C 
ATOM     11  C   UNL     1      32.455  -6.291 -24.270  0.00  0.00    +0.000 C 
ATOM     12  C   UNL     1      35.174  -5.891 -24.747  0.00  0.00    +0.000 C 
ATOM     13  C   UNL     1      32.882  -5.161 -24.968  0.00  0.00    +0.000 C 
ATOM     14  C   UNL     1      34.242  -4.962 -25.206  0.00  0.00    +0.000 C 
ENDBRANCH   4   9
BRANCH   6  15
ATOM     15  O   UNL     1      31.779  -7.049 -21.468  0.00  0.00    -0.471 OA
ATOM     16  C   UNL     1      32.442  -6.576 -20.297  0.00  0.00    +0.252 C 
ENDBRANCH   6  15
ENDBRANCH   1   3
BRANCH   1  17
ATOM     17  C   UNL     1      32.465 -13.096 -21.355  0.00  0.00    -0.087 C 
ATOM     18  C   UNL     1      33.130 -14.053 -21.643  0.00  0.00    -0.076 C 
BRANCH  18  23
ATOM     19  N   UNL     1      34.929 -16.598 -23.659  0.00  0.00    -0.336 NA
ATOM     20  N   UNL     1      35.241 -17.097 -21.322  0.00  0.00    -0.317 NA
ATOM     21  N   UNL     1      34.265 -15.728 -19.658  0.00  0.00    -0.334 N 
ATOM     22  N   UNL     1      36.206 -18.447 -22.982  0.00  0.00    -0.283 N 
ATOM     23  C   UNL     1      33.927 -15.192 -21.982  0.00  0.00    +0.179 C 
ATOM     24  C   UNL     1      34.184 -15.534 -23.293  0.00  0.00    +0.120 C 
ATOM     25  C   UNL     1      34.487 -16.018 -21.029  0.00  0.00    +0.186 C 
ATOM     26  C   UNL     1      33.635 -14.722 -24.422  0.00  0.00    +0.064 C 
ATOM     27  C   UNL     1      35.420 -17.325 -22.637  0.00  0.00    +0.196 C 
ATOM     28  H   UNL     1      34.656 -16.306 -18.964  0.00  0.00    +0.144 HD
ATOM     29  H   UNL     1      33.720 -14.950 -19.402  0.00  0.00    +0.144 HD
ATOM     30  H   UNL     1      36.369 -18.661 -23.928  0.00  0.00    +0.156 HD
ATOM     31  H   UNL     1      36.591 -19.014 -22.275  0.00  0.00    +0.156 HD
ENDBRANCH  18  23
ENDBRANCH   1  17
TORSDOF 5
ENDMDL
MODEL 7
REMARK VINA RESULT:     -10.6      4.576      8.069
REMARK  Name = 25195365
REMARK  5 active torsions:
REMARK  status: ('A' for Active; 'I' for Inactive)
REMARK    1  A    between atoms: C_1  and  C_3
REMARK    2  A    between atoms: C_1  and  C_17
REMARK    3  A    between atoms: C_4  and  C_9
REMARK    4  A    between atoms: C_6  and  O_15
REMARK    5  A    between atoms: C_18  and  C_23
REMARK                            x       y       z     vdW  Elec       q    Type
REMARK                         _______ _______ _______ _____ _____    ______ ____
ROOT
ATOM      1  C   UNL     1      31.288 -10.401 -21.054  0.00  0.00    +0.086 C 
ATOM      2  C   UNL     1      31.460 -10.172 -19.540  0.00  0.00    +0.019 C 
ENDROOT
BRANCH   1   3
ATOM      3  C   UNL     1      31.596  -9.186 -21.862  0.00  0.00    -0.007 C 
ATOM      4  C   UNL     1      32.171  -6.913 -23.373  0.00  0.00    +0.034 C 
ATOM      5  C   UNL     1      32.876  -8.632 -21.828  0.00  0.00    +0.034 C 
ATOM      6  C   UNL     1      33.164  -7.495 -22.584  0.00  0.00    +0.138 C 
ATOM      7  C   UNL     1      30.605  -8.603 -22.650  0.00  0.00    -0.003 C 
ATOM      8  C   UNL     1      30.892  -7.468 -23.406  0.00  0.00    +0.003 C 
BRANCH   4   9
ATOM      9  C   UNL     1      32.448  -5.733 -24.164  0.00  0.00    +0.003 C 
ATOM     10  C   UNL     1      31.990  -4.486 -23.740  0.00  0.00    +0.000 C 
ATOM     11  C   UNL     1      33.174  -5.843 -25.350  0.00  0.00    +0.000 C 
ATOM     12  C   UNL     1      32.257  -3.349 -24.501  0.00  0.00    +0.000 C 
ATOM     13  C   UNL     1      33.441  -4.705 -26.112  0.00  0.00    +0.000 C 
ATOM     14  C   UNL     1      32.983  -3.458 -25.687  0.00  0.00    +0.000 C 
ENDBRANCH   4   9
BRANCH   6  15
ATOM     15  O   UNL     1      34.423  -6.975 -22.534  0.00  0.00    -0.471 OA
ATOM     16  C   UNL     1      35.402  -7.568 -23.384  0.00  0.00    +0.252 C 
ENDBRANCH   6  15
ENDBRANCH   1   3
BRANCH   1  17
ATOM     17  C   UNL     1      32.097 -11.576 -21.473  0.00  0.00    -0.087 C 
ATOM     18  C   UNL     1      32.743 -12.537 -21.793  0.00  0.00    -0.076 C 
BRANCH  18  23
ATOM     19  N   UNL     1      34.929 -14.798 -23.763  0.00  0.00    -0.336 NA
ATOM     20  N   UNL     1      34.325 -15.900 -21.707  0.00  0.00    -0.317 NA
ATOM     21  N   UNL     1      32.929 -14.824 -20.130  0.00  0.00    -0.334 N 
ATOM     22  N   UNL     1      35.709 -16.957 -23.280  0.00  0.00    -0.283 N 
ATOM     23  C   UNL     1      33.508 -13.684 -22.171  0.00  0.00    +0.179 C 
ATOM     24  C   UNL     1      34.196 -13.737 -23.366  0.00  0.00    +0.120 C 
ATOM     25  C   UNL     1      33.610 -14.806 -21.374  0.00  0.00    +0.186 C 
ATOM     26  C   UNL     1      34.167 -12.588 -24.322  0.00  0.00    +0.064 C 
ATOM     27  C   UNL     1      34.950 -15.829 -22.898  0.00  0.00    +0.196 C 
ATOM     28  H   UNL     1      32.990 -15.615 -19.547  0.00  0.00    +0.144 HD
ATOM     29  H   UNL     1      32.397 -14.045 -19.850  0.00  0.00    +0.144 HD
ATOM     30  H   UNL     1      36.187 -16.960 -24.140  0.00  0.00    +0.156 HD
ATOM     31  H   UNL     1      35.760 -17.741 -22.685  0.00  0.00    +0.156 HD
ENDBRANCH  18  23
ENDBRANCH   1  17
TORSDOF 5
ENDMDL
MODEL 8
REMARK VINA RESULT:     -10.5      4.604      7.901
REMARK  Name = 25195365
REMARK  5 active torsions:
REMARK  status: ('A' for Active; 'I' for Inactive)
REMARK    1  A    between atoms: C_1  and  C_3
REMARK    2  A    between atoms: C_1  and  C_17
REMARK    3  A    between atoms: C_4  and  C_9
REMARK    4  A    between atoms: C_6  and  O_15
REMARK    5  A    between atoms: C_18  and  C_23
REMARK                            x       y       z     vdW  Elec       q    Type
REMARK                         _______ _______ _______ _____ _____    ______ ____
ROOT
ATOM      1  C   UNL     1      31.479 -10.594 -20.796  0.00  0.00    +0.086 C 
ATOM      2  C   UNL     1      31.612 -10.295 -19.290  0.00  0.00    +0.019 C 
ENDROOT
BRANCH   1   3
ATOM      3  C   UNL     1      31.885  -9.443 -21.652  0.00  0.00    -0.007 C 
ATOM      4  C   UNL     1      32.644  -7.290 -23.256  0.00  0.00    +0.034 C 
ATOM      5  C   UNL     1      31.715  -8.137 -21.193  0.00  0.00    +0.034 C 
ATOM      6  C   UNL     1      32.094  -7.060 -21.995  0.00  0.00    +0.138 C 
ATOM      7  C   UNL     1      32.434  -9.672 -22.914  0.00  0.00    -0.003 C 
ATOM      8  C   UNL     1      32.814  -8.596 -23.715  0.00  0.00    +0.003 C 
BRANCH   4   9
ATOM      9  C   UNL     1      33.044  -6.188 -24.104  0.00  0.00    +0.003 C 
ATOM     10  C   UNL     1      34.294  -6.202 -24.723  0.00  0.00    +0.000 C 
ATOM     11  C   UNL     1      32.179  -5.111 -24.303  0.00  0.00    +0.000 C 
ATOM     12  C   UNL     1      34.679  -5.140 -25.541  0.00  0.00    +0.000 C 
ATOM     13  C   UNL     1      32.565  -4.049 -25.121  0.00  0.00    +0.000 C 
ATOM     14  C   UNL     1      33.815  -4.064 -25.739  0.00  0.00    +0.000 C 
ENDBRANCH   4   9
BRANCH   6  15
ATOM     15  O   UNL     1      31.919  -5.794 -21.520  0.00  0.00    -0.471 OA
ATOM     16  C   UNL     1      30.592  -5.418 -21.156  0.00  0.00    +0.252 C 
ENDBRANCH   6  15
ENDBRANCH   1   3
BRANCH   1  17
ATOM     17  C   UNL     1      32.232 -11.833 -21.124  0.00  0.00    -0.087 C 
ATOM     18  C   UNL     1      32.854 -12.822 -21.402  0.00  0.00    -0.076 C 
BRANCH  18  23
ATOM     19  N   UNL     1      34.216 -16.271 -21.245  0.00  0.00    -0.336 NA
ATOM     20  N   UNL     1      35.148 -15.155 -23.167  0.00  0.00    -0.317 NA
ATOM     21  N   UNL     1      34.557 -12.920 -23.666  0.00  0.00    -0.334 N 
ATOM     22  N   UNL     1      35.726 -17.373 -22.662  0.00  0.00    -0.283 N 
ATOM     23  C   UNL     1      33.601 -13.995 -21.735  0.00  0.00    +0.179 C 
ATOM     24  C   UNL     1      33.531 -15.142 -20.970  0.00  0.00    +0.120 C 
ATOM     25  C   UNL     1      34.434 -14.061 -22.832  0.00  0.00    +0.186 C 
ATOM     26  C   UNL     1      32.665 -15.201 -19.752  0.00  0.00    +0.064 C 
ATOM     27  C   UNL     1      34.994 -16.209 -22.342  0.00  0.00    +0.196 C 
ATOM     28  H   UNL     1      35.146 -12.948 -24.454  0.00  0.00    +0.144 HD
ATOM     29  H   UNL     1      34.052 -12.102 -23.456  0.00  0.00    +0.144 HD
ATOM     30  H   UNL     1      35.652 -18.173 -22.094  0.00  0.00    +0.156 HD
ATOM     31  H   UNL     1      36.311 -17.385 -23.454  0.00  0.00    +0.156 HD
ENDBRANCH  18  23
ENDBRANCH   1  17
TORSDOF 5
ENDMDL
MODEL 9
REMARK VINA RESULT:     -10.3      5.401     10.010
REMARK  Name = 25195365
REMARK  5 active torsions:
REMARK  status: ('A' for Active; 'I' for Inactive)
REMARK    1  A    between atoms: C_1  and  C_3
REMARK    2  A    between atoms: C_1  and  C_17
REMARK    3  A    between atoms: C_4  and  C_9
REMARK    4  A    between atoms: C_6  and  O_15
REMARK    5  A    between atoms: C_18  and  C_23
REMARK                            x       y       z     vdW  Elec       q    Type
REMARK                         _______ _______ _______ _____ _____    ______ ____
ROOT
ATOM      1  C   UNL     1      36.693 -22.013 -17.618  0.00  0.00    +0.086 C 
ATOM      2  C   UNL     1      37.617 -21.246 -16.653  0.00  0.00    +0.019 C 
ENDROOT
BRANCH   1   3
ATOM      3  C   UNL     1      35.452 -22.510 -16.959  0.00  0.00    -0.007 C 
ATOM      4  C   UNL     1      33.129 -23.440 -15.726  0.00  0.00    +0.034 C 
ATOM      5  C   UNL     1      35.469 -22.851 -15.606  0.00  0.00    +0.034 C 
ATOM      6  C   UNL     1      34.307 -23.317 -14.989  0.00  0.00    +0.138 C 
ATOM      7  C   UNL     1      34.273 -22.635 -17.694  0.00  0.00    -0.003 C 
ATOM      8  C   UNL     1      33.112 -23.100 -17.078  0.00  0.00    +0.003 C 
BRANCH   4   9
ATOM      9  C   UNL     1      31.913 -23.922 -15.106  0.00  0.00    +0.003 C 
ATOM     10  C   UNL     1      31.982 -24.749 -13.984  0.00  0.00    +0.000 C 
ATOM     11  C   UNL     1      30.672 -23.559 -15.628  0.00  0.00    +0.000 C 
ATOM     12  C   UNL     1      30.811 -25.213 -13.386  0.00  0.00    +0.000 C 
ATOM     13  C   UNL     1      29.500 -24.024 -15.030  0.00  0.00    +0.000 C 
ATOM     14  C   UNL     1      29.571 -24.850 -13.909  0.00  0.00    +0.000 C 
ENDBRANCH   4   9
BRANCH   6  15
ATOM     15  O   UNL     1      34.352 -23.641 -13.666  0.00  0.00    -0.471 OA
ATOM     16  C   UNL     1      35.637 -23.902 -13.106  0.00  0.00    +0.252 C 
ENDBRANCH   6  15
ENDBRANCH   1   3
BRANCH   1  17
ATOM     17  C   UNL     1      36.400 -21.164 -18.803  0.00  0.00    -0.087 C 
ATOM     18  C   UNL     1      36.140 -20.485 -19.760  0.00  0.00    -0.076 C 
BRANCH  18  23
ATOM     19  N   UNL     1      34.209 -18.879 -22.491  0.00  0.00    -0.336 NA
ATOM     20  N   UNL     1      36.495 -18.125 -22.610  0.00  0.00    -0.317 NA
ATOM     21  N   UNL     1      38.099 -18.897 -21.053  0.00  0.00    -0.334 N 
ATOM     22  N   UNL     1      34.894 -17.366 -24.150  0.00  0.00    -0.283 N 
ATOM     23  C   UNL     1      35.826 -19.676 -20.896  0.00  0.00    +0.179 C 
ATOM     24  C   UNL     1      34.551 -19.627 -21.422  0.00  0.00    +0.120 C 
ATOM     25  C   UNL     1      36.766 -18.897 -21.537  0.00  0.00    +0.186 C 
ATOM     26  C   UNL     1      33.440 -20.426 -20.820  0.00  0.00    +0.064 C 
ATOM     27  C   UNL     1      35.215 -18.163 -23.028  0.00  0.00    +0.196 C 
ATOM     28  H   UNL     1      38.784 -18.347 -21.497  0.00  0.00    +0.144 HD
ATOM     29  H   UNL     1      38.338 -19.447 -20.272  0.00  0.00    +0.144 HD
ATOM     30  H   UNL     1      33.974 -17.356 -24.498  0.00  0.00    +0.156 HD
ATOM     31  H   UNL     1      35.591 -16.822 -24.582  0.00  0.00    +0.156 HD
ENDBRANCH  18  23
ENDBRANCH   1  17
TORSDOF 5
ENDMDL
