MODEL 1
REMARK VINA RESULT:     -12.2      0.000      0.000
REMARK  Name = 66599893
REMARK  9 active torsions:
REMARK  status: ('A' for Active; 'I' for Inactive)
REMARK    1  A    between atoms: C_1  and  C_2
REMARK    2  A    between atoms: C_1  and  C_22
REMARK    3  A    between atoms: C_1  and  C_34
REMARK    4  A    between atoms: C_5  and  C_8
REMARK    5  A    between atoms: C_8  and  O_9
REMARK    6  A    between atoms: O_9  and  C_11
REMARK    7  A    between atoms: C_11  and  C_12
REMARK    8  A    between atoms: N_21  and  C_25
REMARK    9  A    between atoms: C_34  and  N_35
REMARK                            x       y       z     vdW  Elec       q    Type
REMARK                         _______ _______ _______ _____ _____    ______ ____
ROOT
ATOM      1  C   UNL     1      35.337 -18.815 -22.039  0.00  0.00    +0.077 C 
ENDROOT
BRANCH   1   2
ATOM      2  C   UNL     1      34.860 -19.805 -20.988  0.00  0.00    -0.016 C 
ATOM      3  C   UNL     1      35.786 -20.566 -20.275  0.00  0.00    -0.004 C 
ATOM      4  C   UNL     1      33.495 -19.951 -20.736  0.00  0.00    -0.004 C 
ATOM      5  C   UNL     1      33.985 -21.622 -19.060  0.00  0.00    +0.021 C 
ATOM      6  C   UNL     1      35.348 -21.475 -19.312  0.00  0.00    -0.001 C 
ATOM      7  C   UNL     1      33.058 -20.861 -19.773  0.00  0.00    -0.001 C 
BRANCH   5   8
ATOM      8  C   UNL     1      33.516 -22.593 -18.029  0.00  0.00    +0.235 C 
BRANCH   8   9
ATOM      9  O   UNL     1      34.639 -23.126 -17.337  0.00  0.00    -0.440 OA
BRANCH   9  11
ATOM     10  O   UNL     1      33.573 -22.819 -15.320  0.00  0.00    -0.245 OA
ATOM     11  C   UNL     1      34.518 -23.215 -15.985  0.00  0.00    +0.341 C 
BRANCH  11  12
ATOM     12  C   UNL     1      35.713 -23.869 -15.393  0.00  0.00    +0.072 C 
ATOM     13  C   UNL     1      36.954 -23.235 -15.388  0.00  0.00    -0.016 C 
ATOM     14  C   UNL     1      37.927 -25.144 -14.271  0.00  0.00    -0.022 C 
ATOM     15  C   UNL     1      38.061 -23.871 -14.827  0.00  0.00    -0.008 C 
ATOM     16  C   UNL     1      35.577 -25.141 -14.837  0.00  0.00    +0.006 C 
ATOM     17  C   UNL     1      36.684 -25.779 -14.276  0.00  0.00    -0.004 C 
ATOM     18  C   UNL     1      37.127 -21.873 -15.977  0.00  0.00    +0.031 C 
ATOM     19  C   UNL     1      39.109 -25.826 -13.671  0.00  0.00    +0.031 C 
ENDBRANCH  11  12
ENDBRANCH   9  11
ENDBRANCH   8   9
ENDBRANCH   5   8
ENDBRANCH   1   2
BRANCH   1  22
ATOM     20  O   UNL     1      35.318 -16.984 -20.460  0.00  0.00    -0.275 OA
ATOM     21  N   UNL     1      34.412 -16.629 -22.601  0.00  0.00    -0.284 N 
ATOM     22  C   UNL     1      35.037 -17.377 -21.589  0.00  0.00    +0.228 C 
ATOM     23  H   UNL     1      34.248 -17.103 -23.448  0.00  0.00    +0.155 HD
BRANCH  21  25
ATOM     24  N   UNL     1      31.954 -10.822 -21.363  0.00  0.00    -0.242 NA
ATOM     25  C   UNL     1      33.994 -15.297 -22.557  0.00  0.00    +0.050 C 
ATOM     26  C   UNL     1      33.217 -14.846 -21.489  0.00  0.00    +0.015 C 
ATOM     27  C   UNL     1      32.787 -13.511 -21.431  0.00  0.00    +0.004 C 
ATOM     28  C   UNL     1      34.354 -14.422 -23.577  0.00  0.00    +0.015 C 
ATOM     29  C   UNL     1      33.154 -12.627 -22.467  0.00  0.00    +0.019 C 
ATOM     30  C   UNL     1      33.937 -13.091 -23.537  0.00  0.00    +0.003 C 
ATOM     31  C   UNL     1      32.006 -13.028 -20.373  0.00  0.00    +0.021 C 
ATOM     32  C   UNL     1      32.709 -11.306 -22.375  0.00  0.00    +0.099 C 
ATOM     33  C   UNL     1      31.623 -11.696 -20.388  0.00  0.00    +0.099 C 
ENDBRANCH  21  25
ENDBRANCH   1  22
BRANCH   1  34
ATOM     34  C   UNL     1      34.728 -19.078 -23.431  0.00  0.00    -0.072 C 
BRANCH  34  35
ATOM     35  N   UNL     1      35.331 -20.241 -24.078  0.00  0.00    +0.381 N 
ATOM     36  H   UNL     1      36.347 -20.164 -24.036  0.00  0.00    -0.089 HD
ATOM     37  H   UNL     1      35.033 -20.280 -25.052  0.00  0.00    -0.089 HD
ATOM     38  H   UNL     1      35.033 -21.089 -23.597  0.00  0.00    -0.089 HD
ENDBRANCH  34  35
ENDBRANCH   1  34
TORSDOF 9
ENDMDL
MODEL 2
REMARK VINA RESULT:     -12.0      3.714     12.700
REMARK  Name = 66599893
REMARK  9 active torsions:
REMARK  status: ('A' for Active; 'I' for Inactive)
REMARK    1  A    between atoms: C_1  and  C_2
REMARK    2  A    between atoms: C_1  and  C_22
REMARK    3  A    between atoms: C_1  and  C_34
REMARK    4  A    between atoms: C_5  and  C_8
REMARK    5  A    between atoms: C_8  and  O_9
REMARK    6  A    between atoms: O_9  and  C_11
REMARK    7  A    between atoms: C_11  and  C_12
REMARK    8  A    between atoms: N_21  and  C_25
REMARK    9  A    between atoms: C_34  and  N_35
REMARK                            x       y       z     vdW  Elec       q    Type
REMARK                         _______ _______ _______ _____ _____    ______ ____
ROOT
ATOM      1  C   UNL     1      34.080 -15.532 -23.057  0.00  0.00    +0.077 C 
ENDROOT
BRANCH   1   2
ATOM      2  C   UNL     1      33.472 -14.221 -22.583  0.00  0.00    -0.016 C 
ATOM      3  C   UNL     1      33.709 -13.045 -23.295  0.00  0.00    -0.004 C 
ATOM      4  C   UNL     1      32.677 -14.195 -21.437  0.00  0.00    -0.004 C 
ATOM      5  C   UNL     1      32.359 -11.816 -21.713  0.00  0.00    +0.021 C 
ATOM      6  C   UNL     1      33.153 -11.842 -22.859  0.00  0.00    -0.001 C 
ATOM      7  C   UNL     1      32.122 -12.992 -21.001  0.00  0.00    -0.001 C 
BRANCH   5   8
ATOM      8  C   UNL     1      31.762 -10.530 -21.248  0.00  0.00    +0.235 C 
BRANCH   8   9
ATOM      9  O   UNL     1      32.089  -9.497 -22.168  0.00  0.00    -0.440 OA
BRANCH   9  11
ATOM     10  O   UNL     1      32.790  -8.129 -20.455  0.00  0.00    -0.245 OA
ATOM     11  C   UNL     1      32.702  -8.401 -21.643  0.00  0.00    +0.341 C 
BRANCH  11  12
ATOM     12  C   UNL     1      33.267  -7.548 -22.719  0.00  0.00    +0.072 C 
ATOM     13  C   UNL     1      32.497  -6.562 -23.335  0.00  0.00    -0.016 C 
ATOM     14  C   UNL     1      34.375  -5.974 -24.738  0.00  0.00    -0.022 C 
ATOM     15  C   UNL     1      33.051  -5.774 -24.345  0.00  0.00    -0.008 C 
ATOM     16  C   UNL     1      34.590  -7.748 -23.112  0.00  0.00    +0.006 C 
ATOM     17  C   UNL     1      35.144  -6.961 -24.122  0.00  0.00    -0.004 C 
ATOM     18  C   UNL     1      31.078  -6.326 -22.934  0.00  0.00    +0.031 C 
ATOM     19  C   UNL     1      34.968  -5.133 -25.817  0.00  0.00    +0.031 C 
ENDBRANCH  11  12
ENDBRANCH   9  11
ENDBRANCH   8   9
ENDBRANCH   5   8
ENDBRANCH   1   2
BRANCH   1  22
ATOM     20  O   UNL     1      34.840 -15.842 -20.784  0.00  0.00    -0.275 OA
ATOM     21  N   UNL     1      34.604 -17.737 -22.156  0.00  0.00    -0.284 N 
ATOM     22  C   UNL     1      34.548 -16.366 -21.856  0.00  0.00    +0.228 C 
ATOM     23  H   UNL     1      34.345 -17.988 -23.072  0.00  0.00    +0.155 HD
BRANCH  21  25
ATOM     24  N   UNL     1      35.151 -22.772 -18.201  0.00  0.00    -0.242 NA
ATOM     25  C   UNL     1      34.982 -18.790 -21.320  0.00  0.00    +0.050 C 
ATOM     26  C   UNL     1      34.005 -19.595 -20.731  0.00  0.00    +0.015 C 
ATOM     27  C   UNL     1      34.368 -20.656 -19.885  0.00  0.00    +0.004 C 
ATOM     28  C   UNL     1      36.330 -19.034 -21.074  0.00  0.00    +0.015 C 
ATOM     29  C   UNL     1      35.736 -20.900 -19.640  0.00  0.00    +0.019 C 
ATOM     30  C   UNL     1      36.710 -20.084 -20.239  0.00  0.00    +0.003 C 
ATOM     31  C   UNL     1      33.413 -21.482 -19.280  0.00  0.00    +0.021 C 
ATOM     32  C   UNL     1      36.059 -21.964 -18.795  0.00  0.00    +0.099 C 
ATOM     33  C   UNL     1      33.852 -22.509 -18.459  0.00  0.00    +0.099 C 
ENDBRANCH  21  25
ENDBRANCH   1  22
BRANCH   1  34
ATOM     34  C   UNL     1      35.240 -15.330 -24.053  0.00  0.00    -0.072 C 
BRANCH  34  35
ATOM     35  N   UNL     1      35.192 -16.296 -25.148  0.00  0.00    +0.381 N 
ATOM     36  H   UNL     1      35.710 -17.135 -24.884  0.00  0.00    -0.089 HD
ATOM     37  H   UNL     1      35.612 -15.886 -25.981  0.00  0.00    -0.089 HD
ATOM     38  H   UNL     1      34.222 -16.542 -25.342  0.00  0.00    -0.089 HD
ENDBRANCH  34  35
ENDBRANCH   1  34
TORSDOF 9
ENDMDL
MODEL 3
REMARK VINA RESULT:     -11.9      3.101     11.888
REMARK  Name = 66599893
REMARK  9 active torsions:
REMARK  status: ('A' for Active; 'I' for Inactive)
REMARK    1  A    between atoms: C_1  and  C_2
REMARK    2  A    between atoms: C_1  and  C_22
REMARK    3  A    between atoms: C_1  and  C_34
REMARK    4  A    between atoms: C_5  and  C_8
REMARK    5  A    between atoms: C_8  and  O_9
REMARK    6  A    between atoms: O_9  and  C_11
REMARK    7  A    between atoms: C_11  and  C_12
REMARK    8  A    between atoms: N_21  and  C_25
REMARK    9  A    between atoms: C_34  and  N_35
REMARK                            x       y       z     vdW  Elec       q    Type
REMARK                         _______ _______ _______ _____ _____    ______ ____
ROOT
ATOM      1  C   UNL     1      35.889 -19.005 -21.679  0.00  0.00    +0.077 C 
ENDROOT
BRANCH   1   2
ATOM      2  C   UNL     1      35.269 -17.645 -21.961  0.00  0.00    -0.016 C 
ATOM      3  C   UNL     1      35.060 -17.233 -23.277  0.00  0.00    -0.004 C 
ATOM      4  C   UNL     1      34.909 -16.810 -20.903  0.00  0.00    -0.004 C 
ATOM      5  C   UNL     1      34.133 -15.151 -22.478  0.00  0.00    +0.021 C 
ATOM      6  C   UNL     1      34.493 -15.985 -23.535  0.00  0.00    -0.001 C 
ATOM      7  C   UNL     1      34.342 -15.562 -21.162  0.00  0.00    -0.001 C 
BRANCH   5   8
ATOM      8  C   UNL     1      33.524 -13.816 -22.754  0.00  0.00    +0.235 C 
BRANCH   8   9
ATOM      9  O   UNL     1      34.500 -12.964 -23.341  0.00  0.00    -0.440 OA
BRANCH   9  11
ATOM     10  O   UNL     1      33.785 -12.424 -25.461  0.00  0.00    -0.245 OA
ATOM     11  C   UNL     1      34.050 -12.120 -24.308  0.00  0.00    +0.341 C 
BRANCH  11  12
ATOM     12  C   UNL     1      33.915 -10.738 -23.779  0.00  0.00    +0.072 C 
ATOM     13  C   UNL     1      34.822  -9.740 -24.131  0.00  0.00    -0.016 C 
ATOM     14  C   UNL     1      33.619  -8.160 -22.756  0.00  0.00    -0.022 C 
ATOM     15  C   UNL     1      34.675  -8.451 -23.620  0.00  0.00    -0.008 C 
ATOM     16  C   UNL     1      32.860 -10.449 -22.914  0.00  0.00    +0.006 C 
ATOM     17  C   UNL     1      32.711  -9.159 -22.402  0.00  0.00    -0.004 C 
ATOM     18  C   UNL     1      35.961 -10.023 -25.056  0.00  0.00    +0.031 C 
ATOM     19  C   UNL     1      33.460  -6.783 -22.207  0.00  0.00    +0.031 C 
ENDBRANCH  11  12
ENDBRANCH   9  11
ENDBRANCH   8   9
ENDBRANCH   5   8
ENDBRANCH   1   2
BRANCH   1  22
ATOM     20  O   UNL     1      33.757 -19.759 -20.824  0.00  0.00    -0.275 OA
ATOM     21  N   UNL     1      35.721 -20.584 -19.828  0.00  0.00    -0.284 N 
ATOM     22  C   UNL     1      34.982 -19.819 -20.745  0.00  0.00    +0.228 C 
ATOM     23  H   UNL     1      36.700 -20.507 -19.894  0.00  0.00    +0.155 HD
BRANCH  21  25
ATOM     24  N   UNL     1      34.623 -24.398 -14.775  0.00  0.00    -0.242 NA
ATOM     25  C   UNL     1      35.243 -21.440 -18.834  0.00  0.00    +0.050 C 
ATOM     26  C   UNL     1      36.073 -21.808 -17.773  0.00  0.00    +0.015 C 
ATOM     27  C   UNL     1      35.607 -22.669 -16.767  0.00  0.00    +0.004 C 
ATOM     28  C   UNL     1      33.940 -21.926 -18.902  0.00  0.00    +0.015 C 
ATOM     29  C   UNL     1      34.287 -23.159 -16.840  0.00  0.00    +0.019 C 
ATOM     30  C   UNL     1      33.460 -22.782 -17.912  0.00  0.00    +0.003 C 
ATOM     31  C   UNL     1      36.415 -23.057 -15.690  0.00  0.00    +0.021 C 
ATOM     32  C   UNL     1      33.859 -24.013 -15.821  0.00  0.00    +0.099 C 
ATOM     33  C   UNL     1      35.881 -23.910 -14.737  0.00  0.00    +0.099 C 
ENDBRANCH  21  25
ENDBRANCH   1  22
BRANCH   1  34
ATOM     34  C   UNL     1      37.311 -18.905 -21.091  0.00  0.00    -0.072 C 
BRANCH  34  35
ATOM     35  N   UNL     1      38.274 -18.420 -22.076  0.00  0.00    +0.381 N 
ATOM     36  H   UNL     1      39.215 -18.700 -21.798  0.00  0.00    -0.089 HD
ATOM     37  H   UNL     1      38.225 -17.402 -22.126  0.00  0.00    -0.089 HD
ATOM     38  H   UNL     1      38.056 -18.816 -22.989  0.00  0.00    -0.089 HD
ENDBRANCH  34  35
ENDBRANCH   1  34
TORSDOF 9
ENDMDL
MODEL 4
REMARK VINA RESULT:     -11.8      1.841      3.373
REMARK  Name = 66599893
REMARK  9 active torsions:
REMARK  status: ('A' for Active; 'I' for Inactive)
REMARK    1  A    between atoms: C_1  and  C_2
REMARK    2  A    between atoms: C_1  and  C_22
REMARK    3  A    between atoms: C_1  and  C_34
REMARK    4  A    between atoms: C_5  and  C_8
REMARK    5  A    between atoms: C_8  and  O_9
REMARK    6  A    between atoms: O_9  and  C_11
REMARK    7  A    between atoms: C_11  and  C_12
REMARK    8  A    between atoms: N_21  and  C_25
REMARK    9  A    between atoms: C_34  and  N_35
REMARK                            x       y       z     vdW  Elec       q    Type
REMARK                         _______ _______ _______ _____ _____    ______ ____
ROOT
ATOM      1  C   UNL     1      35.513 -17.248 -22.434  0.00  0.00    +0.077 C 
ENDROOT
BRANCH   1   2
ATOM      2  C   UNL     1      35.562 -18.491 -21.559  0.00  0.00    -0.016 C 
ATOM      3  C   UNL     1      34.393 -19.203 -21.292  0.00  0.00    -0.004 C 
ATOM      4  C   UNL     1      36.778 -18.920 -21.024  0.00  0.00    -0.004 C 
ATOM      5  C   UNL     1      35.652 -20.770 -19.954  0.00  0.00    +0.021 C 
ATOM      6  C   UNL     1      34.438 -20.342 -20.488  0.00  0.00    -0.001 C 
ATOM      7  C   UNL     1      36.822 -20.059 -20.221  0.00  0.00    -0.001 C 
BRANCH   5   8
ATOM      8  C   UNL     1      35.701 -21.990 -19.096  0.00  0.00    +0.235 C 
BRANCH   8   9
ATOM      9  O   UNL     1      34.636 -21.948 -18.154  0.00  0.00    -0.440 OA
BRANCH   9  11
ATOM     10  O   UNL     1      33.701 -23.883 -18.978  0.00  0.00    -0.245 OA
ATOM     11  C   UNL     1      33.852 -23.058 -18.089  0.00  0.00    +0.341 C 
BRANCH  11  12
ATOM     12  C   UNL     1      33.179 -23.150 -16.768  0.00  0.00    +0.072 C 
ATOM     13  C   UNL     1      33.893 -23.485 -15.618  0.00  0.00    -0.016 C 
ATOM     14  C   UNL     1      31.868 -23.313 -14.312  0.00  0.00    -0.022 C 
ATOM     15  C   UNL     1      33.237 -23.567 -14.390  0.00  0.00    -0.008 C 
ATOM     16  C   UNL     1      31.810 -22.897 -16.691  0.00  0.00    +0.006 C 
ATOM     17  C   UNL     1      31.154 -22.978 -15.463  0.00  0.00    -0.004 C 
ATOM     18  C   UNL     1      35.360 -23.762 -15.673  0.00  0.00    +0.031 C 
ATOM     19  C   UNL     1      31.165 -23.400 -13.000  0.00  0.00    +0.031 C 
ENDBRANCH  11  12
ENDBRANCH   9  11
ENDBRANCH   8   9
ENDBRANCH   5   8
ENDBRANCH   1   2
BRANCH   1  22
ATOM     20  O   UNL     1      34.849 -16.034 -20.452  0.00  0.00    -0.275 OA
ATOM     21  N   UNL     1      34.231 -15.176 -22.553  0.00  0.00    -0.284 N 
ATOM     22  C   UNL     1      34.840 -16.093 -21.679  0.00  0.00    +0.228 C 
ATOM     23  H   UNL     1      34.310 -15.380 -23.512  0.00  0.00    +0.155 HD
BRANCH  21  25
ATOM     24  N   UNL     1      31.661  -9.317 -21.962  0.00  0.00    -0.242 NA
ATOM     25  C   UNL     1      33.531 -14.012 -22.232  0.00  0.00    +0.050 C 
ATOM     26  C   UNL     1      33.778 -12.833 -22.938  0.00  0.00    +0.015 C 
ATOM     27  C   UNL     1      33.084 -11.654 -22.626  0.00  0.00    +0.004 C 
ATOM     28  C   UNL     1      32.587 -14.028 -21.209  0.00  0.00    +0.015 C 
ATOM     29  C   UNL     1      32.128 -11.674 -21.589  0.00  0.00    +0.019 C 
ATOM     30  C   UNL     1      31.887 -12.866 -20.885  0.00  0.00    +0.003 C 
ATOM     31  C   UNL     1      33.309 -10.456 -23.316  0.00  0.00    +0.021 C 
ATOM     32  C   UNL     1      31.456 -10.483 -21.308  0.00  0.00    +0.099 C 
ATOM     33  C   UNL     1      32.582  -9.335 -22.949  0.00  0.00    +0.099 C 
ENDBRANCH  21  25
ENDBRANCH   1  22
BRANCH   1  34
ATOM     34  C   UNL     1      34.805 -17.491 -23.782  0.00  0.00    -0.072 C 
BRANCH  34  35
ATOM     35  N   UNL     1      35.333 -16.630 -24.837  0.00  0.00    +0.381 N 
ATOM     36  H   UNL     1      36.303 -16.880 -25.028  0.00  0.00    -0.089 HD
ATOM     37  H   UNL     1      35.286 -15.657 -24.536  0.00  0.00    -0.089 HD
ATOM     38  H   UNL     1      34.777 -16.751 -25.684  0.00  0.00    -0.089 HD
ENDBRANCH  34  35
ENDBRANCH   1  34
TORSDOF 9
ENDMDL
MODEL 5
REMARK VINA RESULT:     -11.7      0.681      1.497
REMARK  Name = 66599893
REMARK  9 active torsions:
REMARK  status: ('A' for Active; 'I' for Inactive)
REMARK    1  A    between atoms: C_1  and  C_2
REMARK    2  A    between atoms: C_1  and  C_22
REMARK    3  A    between atoms: C_1  and  C_34
REMARK    4  A    between atoms: C_5  and  C_8
REMARK    5  A    between atoms: C_8  and  O_9
REMARK    6  A    between atoms: O_9  and  C_11
REMARK    7  A    between atoms: C_11  and  C_12
REMARK    8  A    between atoms: N_21  and  C_25
REMARK    9  A    between atoms: C_34  and  N_35
REMARK                            x       y       z     vdW  Elec       q    Type
REMARK                         _______ _______ _______ _____ _____    ______ ____
ROOT
ATOM      1  C   UNL     1      35.379 -18.789 -22.068  0.00  0.00    +0.077 C 
ENDROOT
BRANCH   1   2
ATOM      2  C   UNL     1      34.932 -19.801 -21.025  0.00  0.00    -0.016 C 
ATOM      3  C   UNL     1      33.573 -19.983 -20.766  0.00  0.00    -0.004 C 
ATOM      4  C   UNL     1      35.881 -20.549 -20.327  0.00  0.00    -0.004 C 
ATOM      5  C   UNL     1      34.112 -21.657 -19.111  0.00  0.00    +0.021 C 
ATOM      6  C   UNL     1      33.163 -20.910 -19.808  0.00  0.00    -0.001 C 
ATOM      7  C   UNL     1      35.470 -21.476 -19.369  0.00  0.00    -0.001 C 
BRANCH   5   8
ATOM      8  C   UNL     1      33.674 -22.650 -18.087  0.00  0.00    +0.235 C 
BRANCH   8   9
ATOM      9  O   UNL     1      34.681 -22.778 -17.091  0.00  0.00    -0.440 OA
BRANCH   9  11
ATOM     10  O   UNL     1      33.100 -23.021 -15.436  0.00  0.00    -0.245 OA
ATOM     11  C   UNL     1      34.248 -23.109 -15.844  0.00  0.00    +0.341 C 
BRANCH  11  12
ATOM     12  C   UNL     1      35.373 -23.606 -15.012  0.00  0.00    +0.072 C 
ATOM     13  C   UNL     1      35.143 -24.228 -13.786  0.00  0.00    -0.016 C 
ATOM     14  C   UNL     1      37.523 -24.519 -13.486  0.00  0.00    -0.022 C 
ATOM     15  C   UNL     1      36.217 -24.685 -13.023  0.00  0.00    -0.008 C 
ATOM     16  C   UNL     1      36.678 -23.440 -15.476  0.00  0.00    +0.006 C 
ATOM     17  C   UNL     1      37.753 -23.896 -14.713  0.00  0.00    -0.004 C 
ATOM     18  C   UNL     1      33.756 -24.419 -13.266  0.00  0.00    +0.031 C 
ATOM     19  C   UNL     1      38.672 -25.006 -12.671  0.00  0.00    +0.031 C 
ENDBRANCH  11  12
ENDBRANCH   9  11
ENDBRANCH   8   9
ENDBRANCH   5   8
ENDBRANCH   1   2
BRANCH   1  22
ATOM     20  O   UNL     1      35.322 -16.986 -20.459  0.00  0.00    -0.275 OA
ATOM     21  N   UNL     1      34.433 -16.605 -22.602  0.00  0.00    -0.284 N 
ATOM     22  C   UNL     1      35.057 -17.363 -21.598  0.00  0.00    +0.228 C 
ATOM     23  H   UNL     1      34.283 -17.067 -23.459  0.00  0.00    +0.155 HD
BRANCH  21  25
ATOM     24  N   UNL     1      31.916 -10.844 -21.277  0.00  0.00    -0.242 NA
ATOM     25  C   UNL     1      33.998 -15.279 -22.540  0.00  0.00    +0.050 C 
ATOM     26  C   UNL     1      33.228 -14.850 -21.458  0.00  0.00    +0.015 C 
ATOM     27  C   UNL     1      32.782 -13.520 -21.382  0.00  0.00    +0.004 C 
ATOM     28  C   UNL     1      34.334 -14.390 -23.556  0.00  0.00    +0.015 C 
ATOM     29  C   UNL     1      33.125 -12.621 -22.414  0.00  0.00    +0.019 C 
ATOM     30  C   UNL     1      33.901 -13.065 -23.498  0.00  0.00    +0.003 C 
ATOM     31  C   UNL     1      32.008 -13.058 -20.310  0.00  0.00    +0.021 C 
ATOM     32  C   UNL     1      32.664 -11.308 -22.303  0.00  0.00    +0.099 C 
ATOM     33  C   UNL     1      31.608 -11.731 -20.307  0.00  0.00    +0.099 C 
ENDBRANCH  21  25
ENDBRANCH   1  22
BRANCH   1  34
ATOM     34  C   UNL     1      34.760 -19.047 -23.457  0.00  0.00    -0.072 C 
BRANCH  34  35
ATOM     35  N   UNL     1      35.305 -20.250 -24.081  0.00  0.00    +0.381 N 
ATOM     36  H   UNL     1      34.660 -20.582 -24.798  0.00  0.00    -0.089 HD
ATOM     37  H   UNL     1      35.428 -20.973 -23.373  0.00  0.00    -0.089 HD
ATOM     38  H   UNL     1      36.206 -20.034 -24.506  0.00  0.00    -0.089 HD
ENDBRANCH  34  35
ENDBRANCH   1  34
TORSDOF 9
ENDMDL
MODEL 6
REMARK VINA RESULT:     -11.6      3.595     10.730
REMARK  Name = 66599893
REMARK  9 active torsions:
REMARK  status: ('A' for Active; 'I' for Inactive)
REMARK    1  A    between atoms: C_1  and  C_2
REMARK    2  A    between atoms: C_1  and  C_22
REMARK    3  A    between atoms: C_1  and  C_34
REMARK    4  A    between atoms: C_5  and  C_8
REMARK    5  A    between atoms: C_8  and  O_9
REMARK    6  A    between atoms: O_9  and  C_11
REMARK    7  A    between atoms: C_11  and  C_12
REMARK    8  A    between atoms: N_21  and  C_25
REMARK    9  A    between atoms: C_34  and  N_35
REMARK                            x       y       z     vdW  Elec       q    Type
REMARK                         _______ _______ _______ _____ _____    ______ ____
ROOT
ATOM      1  C   UNL     1      36.011 -22.063 -18.630  0.00  0.00    +0.077 C 
ENDROOT
BRANCH   1   2
ATOM      2  C   UNL     1      35.771 -20.946 -19.633  0.00  0.00    -0.016 C 
ATOM      3  C   UNL     1      36.842 -20.183 -20.098  0.00  0.00    -0.004 C 
ATOM      4  C   UNL     1      34.478 -20.684 -20.090  0.00  0.00    -0.004 C 
ATOM      5  C   UNL     1      35.330 -18.897 -21.474  0.00  0.00    +0.021 C 
ATOM      6  C   UNL     1      36.621 -19.158 -21.017  0.00  0.00    -0.001 C 
ATOM      7  C   UNL     1      34.258 -19.659 -21.009  0.00  0.00    -0.001 C 
BRANCH   5   8
ATOM      8  C   UNL     1      35.093 -17.801 -22.458  0.00  0.00    +0.235 C 
BRANCH   8   9
ATOM      9  O   UNL     1      34.856 -16.583 -21.763  0.00  0.00    -0.440 OA
BRANCH   9  11
ATOM     10  O   UNL     1      35.415 -15.255 -23.558  0.00  0.00    -0.245 OA
ATOM     11  C   UNL     1      34.787 -15.462 -22.530  0.00  0.00    +0.341 C 
BRANCH  11  12
ATOM     12  C   UNL     1      33.829 -14.486 -21.951  0.00  0.00    +0.072 C 
ATOM     13  C   UNL     1      33.426 -13.360 -22.666  0.00  0.00    -0.016 C 
ATOM     14  C   UNL     1      32.029 -12.683 -20.815  0.00  0.00    -0.022 C 
ATOM     15  C   UNL     1      32.526 -12.458 -22.099  0.00  0.00    -0.008 C 
ATOM     16  C   UNL     1      33.333 -14.712 -20.667  0.00  0.00    +0.006 C 
ATOM     17  C   UNL     1      32.432 -13.810 -20.099  0.00  0.00    -0.004 C 
ATOM     18  C   UNL     1      33.942 -13.094 -24.043  0.00  0.00    +0.031 C 
ATOM     19  C   UNL     1      31.067 -11.720 -20.207  0.00  0.00    +0.031 C 
ENDBRANCH  11  12
ENDBRANCH   9  11
ENDBRANCH   8   9
ENDBRANCH   5   8
ENDBRANCH   1   2
BRANCH   1  22
ATOM     20  O   UNL     1      33.905 -23.169 -19.065  0.00  0.00    -0.275 OA
ATOM     21  N   UNL     1      34.479 -22.684 -16.836  0.00  0.00    -0.284 N 
ATOM     22  C   UNL     1      34.677 -22.711 -18.227  0.00  0.00    +0.228 C 
ATOM     23  H   UNL     1      35.196 -22.268 -16.307  0.00  0.00    +0.155 HD
BRANCH  21  25
ATOM     24  N   UNL     1      28.811 -24.403 -14.343  0.00  0.00    -0.242 NA
ATOM     25  C   UNL     1      33.392 -23.176 -16.110  0.00  0.00    +0.050 C 
ATOM     26  C   UNL     1      32.091 -22.918 -16.544  0.00  0.00    +0.015 C 
ATOM     27  C   UNL     1      30.987 -23.404 -15.824  0.00  0.00    +0.004 C 
ATOM     28  C   UNL     1      33.608 -23.921 -14.954  0.00  0.00    +0.015 C 
ATOM     29  C   UNL     1      31.211 -24.159 -14.654  0.00  0.00    +0.019 C 
ATOM     30  C   UNL     1      32.525 -24.413 -14.226  0.00  0.00    +0.003 C 
ATOM     31  C   UNL     1      29.670 -23.162 -16.233  0.00  0.00    +0.021 C 
ATOM     32  C   UNL     1      30.090 -24.626 -13.964  0.00  0.00    +0.099 C 
ATOM     33  C   UNL     1      28.635 -23.677 -15.468  0.00  0.00    +0.099 C 
ENDBRANCH  21  25
ENDBRANCH   1  22
BRANCH   1  34
ATOM     34  C   UNL     1      36.776 -21.590 -17.378  0.00  0.00    -0.072 C 
BRANCH  34  35
ATOM     35  N   UNL     1      37.651 -22.633 -16.848  0.00  0.00    +0.381 N 
ATOM     36  H   UNL     1      37.926 -22.394 -15.895  0.00  0.00    -0.089 HD
ATOM     37  H   UNL     1      38.483 -22.707 -17.433  0.00  0.00    -0.089 HD
ATOM     38  H   UNL     1      37.155 -23.524 -16.847  0.00  0.00    -0.089 HD
ENDBRANCH  34  35
ENDBRANCH   1  34
TORSDOF 9
ENDMDL
MODEL 7
REMARK VINA RESULT:     -11.5      3.906      7.390
REMARK  Name = 66599893
REMARK  9 active torsions:
REMARK  status: ('A' for Active; 'I' for Inactive)
REMARK    1  A    between atoms: C_1  and  C_2
REMARK    2  A    between atoms: C_1  and  C_22
REMARK    3  A    between atoms: C_1  and  C_34
REMARK    4  A    between atoms: C_5  and  C_8
REMARK    5  A    between atoms: C_8  and  O_9
REMARK    6  A    between atoms: O_9  and  C_11
REMARK    7  A    between atoms: C_11  and  C_12
REMARK    8  A    between atoms: N_21  and  C_25
REMARK    9  A    between atoms: C_34  and  N_35
REMARK                            x       y       z     vdW  Elec       q    Type
REMARK                         _______ _______ _______ _____ _____    ______ ____
ROOT
ATOM      1  C   UNL     1      31.458 -12.085 -20.392  0.00  0.00    +0.077 C 
ENDROOT
BRANCH   1   2
ATOM      2  C   UNL     1      32.392 -13.180 -20.884  0.00  0.00    -0.016 C 
ATOM      3  C   UNL     1      32.967 -13.089 -22.152  0.00  0.00    -0.004 C 
ATOM      4  C   UNL     1      32.675 -14.275 -20.067  0.00  0.00    -0.004 C 
ATOM      5  C   UNL     1      34.105 -15.188 -21.786  0.00  0.00    +0.021 C 
ATOM      6  C   UNL     1      33.823 -14.094 -22.603  0.00  0.00    -0.001 C 
ATOM      7  C   UNL     1      33.531 -15.279 -20.519  0.00  0.00    -0.001 C 
BRANCH   5   8
ATOM      8  C   UNL     1      35.022 -16.262 -22.268  0.00  0.00    +0.235 C 
BRANCH   8   9
ATOM      9  O   UNL     1      34.948 -17.376 -21.388  0.00  0.00    -0.440 OA
BRANCH   9  11
ATOM     10  O   UNL     1      35.085 -18.827 -23.170  0.00  0.00    -0.245 OA
ATOM     11  C   UNL     1      34.945 -18.603 -21.977  0.00  0.00    +0.341 C 
BRANCH  11  12
ATOM     12  C   UNL     1      34.742 -19.671 -20.966  0.00  0.00    +0.072 C 
ATOM     13  C   UNL     1      35.824 -20.254 -20.306  0.00  0.00    -0.016 C 
ATOM     14  C   UNL     1      34.308 -21.676 -19.075  0.00  0.00    -0.022 C 
ATOM     15  C   UNL     1      35.607 -21.256 -19.361  0.00  0.00    -0.008 C 
ATOM     16  C   UNL     1      33.443 -20.091 -20.681  0.00  0.00    +0.006 C 
ATOM     17  C   UNL     1      33.225 -21.093 -19.736  0.00  0.00    -0.004 C 
ATOM     18  C   UNL     1      37.225 -19.823 -20.592  0.00  0.00    +0.031 C 
ATOM     19  C   UNL     1      34.074 -22.748 -18.066  0.00  0.00    +0.031 C 
ENDBRANCH  11  12
ENDBRANCH   9  11
ENDBRANCH   8   9
ENDBRANCH   5   8
ENDBRANCH   1   2
BRANCH   1  22
ATOM     20  O   UNL     1      30.400 -11.121 -22.340  0.00  0.00    -0.275 OA
ATOM     21  N   UNL     1      32.204  -9.974 -21.360  0.00  0.00    -0.284 N 
ATOM     22  C   UNL     1      31.271 -11.017 -21.480  0.00  0.00    +0.228 C 
ATOM     23  H   UNL     1      32.843 -10.053 -20.615  0.00  0.00    +0.155 HD
BRANCH  21  25
ATOM     24  N   UNL     1      33.980  -5.092 -25.140  0.00  0.00    -0.242 NA
ATOM     25  C   UNL     1      32.339  -8.839 -22.162  0.00  0.00    +0.050 C 
ATOM     26  C   UNL     1      33.579  -8.524 -22.720  0.00  0.00    +0.015 C 
ATOM     27  C   UNL     1      33.731  -7.386 -23.527  0.00  0.00    +0.004 C 
ATOM     28  C   UNL     1      31.236  -8.024 -22.403  0.00  0.00    +0.015 C 
ATOM     29  C   UNL     1      32.611  -6.562 -23.770  0.00  0.00    +0.019 C 
ATOM     30  C   UNL     1      31.368  -6.889 -23.203  0.00  0.00    +0.003 C 
ATOM     31  C   UNL     1      34.961  -7.043 -24.101  0.00  0.00    +0.021 C 
ATOM     32  C   UNL     1      32.800  -5.439 -24.578  0.00  0.00    +0.099 C 
ATOM     33  C   UNL     1      35.029  -5.903 -24.887  0.00  0.00    +0.099 C 
ENDBRANCH  21  25
ENDBRANCH   1  22
BRANCH   1  34
ATOM     34  C   UNL     1      31.937 -11.434 -19.079  0.00  0.00    -0.072 C 
BRANCH  34  35
ATOM     35  N   UNL     1      30.849 -10.756 -18.378  0.00  0.00    +0.381 N 
ATOM     36  H   UNL     1      31.050  -9.758 -18.323  0.00  0.00    -0.089 HD
ATOM     37  H   UNL     1      30.762 -11.138 -17.437  0.00  0.00    -0.089 HD
ATOM     38  H   UNL     1      29.976 -10.901 -18.885  0.00  0.00    -0.089 HD
ENDBRANCH  34  35
ENDBRANCH   1  34
TORSDOF 9
ENDMDL
MODEL 8
REMARK VINA RESULT:     -11.5      3.939      7.585
REMARK  Name = 66599893
REMARK  9 active torsions:
REMARK  status: ('A' for Active; 'I' for Inactive)
REMARK    1  A    between atoms: C_1  and  C_2
REMARK    2  A    between atoms: C_1  and  C_22
REMARK    3  A    between atoms: C_1  and  C_34
REMARK    4  A    between atoms: C_5  and  C_8
REMARK    5  A    between atoms: C_8  and  O_9
REMARK    6  A    between atoms: O_9  and  C_11
REMARK    7  A    between atoms: C_11  and  C_12
REMARK    8  A    between atoms: N_21  and  C_25
REMARK    9  A    between atoms: C_34  and  N_35
REMARK                            x       y       z     vdW  Elec       q    Type
REMARK                         _______ _______ _______ _____ _____    ______ ____
ROOT
ATOM      1  C   UNL     1      31.444 -11.911 -20.435  0.00  0.00    +0.077 C 
ENDROOT
BRANCH   1   2
ATOM      2  C   UNL     1      32.362 -12.981 -21.005  0.00  0.00    -0.016 C 
ATOM      3  C   UNL     1      32.702 -14.093 -20.234  0.00  0.00    -0.004 C 
ATOM      4  C   UNL     1      32.864 -12.851 -22.301  0.00  0.00    -0.004 C 
ATOM      5  C   UNL     1      34.046 -14.943 -22.052  0.00  0.00    +0.021 C 
ATOM      6  C   UNL     1      33.545 -15.073 -20.758  0.00  0.00    -0.001 C 
ATOM      7  C   UNL     1      33.707 -13.832 -22.824  0.00  0.00    -0.001 C 
BRANCH   5   8
ATOM      8  C   UNL     1      34.946 -15.992 -22.613  0.00  0.00    +0.235 C 
BRANCH   8   9
ATOM      9  O   UNL     1      35.001 -17.096 -21.718  0.00  0.00    -0.440 OA
BRANCH   9  11
ATOM     10  O   UNL     1      34.859 -18.566 -23.483  0.00  0.00    -0.245 OA
ATOM     11  C   UNL     1      34.925 -18.330 -22.286  0.00  0.00    +0.341 C 
BRANCH  11  12
ATOM     12  C   UNL     1      34.932 -19.389 -21.245  0.00  0.00    +0.072 C 
ATOM     13  C   UNL     1      36.122 -19.813 -20.655  0.00  0.00    -0.016 C 
ATOM     14  C   UNL     1      34.890 -21.384 -19.295  0.00  0.00    -0.022 C 
ATOM     15  C   UNL     1      36.102 -20.810 -19.680  0.00  0.00    -0.008 C 
ATOM     16  C   UNL     1      33.720 -19.963 -20.861  0.00  0.00    +0.006 C 
ATOM     17  C   UNL     1      33.699 -20.961 -19.886  0.00  0.00    -0.004 C 
ATOM     18  C   UNL     1      37.434 -19.214 -21.048  0.00  0.00    +0.031 C 
ATOM     19  C   UNL     1      34.866 -22.451 -18.254  0.00  0.00    +0.031 C 
ENDBRANCH  11  12
ENDBRANCH   9  11
ENDBRANCH   8   9
ENDBRANCH   5   8
ENDBRANCH   1   2
BRANCH   1  22
ATOM     20  O   UNL     1      30.395 -10.767 -22.288  0.00  0.00    -0.275 OA
ATOM     21  N   UNL     1      32.257  -9.764 -21.259  0.00  0.00    -0.284 N 
ATOM     22  C   UNL     1      31.283 -10.760 -21.438  0.00  0.00    +0.228 C 
ATOM     23  H   UNL     1      32.904  -9.921 -20.534  0.00  0.00    +0.155 HD
BRANCH  21  25
ATOM     24  N   UNL     1      32.022  -3.953 -23.991  0.00  0.00    -0.242 NA
ATOM     25  C   UNL     1      32.424  -8.579 -21.978  0.00  0.00    +0.050 C 
ATOM     26  C   UNL     1      31.517  -7.531 -21.812  0.00  0.00    +0.015 C 
ATOM     27  C   UNL     1      31.669  -6.333 -22.530  0.00  0.00    +0.004 C 
ATOM     28  C   UNL     1      33.493  -8.445 -22.859  0.00  0.00    +0.015 C 
ATOM     29  C   UNL     1      32.754  -6.201 -23.421  0.00  0.00    +0.019 C 
ATOM     30  C   UNL     1      33.661  -7.263 -23.580  0.00  0.00    +0.003 C 
ATOM     31  C   UNL     1      30.776  -5.264 -22.386  0.00  0.00    +0.021 C 
ATOM     32  C   UNL     1      32.874  -4.996 -24.116  0.00  0.00    +0.099 C 
ATOM     33  C   UNL     1      30.996  -4.115 -23.129  0.00  0.00    +0.099 C 
ENDBRANCH  21  25
ENDBRANCH   1  22
BRANCH   1  34
ATOM     34  C   UNL     1      31.927 -11.371 -19.073  0.00  0.00    -0.072 C 
BRANCH  34  35
ATOM     35  N   UNL     1      30.854 -10.705 -18.340  0.00  0.00    +0.381 N 
ATOM     36  H   UNL     1      31.255 -10.027 -17.692  0.00  0.00    -0.089 HD
ATOM     37  H   UNL     1      30.318 -11.398 -17.819  0.00  0.00    -0.089 HD
ATOM     38  H   UNL     1      30.240 -10.225 -18.998  0.00  0.00    -0.089 HD
ENDBRANCH  34  35
ENDBRANCH   1  34
TORSDOF 9
ENDMDL
MODEL 9
REMARK VINA RESULT:     -11.5      2.825     10.939
REMARK  Name = 66599893
REMARK  9 active torsions:
REMARK  status: ('A' for Active; 'I' for Inactive)
REMARK    1  A    between atoms: C_1  and  C_2
REMARK    2  A    between atoms: C_1  and  C_22
REMARK    3  A    between atoms: C_1  and  C_34
REMARK    4  A    between atoms: C_5  and  C_8
REMARK    5  A    between atoms: C_8  and  O_9
REMARK    6  A    between atoms: O_9  and  C_11
REMARK    7  A    between atoms: C_11  and  C_12
REMARK    8  A    between atoms: N_21  and  C_25
REMARK    9  A    between atoms: C_34  and  N_35
REMARK                            x       y       z     vdW  Elec       q    Type
REMARK                         _______ _______ _______ _____ _____    ______ ____
ROOT
ATOM      1  C   UNL     1      36.113 -19.031 -22.159  0.00  0.00    +0.077 C 
ENDROOT
BRANCH   1   2
ATOM      2  C   UNL     1      35.467 -17.836 -22.841  0.00  0.00    -0.016 C 
ATOM      3  C   UNL     1      35.082 -17.920 -24.180  0.00  0.00    -0.004 C 
ATOM      4  C   UNL     1      35.259 -16.654 -22.129  0.00  0.00    -0.004 C 
ATOM      5  C   UNL     1      34.283 -15.643 -24.094  0.00  0.00    +0.021 C 
ATOM      6  C   UNL     1      34.491 -16.823 -24.806  0.00  0.00    -0.001 C 
ATOM      7  C   UNL     1      34.667 -15.558 -22.756  0.00  0.00    -0.001 C 
BRANCH   5   8
ATOM      8  C   UNL     1      33.648 -14.470 -24.763  0.00  0.00    +0.235 C 
BRANCH   8   9
ATOM      9  O   UNL     1      32.886 -13.738 -23.812  0.00  0.00    -0.440 OA
BRANCH   9  11
ATOM     10  O   UNL     1      34.294 -11.927 -23.997  0.00  0.00    -0.245 OA
ATOM     11  C   UNL     1      33.401 -12.538 -23.430  0.00  0.00    +0.341 C 
BRANCH  11  12
ATOM     12  C   UNL     1      32.728 -12.043 -22.202  0.00  0.00    +0.072 C 
ATOM     13  C   UNL     1      32.431 -10.691 -22.038  0.00  0.00    -0.016 C 
ATOM     14  C   UNL     1      31.463 -11.165 -19.876  0.00  0.00    -0.022 C 
ATOM     15  C   UNL     1      31.799 -10.251 -20.875  0.00  0.00    -0.008 C 
ATOM     16  C   UNL     1      32.392 -12.957 -21.204  0.00  0.00    +0.006 C 
ATOM     17  C   UNL     1      31.760 -12.519 -20.040  0.00  0.00    -0.004 C 
ATOM     18  C   UNL     1      32.779  -9.691 -23.092  0.00  0.00    +0.031 C 
ATOM     19  C   UNL     1      30.788 -10.697 -18.631  0.00  0.00    +0.031 C 
ENDBRANCH  11  12
ENDBRANCH   9  11
ENDBRANCH   8   9
ENDBRANCH   5   8
ENDBRANCH   1   2
BRANCH   1  22
ATOM     20  O   UNL     1      34.303 -18.825 -20.570  0.00  0.00    -0.275 OA
ATOM     21  N   UNL     1      35.730 -20.688 -20.410  0.00  0.00    -0.284 N 
ATOM     22  C   UNL     1      35.262 -19.484 -20.963  0.00  0.00    +0.228 C 
ATOM     23  H   UNL     1      36.521 -21.081 -20.843  0.00  0.00    +0.155 HD
BRANCH  21  25
ATOM     24  N   UNL     1      34.483 -23.902 -14.987  0.00  0.00    -0.242 NA
ATOM     25  C   UNL     1      35.213 -21.397 -19.323  0.00  0.00    +0.050 C 
ATOM     26  C   UNL     1      36.049 -21.755 -18.265  0.00  0.00    +0.015 C 
ATOM     27  C   UNL     1      35.546 -22.470 -17.167  0.00  0.00    +0.004 C 
ATOM     28  C   UNL     1      33.865 -21.745 -19.298  0.00  0.00    +0.015 C 
ATOM     29  C   UNL     1      34.179 -22.821 -17.145  0.00  0.00    +0.019 C 
ATOM     30  C   UNL     1      33.347 -22.455 -18.216  0.00  0.00    +0.003 C 
ATOM     31  C   UNL     1      36.358 -22.845 -16.090  0.00  0.00    +0.021 C 
ATOM     32  C   UNL     1      33.714 -23.531 -16.036  0.00  0.00    +0.099 C 
ATOM     33  C   UNL     1      35.785 -23.548 -15.042  0.00  0.00    +0.099 C 
ENDBRANCH  21  25
ENDBRANCH   1  22
BRANCH   1  34
ATOM     34  C   UNL     1      37.562 -18.754 -21.709  0.00  0.00    -0.072 C 
BRANCH  34  35
ATOM     35  N   UNL     1      37.673 -18.659 -20.256  0.00  0.00    +0.381 N 
ATOM     36  H   UNL     1      38.604 -18.956 -19.966  0.00  0.00    -0.089 HD
ATOM     37  H   UNL     1      36.973 -19.261 -19.822  0.00  0.00    -0.089 HD
ATOM     38  H   UNL     1      37.517 -17.693 -19.966  0.00  0.00    -0.089 HD
ENDBRANCH  34  35
ENDBRANCH   1  34
TORSDOF 9
ENDMDL
