MODEL 1
REMARK VINA RESULT:     -11.6      0.000      0.000
REMARK  Name = 11992146
REMARK  2 active torsions:
REMARK  status: ('A' for Active; 'I' for Inactive)
REMARK    1  A    between atoms: C_2  and  C_14
REMARK    2  A    between atoms: C_5  and  C_20
REMARK                            x       y       z     vdW  Elec       q    Type
REMARK                         _______ _______ _______ _____ _____    ______ ____
ROOT
ATOM      1  N   UNL     1      32.550 -22.441 -17.841  0.00  0.00    -0.244 NA
ATOM      2  C   UNL     1      34.398 -23.490 -16.027  0.00  0.00    +0.016 C 
ATOM      3  C   UNL     1      34.835 -22.727 -17.103  0.00  0.00    +0.020 C 
ATOM      4  C   UNL     1      33.040 -23.731 -15.856  0.00  0.00    +0.022 C 
ATOM      5  C   UNL     1      33.879 -22.229 -17.974  0.00  0.00    +0.084 C 
ATOM      6  C   UNL     1      32.164 -23.188 -16.784  0.00  0.00    +0.099 C 
ENDROOT
BRANCH   2  14
ATOM      7  O   UNL     1      36.065 -25.568 -11.091  0.00  0.00    -0.270 OA
ATOM      8  N   UNL     1      36.686 -24.142 -15.392  0.00  0.00    -0.316 N 
ATOM      9  N   UNL     1      38.152 -25.927 -12.014  0.00  0.00    -0.300 N 
ATOM     10  C   UNL     1      37.340 -24.681 -14.321  0.00  0.00    +0.031 C 
ATOM     11  C   UNL     1      38.795 -24.939 -14.225  0.00  0.00    +0.063 C 
ATOM     12  C   UNL     1      36.421 -24.930 -13.323  0.00  0.00    +0.064 C 
ATOM     13  C   UNL     1      39.006 -26.061 -13.201  0.00  0.00    +0.096 C 
ATOM     14  C   UNL     1      35.351 -24.033 -15.089  0.00  0.00    +0.048 C 
ATOM     15  C   UNL     1      35.159 -24.510 -13.807  0.00  0.00    +0.020 C 
ATOM     16  C   UNL     1      36.826 -25.497 -12.051  0.00  0.00    +0.247 C 
ATOM     17  H   UNL     1      37.105 -23.874 -16.243  0.00  0.00    +0.152 HD
ATOM     18  H   UNL     1      38.540 -26.155 -11.138  0.00  0.00    +0.150 HD
ENDBRANCH   2  14
BRANCH   5  20
ATOM     19  F   UNL     1      36.552 -21.965 -18.798  0.00  0.00    -0.204 F 
ATOM     20  C   UNL     1      34.257 -21.428 -19.114  0.00  0.00    +0.045 C 
ATOM     21  C   UNL     1      35.598 -21.322 -19.487  0.00  0.00    +0.142 C 
ATOM     22  C   UNL     1      33.278 -20.752 -19.846  0.00  0.00    +0.004 C 
ATOM     23  C   UNL     1      35.959 -20.544 -20.588  0.00  0.00    +0.030 C 
ATOM     24  C   UNL     1      33.638 -19.974 -20.945  0.00  0.00    +0.000 C 
ATOM     25  C   UNL     1      34.979 -19.869 -21.316  0.00  0.00    +0.002 C 
ENDBRANCH   5  20
TORSDOF 2
ENDMDL
MODEL 2
REMARK VINA RESULT:     -11.4     10.511     14.018
REMARK  Name = 11992146
REMARK  2 active torsions:
REMARK  status: ('A' for Active; 'I' for Inactive)
REMARK    1  A    between atoms: C_2  and  C_14
REMARK    2  A    between atoms: C_5  and  C_20
REMARK                            x       y       z     vdW  Elec       q    Type
REMARK                         _______ _______ _______ _____ _____    ______ ____
ROOT
ATOM      1  N   UNL     1      31.574  -9.551 -21.493  0.00  0.00    -0.244 NA
ATOM      2  C   UNL     1      32.709 -12.004 -22.200  0.00  0.00    +0.016 C 
ATOM      3  C   UNL     1      33.138 -10.835 -22.817  0.00  0.00    +0.020 C 
ATOM      4  C   UNL     1      31.715 -11.950 -21.230  0.00  0.00    +0.022 C 
ATOM      5  C   UNL     1      32.543  -9.644 -22.431  0.00  0.00    +0.084 C 
ATOM      6  C   UNL     1      31.183 -10.709 -20.916  0.00  0.00    +0.099 C 
ENDROOT
BRANCH   2  14
ATOM      7  O   UNL     1      34.411 -15.989 -25.761  0.00  0.00    -0.270 OA
ATOM      8  N   UNL     1      33.686 -14.189 -21.620  0.00  0.00    -0.316 N 
ATOM      9  N   UNL     1      35.265 -17.153 -23.957  0.00  0.00    -0.300 N 
ATOM     10  C   UNL     1      34.195 -15.286 -22.253  0.00  0.00    +0.031 C 
ATOM     11  C   UNL     1      34.703 -16.515 -21.600  0.00  0.00    +0.063 C 
ATOM     12  C   UNL     1      34.140 -15.075 -23.615  0.00  0.00    +0.064 C 
ATOM     13  C   UNL     1      35.705 -17.174 -22.557  0.00  0.00    +0.096 C 
ATOM     14  C   UNL     1      33.294 -13.272 -22.564  0.00  0.00    +0.048 C 
ATOM     15  C   UNL     1      33.560 -13.799 -23.813  0.00  0.00    +0.020 C 
ATOM     16  C   UNL     1      34.606 -16.078 -24.552  0.00  0.00    +0.247 C 
ATOM     17  H   UNL     1      33.611 -14.075 -20.644  0.00  0.00    +0.152 HD
ATOM     18  H   UNL     1      35.448 -17.948 -24.510  0.00  0.00    +0.150 HD
ENDBRANCH   2  14
BRANCH   5  20
ATOM     19  F   UNL     1      30.664  -7.733 -23.275  0.00  0.00    -0.204 F 
ATOM     20  C   UNL     1      32.936  -8.390 -23.028  0.00  0.00    +0.045 C 
ATOM     21  C   UNL     1      31.969  -7.469 -23.435  0.00  0.00    +0.142 C 
ATOM     22  C   UNL     1      34.290  -8.095 -23.201  0.00  0.00    +0.004 C 
ATOM     23  C   UNL     1      32.354  -6.259 -24.014  0.00  0.00    +0.030 C 
ATOM     24  C   UNL     1      34.675  -6.887 -23.779  0.00  0.00    +0.000 C 
ATOM     25  C   UNL     1      33.708  -5.968 -24.186  0.00  0.00    +0.002 C 
ENDBRANCH   5  20
TORSDOF 2
ENDMDL
MODEL 3
REMARK VINA RESULT:     -11.4      7.619     11.936
REMARK  Name = 11992146
REMARK  2 active torsions:
REMARK  status: ('A' for Active; 'I' for Inactive)
REMARK    1  A    between atoms: C_2  and  C_14
REMARK    2  A    between atoms: C_5  and  C_20
REMARK                            x       y       z     vdW  Elec       q    Type
REMARK                         _______ _______ _______ _____ _____    ______ ____
ROOT
ATOM      1  N   UNL     1      35.277 -17.802 -23.758  0.00  0.00    -0.244 NA
ATOM      2  C   UNL     1      34.126 -15.420 -22.861  0.00  0.00    +0.016 C 
ATOM      3  C   UNL     1      34.438 -16.427 -21.955  0.00  0.00    +0.020 C 
ATOM      4  C   UNL     1      34.388 -15.600 -24.213  0.00  0.00    +0.022 C 
ATOM      5  C   UNL     1      35.007 -17.590 -22.451  0.00  0.00    +0.084 C 
ATOM      6  C   UNL     1      34.960 -16.800 -24.608  0.00  0.00    +0.099 C 
ENDROOT
BRANCH   2  14
ATOM      7  O   UNL     1      32.925  -9.946 -23.093  0.00  0.00    -0.270 OA
ATOM      8  N   UNL     1      32.866 -14.109 -21.200  0.00  0.00    -0.316 N 
ATOM      9  N   UNL     1      31.599 -10.218 -21.220  0.00  0.00    -0.300 N 
ATOM     10  C   UNL     1      32.419 -12.830 -21.027  0.00  0.00    +0.031 C 
ATOM     11  C   UNL     1      31.678 -12.315 -19.852  0.00  0.00    +0.063 C 
ATOM     12  C   UNL     1      32.791 -12.080 -22.123  0.00  0.00    +0.064 C 
ATOM     13  C   UNL     1      30.861 -11.101 -20.309  0.00  0.00    +0.096 C 
ATOM     14  C   UNL     1      33.532 -14.189 -22.398  0.00  0.00    +0.048 C 
ATOM     15  C   UNL     1      33.506 -12.941 -22.991  0.00  0.00    +0.020 C 
ATOM     16  C   UNL     1      32.462 -10.671 -22.218  0.00  0.00    +0.247 C 
ATOM     17  H   UNL     1      32.732 -14.853 -20.568  0.00  0.00    +0.152 HD
ATOM     18  H   UNL     1      31.478  -9.245 -21.120  0.00  0.00    +0.150 HD
ENDBRANCH   2  14
BRANCH   5  20
ATOM     19  F   UNL     1      37.667 -18.134 -21.729  0.00  0.00    -0.204 F 
ATOM     20  C   UNL     1      35.357 -18.679 -21.571  0.00  0.00    +0.045 C 
ATOM     21  C   UNL     1      36.693 -18.915 -21.240  0.00  0.00    +0.142 C 
ATOM     22  C   UNL     1      34.358 -19.503 -21.050  0.00  0.00    +0.004 C 
ATOM     23  C   UNL     1      37.027 -19.972 -20.392  0.00  0.00    +0.030 C 
ATOM     24  C   UNL     1      34.691 -20.558 -20.203  0.00  0.00    +0.000 C 
ATOM     25  C   UNL     1      36.026 -20.794 -19.873  0.00  0.00    +0.002 C 
ENDBRANCH   5  20
TORSDOF 2
ENDMDL
MODEL 4
REMARK VINA RESULT:     -11.1      0.971      1.398
REMARK  Name = 11992146
REMARK  2 active torsions:
REMARK  status: ('A' for Active; 'I' for Inactive)
REMARK    1  A    between atoms: C_2  and  C_14
REMARK    2  A    between atoms: C_5  and  C_20
REMARK                            x       y       z     vdW  Elec       q    Type
REMARK                         _______ _______ _______ _____ _____    ______ ____
ROOT
ATOM      1  N   UNL     1      32.759 -22.373 -18.011  0.00  0.00    -0.244 NA
ATOM      2  C   UNL     1      34.518 -23.438 -16.120  0.00  0.00    +0.016 C 
ATOM      3  C   UNL     1      35.006 -22.669 -17.171  0.00  0.00    +0.020 C 
ATOM      4  C   UNL     1      33.153 -23.675 -16.013  0.00  0.00    +0.022 C 
ATOM      5  C   UNL     1      34.093 -22.164 -18.082  0.00  0.00    +0.084 C 
ATOM      6  C   UNL     1      32.322 -23.125 -16.977  0.00  0.00    +0.099 C 
ENDROOT
BRANCH   2  14
ATOM      7  O   UNL     1      35.970 -25.472 -11.099  0.00  0.00    -0.270 OA
ATOM      8  N   UNL     1      36.767 -24.138 -15.400  0.00  0.00    -0.316 N 
ATOM      9  N   UNL     1      38.076 -25.901 -11.947  0.00  0.00    -0.300 N 
ATOM     10  C   UNL     1      37.371 -24.675 -14.300  0.00  0.00    +0.031 C 
ATOM     11  C   UNL     1      38.815 -24.969 -14.152  0.00  0.00    +0.063 C 
ATOM     12  C   UNL     1      36.414 -24.882 -13.328  0.00  0.00    +0.064 C 
ATOM     13  C   UNL     1      38.963 -26.078 -13.103  0.00  0.00    +0.096 C 
ATOM     14  C   UNL     1      35.426 -23.989 -15.143  0.00  0.00    +0.048 C 
ATOM     15  C   UNL     1      35.180 -24.438 -13.860  0.00  0.00    +0.020 C 
ATOM     16  C   UNL     1      36.763 -25.437 -12.035  0.00  0.00    +0.247 C 
ATOM     17  H   UNL     1      37.220 -23.896 -16.241  0.00  0.00    +0.152 HD
ATOM     18  H   UNL     1      38.429 -26.124 -11.055  0.00  0.00    +0.150 HD
ENDBRANCH   2  14
BRANCH   5  20
ATOM     19  F   UNL     1      32.308 -20.575 -19.560  0.00  0.00    -0.204 F 
ATOM     20  C   UNL     1      34.525 -21.357 -19.199  0.00  0.00    +0.045 C 
ATOM     21  C   UNL     1      33.603 -20.583 -19.907  0.00  0.00    +0.142 C 
ATOM     22  C   UNL     1      35.869 -21.351 -19.574  0.00  0.00    +0.004 C 
ATOM     23  C   UNL     1      34.026 -19.808 -20.987  0.00  0.00    +0.030 C 
ATOM     24  C   UNL     1      36.292 -20.577 -20.653  0.00  0.00    +0.000 C 
ATOM     25  C   UNL     1      35.370 -19.805 -21.361  0.00  0.00    +0.002 C 
ENDBRANCH   5  20
TORSDOF 2
ENDMDL
MODEL 5
REMARK VINA RESULT:     -11.0     10.341     13.756
REMARK  Name = 11992146
REMARK  2 active torsions:
REMARK  status: ('A' for Active; 'I' for Inactive)
REMARK    1  A    between atoms: C_2  and  C_14
REMARK    2  A    between atoms: C_5  and  C_20
REMARK                            x       y       z     vdW  Elec       q    Type
REMARK                         _______ _______ _______ _____ _____    ______ ____
ROOT
ATOM      1  N   UNL     1      31.219 -10.017 -19.990  0.00  0.00    -0.244 NA
ATOM      2  C   UNL     1      32.418 -12.202 -21.253  0.00  0.00    +0.016 C 
ATOM      3  C   UNL     1      32.468 -10.944 -21.842  0.00  0.00    +0.020 C 
ATOM      4  C   UNL     1      31.771 -12.370 -20.035  0.00  0.00    +0.022 C 
ATOM      5  C   UNL     1      31.857  -9.893 -21.176  0.00  0.00    +0.084 C 
ATOM      6  C   UNL     1      31.192 -11.255 -19.449  0.00  0.00    +0.099 C 
ENDROOT
BRANCH   2  14
ATOM      7  O   UNL     1      33.902 -15.362 -25.643  0.00  0.00    -0.270 OA
ATOM      8  N   UNL     1      33.615 -14.353 -21.192  0.00  0.00    -0.316 N 
ATOM      9  N   UNL     1      35.071 -16.726 -24.191  0.00  0.00    -0.300 N 
ATOM     10  C   UNL     1      34.111 -15.277 -22.066  0.00  0.00    +0.031 C 
ATOM     11  C   UNL     1      34.788 -16.545 -21.708  0.00  0.00    +0.063 C 
ATOM     12  C   UNL     1      33.859 -14.847 -23.352  0.00  0.00    +0.064 C 
ATOM     13  C   UNL     1      35.695 -16.939 -22.880  0.00  0.00    +0.096 C 
ATOM     14  C   UNL     1      33.037 -13.332 -21.904  0.00  0.00    +0.048 C 
ATOM     15  C   UNL     1      33.168 -13.615 -23.249  0.00  0.00    +0.020 C 
ATOM     16  C   UNL     1      34.263 -15.633 -24.502  0.00  0.00    +0.247 C 
ATOM     17  H   UNL     1      33.665 -14.411 -20.209  0.00  0.00    +0.152 HD
ATOM     18  H   UNL     1      35.232 -17.397 -24.894  0.00  0.00    +0.150 HD
ENDBRANCH   2  14
BRANCH   5  20
ATOM     19  F   UNL     1      33.306  -7.797 -19.991  0.00  0.00    -0.204 F 
ATOM     20  C   UNL     1      31.868  -8.558 -21.726  0.00  0.00    +0.045 C 
ATOM     21  C   UNL     1      32.600  -7.546 -21.103  0.00  0.00    +0.142 C 
ATOM     22  C   UNL     1      31.142  -8.277 -22.884  0.00  0.00    +0.004 C 
ATOM     23  C   UNL     1      32.605  -6.256 -21.637  0.00  0.00    +0.030 C 
ATOM     24  C   UNL     1      31.146  -6.989 -23.418  0.00  0.00    +0.000 C 
ATOM     25  C   UNL     1      31.877  -5.978 -22.794  0.00  0.00    +0.002 C 
ENDBRANCH   5  20
TORSDOF 2
ENDMDL
MODEL 6
REMARK VINA RESULT:     -11.0      6.556     11.119
REMARK  Name = 11992146
REMARK  2 active torsions:
REMARK  status: ('A' for Active; 'I' for Inactive)
REMARK    1  A    between atoms: C_2  and  C_14
REMARK    2  A    between atoms: C_5  and  C_20
REMARK                            x       y       z     vdW  Elec       q    Type
REMARK                         _______ _______ _______ _____ _____    ______ ____
ROOT
ATOM      1  N   UNL     1      35.601 -19.534 -22.823  0.00  0.00    -0.244 NA
ATOM      2  C   UNL     1      34.636 -16.936 -22.465  0.00  0.00    +0.016 C 
ATOM      3  C   UNL     1      34.631 -17.834 -21.403  0.00  0.00    +0.020 C 
ATOM      4  C   UNL     1      35.122 -17.334 -23.704  0.00  0.00    +0.022 C 
ATOM      5  C   UNL     1      35.121 -19.110 -21.632  0.00  0.00    +0.084 C 
ATOM      6  C   UNL     1      35.589 -18.634 -23.831  0.00  0.00    +0.099 C 
ENDROOT
BRANCH   2  14
ATOM      7  O   UNL     1      33.943 -11.536 -23.811  0.00  0.00    -0.270 OA
ATOM      8  N   UNL     1      33.437 -15.227 -21.159  0.00  0.00    -0.316 N 
ATOM      9  N   UNL     1      32.528 -11.326 -21.996  0.00  0.00    -0.300 N 
ATOM     10  C   UNL     1      33.101 -13.908 -21.260  0.00  0.00    +0.031 C 
ATOM     11  C   UNL     1      32.365 -13.114 -20.249  0.00  0.00    +0.063 C 
ATOM     12  C   UNL     1      33.580 -13.420 -22.457  0.00  0.00    +0.064 C 
ATOM     13  C   UNL     1      31.679 -11.950 -20.975  0.00  0.00    +0.096 C 
ATOM     14  C   UNL     1      34.138 -15.595 -22.281  0.00  0.00    +0.048 C 
ATOM     15  C   UNL     1      34.247 -14.490 -23.103  0.00  0.00    +0.020 C 
ATOM     16  C   UNL     1      33.383 -12.035 -22.840  0.00  0.00    +0.247 C 
ATOM     17  H   UNL     1      33.213 -15.819 -20.404  0.00  0.00    +0.152 HD
ATOM     18  H   UNL     1      32.491 -10.347 -22.093  0.00  0.00    +0.150 HD
ENDBRANCH   2  14
BRANCH   5  20
ATOM     19  F   UNL     1      32.783 -20.333 -20.665  0.00  0.00    -0.204 F 
ATOM     20  C   UNL     1      35.148 -20.096 -20.578  0.00  0.00    +0.045 C 
ATOM     21  C   UNL     1      33.961 -20.677 -20.126  0.00  0.00    +0.142 C 
ATOM     22  C   UNL     1      36.365 -20.469 -20.006  0.00  0.00    +0.004 C 
ATOM     23  C   UNL     1      33.993 -21.628 -19.105  0.00  0.00    +0.030 C 
ATOM     24  C   UNL     1      36.397 -21.419 -18.985  0.00  0.00    +0.000 C 
ATOM     25  C   UNL     1      35.211 -21.998 -18.534  0.00  0.00    +0.002 C 
ENDBRANCH   5  20
TORSDOF 2
ENDMDL
MODEL 7
REMARK VINA RESULT:     -10.8      9.691     14.223
REMARK  Name = 11992146
REMARK  2 active torsions:
REMARK  status: ('A' for Active; 'I' for Inactive)
REMARK    1  A    between atoms: C_2  and  C_14
REMARK    2  A    between atoms: C_5  and  C_20
REMARK                            x       y       z     vdW  Elec       q    Type
REMARK                         _______ _______ _______ _____ _____    ______ ____
ROOT
ATOM      1  N   UNL     1      33.957 -15.612 -25.217  0.00  0.00    -0.244 NA
ATOM      2  C   UNL     1      33.945 -12.939 -24.402  0.00  0.00    +0.016 C 
ATOM      3  C   UNL     1      34.338 -13.936 -23.516  0.00  0.00    +0.020 C 
ATOM      4  C   UNL     1      33.558 -13.276 -25.693  0.00  0.00    +0.022 C 
ATOM      5  C   UNL     1      34.326 -15.246 -23.969  0.00  0.00    +0.084 C 
ATOM      6  C   UNL     1      33.581 -14.616 -26.049  0.00  0.00    +0.099 C 
ENDROOT
BRANCH   2  14
ATOM      7  O   UNL     1      31.852  -8.407 -21.844  0.00  0.00    -0.270 OA
ATOM      8  N   UNL     1      34.911 -10.675 -24.377  0.00  0.00    -0.316 N 
ATOM      9  N   UNL     1      33.789  -7.274 -22.397  0.00  0.00    -0.300 N 
ATOM     10  C   UNL     1      34.645  -9.451 -23.834  0.00  0.00    +0.031 C 
ATOM     11  C   UNL     1      35.435  -8.214 -24.035  0.00  0.00    +0.063 C 
ATOM     12  C   UNL     1      33.496  -9.545 -23.076  0.00  0.00    +0.064 C 
ATOM     13  C   UNL     1      35.192  -7.301 -22.828  0.00  0.00    +0.096 C 
ATOM     14  C   UNL     1      33.938 -11.559 -23.982  0.00  0.00    +0.048 C 
ATOM     15  C   UNL     1      33.042 -10.883 -23.177  0.00  0.00    +0.020 C 
ATOM     16  C   UNL     1      32.957  -8.394 -22.380  0.00  0.00    +0.247 C 
ATOM     17  H   UNL     1      35.678 -10.888 -24.958  0.00  0.00    +0.152 HD
ATOM     18  H   UNL     1      33.413  -6.414 -22.101  0.00  0.00    +0.150 HD
ENDBRANCH   2  14
BRANCH   5  20
ATOM     19  F   UNL     1      34.490 -14.961 -21.178  0.00  0.00    -0.204 F 
ATOM     20  C   UNL     1      34.721 -16.334 -23.106  0.00  0.00    +0.045 C 
ATOM     21  C   UNL     1      34.791 -16.148 -21.724  0.00  0.00    +0.142 C 
ATOM     22  C   UNL     1      35.037 -17.578 -23.656  0.00  0.00    +0.004 C 
ATOM     23  C   UNL     1      35.177 -17.203 -20.895  0.00  0.00    +0.030 C 
ATOM     24  C   UNL     1      35.423 -18.632 -22.828  0.00  0.00    +0.000 C 
ATOM     25  C   UNL     1      35.493 -18.444 -21.447  0.00  0.00    +0.002 C 
ENDBRANCH   5  20
TORSDOF 2
ENDMDL
MODEL 8
REMARK VINA RESULT:     -10.7      3.159      7.504
REMARK  Name = 11992146
REMARK  2 active torsions:
REMARK  status: ('A' for Active; 'I' for Inactive)
REMARK    1  A    between atoms: C_2  and  C_14
REMARK    2  A    between atoms: C_5  and  C_20
REMARK                            x       y       z     vdW  Elec       q    Type
REMARK                         _______ _______ _______ _____ _____    ______ ____
ROOT
ATOM      1  N   UNL     1      33.821 -24.700 -13.852  0.00  0.00    -0.244 NA
ATOM      2  C   UNL     1      34.092 -23.245 -16.221  0.00  0.00    +0.016 C 
ATOM      3  C   UNL     1      35.222 -23.679 -15.538  0.00  0.00    +0.020 C 
ATOM      4  C   UNL     1      32.828 -23.536 -15.723  0.00  0.00    +0.022 C 
ATOM      5  C   UNL     1      35.034 -24.397 -14.367  0.00  0.00    +0.084 C 
ATOM      6  C   UNL     1      32.747 -24.261 -14.544  0.00  0.00    +0.099 C 
ENDROOT
BRANCH   2  14
ATOM      7  O   UNL     1      32.235 -20.527 -20.763  0.00  0.00    -0.270 OA
ATOM      8  N   UNL     1      35.458 -22.225 -17.998  0.00  0.00    -0.316 N 
ATOM      9  N   UNL     1      34.423 -19.961 -21.246  0.00  0.00    -0.300 N 
ATOM     10  C   UNL     1      35.280 -21.507 -19.146  0.00  0.00    +0.031 C 
ATOM     11  C   UNL     1      36.348 -21.040 -20.060  0.00  0.00    +0.063 C 
ATOM     12  C   UNL     1      33.929 -21.303 -19.333  0.00  0.00    +0.064 C 
ATOM     13  C   UNL     1      35.818 -19.814 -20.813  0.00  0.00    +0.096 C 
ATOM     14  C   UNL     1      34.230 -22.493 -17.446  0.00  0.00    +0.048 C 
ATOM     15  C   UNL     1      33.261 -21.937 -18.257  0.00  0.00    +0.020 C 
ATOM     16  C   UNL     1      33.430 -20.574 -20.483  0.00  0.00    +0.247 C 
ATOM     17  H   UNL     1      36.327 -22.505 -17.628  0.00  0.00    +0.152 HD
ATOM     18  H   UNL     1      34.174 -19.604 -22.129  0.00  0.00    +0.150 HD
ENDBRANCH   2  14
BRANCH   5  20
ATOM     19  F   UNL     1      36.423 -26.737 -15.066  0.00  0.00    -0.204 F 
ATOM     20  C   UNL     1      36.159 -24.881 -13.603  0.00  0.00    +0.045 C 
ATOM     21  C   UNL     1      36.820 -26.050 -13.985  0.00  0.00    +0.142 C 
ATOM     22  C   UNL     1      36.589 -24.178 -12.476  0.00  0.00    +0.004 C 
ATOM     23  C   UNL     1      37.905 -26.515 -13.241  0.00  0.00    +0.030 C 
ATOM     24  C   UNL     1      37.673 -24.643 -11.732  0.00  0.00    +0.000 C 
ATOM     25  C   UNL     1      38.331 -25.812 -12.115  0.00  0.00    +0.002 C 
ENDBRANCH   5  20
TORSDOF 2
ENDMDL
MODEL 9
REMARK VINA RESULT:     -10.7      2.410      4.422
REMARK  Name = 11992146
REMARK  2 active torsions:
REMARK  status: ('A' for Active; 'I' for Inactive)
REMARK    1  A    between atoms: C_2  and  C_14
REMARK    2  A    between atoms: C_5  and  C_20
REMARK                            x       y       z     vdW  Elec       q    Type
REMARK                         _______ _______ _______ _____ _____    ______ ____
ROOT
ATOM      1  N   UNL     1      32.352 -22.620 -17.458  0.00  0.00    -0.244 NA
ATOM      2  C   UNL     1      34.446 -23.639 -15.913  0.00  0.00    +0.016 C 
ATOM      3  C   UNL     1      33.130 -23.791 -15.490  0.00  0.00    +0.020 C 
ATOM      4  C   UNL     1      34.717 -22.979 -17.106  0.00  0.00    +0.022 C 
ATOM      5  C   UNL     1      32.128 -23.267 -16.292  0.00  0.00    +0.084 C 
ATOM      6  C   UNL     1      33.643 -22.491 -17.835  0.00  0.00    +0.099 C 
ENDROOT
BRANCH   2  14
ATOM      7  O   UNL     1      36.734 -26.064 -11.403  0.00  0.00    -0.270 OA
ATOM      8  N   UNL     1      36.838 -24.066 -15.516  0.00  0.00    -0.316 N 
ATOM      9  N   UNL     1      38.769 -26.043 -12.497  0.00  0.00    -0.300 N 
ATOM     10  C   UNL     1      37.634 -24.643 -14.568  0.00  0.00    +0.031 C 
ATOM     11  C   UNL     1      39.112 -24.724 -14.599  0.00  0.00    +0.063 C 
ATOM     12  C   UNL     1      36.833 -25.124 -13.552  0.00  0.00    +0.064 C 
ATOM     13  C   UNL     1      39.534 -25.925 -13.744  0.00  0.00    +0.096 C 
ATOM     14  C   UNL     1      35.528 -24.165 -15.116  0.00  0.00    +0.048 C 
ATOM     15  C   UNL     1      35.496 -24.812 -13.897  0.00  0.00    +0.020 C 
ATOM     16  C   UNL     1      37.402 -25.783 -12.393  0.00  0.00    +0.247 C 
ATOM     17  H   UNL     1      37.153 -23.648 -16.350  0.00  0.00    +0.152 HD
ATOM     18  H   UNL     1      39.249 -26.324 -11.684  0.00  0.00    +0.150 HD
ENDBRANCH   2  14
BRANCH   5  20
ATOM     19  F   UNL     1      31.202 -25.313 -14.603  0.00  0.00    -0.204 F 
ATOM     20  C   UNL     1      30.739 -23.386 -15.919  0.00  0.00    +0.045 C 
ATOM     21  C   UNL     1      30.322 -24.420 -15.078  0.00  0.00    +0.142 C 
ATOM     22  C   UNL     1      29.807 -22.466 -16.401  0.00  0.00    +0.004 C 
ATOM     23  C   UNL     1      28.977 -24.533 -14.722  0.00  0.00    +0.030 C 
ATOM     24  C   UNL     1      28.463 -22.578 -16.046  0.00  0.00    +0.000 C 
ATOM     25  C   UNL     1      28.048 -23.612 -15.207  0.00  0.00    +0.002 C 
ENDBRANCH   5  20
TORSDOF 2
ENDMDL
