MODEL 1
REMARK VINA RESULT:     -11.9      0.000      0.000
REMARK  Name = 449087
REMARK  3 active torsions:
REMARK  status: ('A' for Active; 'I' for Inactive)
REMARK    1  A    between atoms: C_5  and  C_11
REMARK    2  A    between atoms: C_8  and  C_14
REMARK    3  A    between atoms: C_14  and  C_15
REMARK                            x       y       z     vdW  Elec       q    Type
REMARK                         _______ _______ _______ _____ _____    ______ ____
ROOT
ATOM      1  O   UNL     1      34.155 -19.849 -21.514  0.00  0.00    -0.274 OA
ATOM      2  N   UNL     1      35.952 -22.312 -17.700  0.00  0.00    -0.239 N 
ATOM      3  N   UNL     1      36.675 -21.420 -18.399  0.00  0.00    -0.166 NA
ATOM      4  N   UNL     1      36.146 -20.053 -20.283  0.00  0.00    -0.268 N 
ATOM      5  C   UNL     1      34.675 -22.464 -18.156  0.00  0.00    +0.045 C 
ATOM      6  C   UNL     1      34.553 -21.611 -19.225  0.00  0.00    +0.048 C 
ATOM      7  C   UNL     1      35.811 -21.009 -19.317  0.00  0.00    +0.152 C 
ATOM      8  C   UNL     1      35.323 -19.550 -21.288  0.00  0.00    +0.232 C 
ATOM      9  H   UNL     1      36.311 -22.810 -16.931  0.00  0.00    +0.174 HD
ATOM     10  H   UNL     1      37.063 -19.696 -20.248  0.00  0.00    +0.156 HD
ENDROOT
BRANCH   5  11
ATOM     11  C   UNL     1      33.609 -23.389 -17.585  0.00  0.00    +0.037 C 
ATOM     12  C   UNL     1      33.385 -23.423 -16.094  0.00  0.00    +0.006 C 
ATOM     13  C   UNL     1      32.359 -22.792 -16.989  0.00  0.00    +0.006 C 
ENDBRANCH   5  11
BRANCH   8  14
ATOM     14  C   UNL     1      36.067 -18.520 -22.134  0.00  0.00    +0.112 C 
BRANCH  14  15
ATOM     15  C   UNL     1      35.297 -17.265 -22.377  0.00  0.00    -0.013 C 
ATOM     16  C   UNL     1      34.036 -15.373 -21.514  0.00  0.00    -0.000 C 
ATOM     17  C   UNL     1      34.764 -16.555 -21.302  0.00  0.00    -0.004 C 
ATOM     18  C   UNL     1      33.849 -14.903 -22.836  0.00  0.00    -0.000 C 
ATOM     19  C   UNL     1      35.112 -16.804 -23.677  0.00  0.00    -0.004 C 
ATOM     20  C   UNL     1      34.393 -15.631 -23.906  0.00  0.00    -0.000 C 
ATOM     21  C   UNL     1      33.492 -14.645 -20.443  0.00  0.00    -0.000 C 
ATOM     22  C   UNL     1      33.122 -13.720 -23.048  0.00  0.00    -0.000 C 
ATOM     23  C   UNL     1      32.772 -13.472 -20.673  0.00  0.00    -0.000 C 
ATOM     24  C   UNL     1      32.587 -13.011 -21.972  0.00  0.00    -0.000 C 
ENDBRANCH  14  15
ENDBRANCH   8  14
TORSDOF 3
ENDMDL
MODEL 2
REMARK VINA RESULT:     -11.7      0.979      1.995
REMARK  Name = 449087
REMARK  3 active torsions:
REMARK  status: ('A' for Active; 'I' for Inactive)
REMARK    1  A    between atoms: C_5  and  C_11
REMARK    2  A    between atoms: C_8  and  C_14
REMARK    3  A    between atoms: C_14  and  C_15
REMARK                            x       y       z     vdW  Elec       q    Type
REMARK                         _______ _______ _______ _____ _____    ______ ____
ROOT
ATOM      1  O   UNL     1      34.017 -20.119 -21.109  0.00  0.00    -0.274 OA
ATOM      2  N   UNL     1      35.556 -22.730 -17.281  0.00  0.00    -0.239 N 
ATOM      3  N   UNL     1      36.375 -21.955 -18.013  0.00  0.00    -0.166 NA
ATOM      4  N   UNL     1      35.990 -20.563 -19.913  0.00  0.00    -0.268 N 
ATOM      5  C   UNL     1      34.260 -22.720 -17.708  0.00  0.00    +0.045 C 
ATOM      6  C   UNL     1      34.229 -21.878 -18.793  0.00  0.00    +0.048 C 
ATOM      7  C   UNL     1      35.553 -21.449 -18.921  0.00  0.00    +0.152 C 
ATOM      8  C   UNL     1      35.218 -19.974 -20.912  0.00  0.00    +0.232 C 
ATOM      9  H   UNL     1      35.863 -23.258 -16.509  0.00  0.00    +0.174 HD
ATOM     10  H   UNL     1      36.947 -20.331 -19.904  0.00  0.00    +0.156 HD
ENDROOT
BRANCH   5  11
ATOM     11  C   UNL     1      33.094 -23.485 -17.099  0.00  0.00    +0.037 C 
ATOM     12  C   UNL     1      32.800 -23.329 -15.627  0.00  0.00    +0.006 C 
ATOM     13  C   UNL     1      31.873 -22.725 -16.642  0.00  0.00    +0.006 C 
ENDBRANCH   5  11
BRANCH   8  14
ATOM     14  C   UNL     1      36.074 -19.067 -21.794  0.00  0.00    +0.112 C 
BRANCH  14  15
ATOM     15  C   UNL     1      35.423 -17.770 -22.139  0.00  0.00    -0.013 C 
ATOM     16  C   UNL     1      34.532 -16.246 -23.813  0.00  0.00    -0.000 C 
ATOM     17  C   UNL     1      35.144 -17.463 -23.471  0.00  0.00    -0.004 C 
ATOM     18  C   UNL     1      34.196 -15.329 -22.789  0.00  0.00    -0.000 C 
ATOM     19  C   UNL     1      35.092 -16.868 -21.133  0.00  0.00    -0.004 C 
ATOM     20  C   UNL     1      34.483 -15.655 -21.454  0.00  0.00    -0.000 C 
ATOM     21  C   UNL     1      34.246 -15.920 -25.149  0.00  0.00    -0.000 C 
ATOM     22  C   UNL     1      33.583 -14.112 -23.131  0.00  0.00    -0.000 C 
ATOM     23  C   UNL     1      33.637 -14.706 -25.470  0.00  0.00    -0.000 C 
ATOM     24  C   UNL     1      33.306 -13.804 -24.463  0.00  0.00    -0.000 C 
ENDBRANCH  14  15
ENDBRANCH   8  14
TORSDOF 3
ENDMDL
MODEL 3
REMARK VINA RESULT:     -11.6      2.699      8.373
REMARK  Name = 449087
REMARK  3 active torsions:
REMARK  status: ('A' for Active; 'I' for Inactive)
REMARK    1  A    between atoms: C_5  and  C_11
REMARK    2  A    between atoms: C_8  and  C_14
REMARK    3  A    between atoms: C_14  and  C_15
REMARK                            x       y       z     vdW  Elec       q    Type
REMARK                         _______ _______ _______ _____ _____    ______ ____
ROOT
ATOM      1  O   UNL     1      35.175 -17.165 -21.064  0.00  0.00    -0.274 OA
ATOM      2  N   UNL     1      34.210 -15.556 -25.572  0.00  0.00    -0.239 N 
ATOM      3  N   UNL     1      34.783 -16.747 -25.330  0.00  0.00    -0.166 NA
ATOM      4  N   UNL     1      35.394 -17.848 -23.301  0.00  0.00    -0.268 N 
ATOM      5  C   UNL     1      33.926 -14.842 -24.445  0.00  0.00    +0.045 C 
ATOM      6  C   UNL     1      34.340 -15.620 -23.392  0.00  0.00    +0.048 C 
ATOM      7  C   UNL     1      34.853 -16.766 -24.006  0.00  0.00    +0.152 C 
ATOM      8  C   UNL     1      35.516 -17.974 -21.920  0.00  0.00    +0.232 C 
ATOM      9  H   UNL     1      34.014 -15.229 -26.479  0.00  0.00    +0.174 HD
ATOM     10  H   UNL     1      35.724 -18.603 -23.841  0.00  0.00    +0.156 HD
ENDROOT
BRANCH   5  11
ATOM     11  C   UNL     1      33.279 -13.465 -24.378  0.00  0.00    +0.037 C 
ATOM     12  C   UNL     1      34.086 -12.296 -23.869  0.00  0.00    +0.006 C 
ATOM     13  C   UNL     1      33.740 -12.388 -25.327  0.00  0.00    +0.006 C 
ENDBRANCH   5  11
BRANCH   8  14
ATOM     14  C   UNL     1      36.159 -19.310 -21.552  0.00  0.00    +0.112 C 
BRANCH  14  15
ATOM     15  C   UNL     1      35.343 -20.136 -20.615  0.00  0.00    -0.013 C 
ATOM     16  C   UNL     1      35.211 -21.618 -18.691  0.00  0.00    -0.000 C 
ATOM     17  C   UNL     1      35.965 -20.836 -19.581  0.00  0.00    -0.004 C 
ATOM     18  C   UNL     1      33.807 -21.691 -18.851  0.00  0.00    -0.000 C 
ATOM     19  C   UNL     1      33.962 -20.208 -20.773  0.00  0.00    -0.004 C 
ATOM     20  C   UNL     1      33.198 -20.979 -19.898  0.00  0.00    -0.000 C 
ATOM     21  C   UNL     1      35.821 -22.330 -17.644  0.00  0.00    -0.000 C 
ATOM     22  C   UNL     1      33.053 -22.473 -17.961  0.00  0.00    -0.000 C 
ATOM     23  C   UNL     1      35.056 -23.102 -16.769  0.00  0.00    -0.000 C 
ATOM     24  C   UNL     1      33.675 -23.174 -16.927  0.00  0.00    -0.000 C 
ENDBRANCH  14  15
ENDBRANCH   8  14
TORSDOF 3
ENDMDL
MODEL 4
REMARK VINA RESULT:     -11.0      1.639      2.539
REMARK  Name = 449087
REMARK  3 active torsions:
REMARK  status: ('A' for Active; 'I' for Inactive)
REMARK    1  A    between atoms: C_5  and  C_11
REMARK    2  A    between atoms: C_8  and  C_14
REMARK    3  A    between atoms: C_14  and  C_15
REMARK                            x       y       z     vdW  Elec       q    Type
REMARK                         _______ _______ _______ _____ _____    ______ ____
ROOT
ATOM      1  O   UNL     1      34.353 -18.950 -23.365  0.00  0.00    -0.274 OA
ATOM      2  N   UNL     1      37.431 -19.722 -19.655  0.00  0.00    -0.239 N 
ATOM      3  N   UNL     1      37.487 -18.628 -20.433  0.00  0.00    -0.166 NA
ATOM      4  N   UNL     1      36.176 -17.921 -22.299  0.00  0.00    -0.268 N 
ATOM      5  C   UNL     1      36.440 -20.593 -19.999  0.00  0.00    +0.045 C 
ATOM      6  C   UNL     1      35.800 -20.029 -21.075  0.00  0.00    +0.048 C 
ATOM      7  C   UNL     1      36.492 -18.833 -21.285  0.00  0.00    +0.152 C 
ATOM      8  C   UNL     1      35.159 -18.034 -23.244  0.00  0.00    +0.232 C 
ATOM      9  H   UNL     1      38.050 -19.881 -18.906  0.00  0.00    +0.174 HD
ATOM     10  H   UNL     1      36.733 -17.110 -22.349  0.00  0.00    +0.156 HD
ENDROOT
BRANCH   5  11
ATOM     11  C   UNL     1      36.113 -21.916 -19.320  0.00  0.00    +0.037 C 
ATOM     12  C   UNL     1      35.876 -21.940 -17.830  0.00  0.00    +0.006 C 
ATOM     13  C   UNL     1      34.726 -22.141 -18.774  0.00  0.00    +0.006 C 
ENDBRANCH   5  11
BRANCH   8  14
ATOM     14  C   UNL     1      35.146 -16.823 -24.174  0.00  0.00    +0.112 C 
BRANCH  14  15
ATOM     15  C   UNL     1      34.367 -15.664 -23.648  0.00  0.00    -0.013 C 
ATOM     16  C   UNL     1      33.340 -14.498 -21.777  0.00  0.00    -0.000 C 
ATOM     17  C   UNL     1      34.073 -15.582 -22.287  0.00  0.00    -0.004 C 
ATOM     18  C   UNL     1      32.901 -13.483 -22.660  0.00  0.00    -0.000 C 
ATOM     19  C   UNL     1      33.935 -14.666 -24.516  0.00  0.00    -0.004 C 
ATOM     20  C   UNL     1      33.206 -13.582 -24.027  0.00  0.00    -0.000 C 
ATOM     21  C   UNL     1      33.034 -14.399 -20.410  0.00  0.00    -0.000 C 
ATOM     22  C   UNL     1      32.168 -12.398 -22.149  0.00  0.00    -0.000 C 
ATOM     23  C   UNL     1      32.305 -13.315 -19.920  0.00  0.00    -0.000 C 
ATOM     24  C   UNL     1      31.873 -12.316 -20.788  0.00  0.00    -0.000 C 
ENDBRANCH  14  15
ENDBRANCH   8  14
TORSDOF 3
ENDMDL
MODEL 5
REMARK VINA RESULT:     -10.9      3.190      8.194
REMARK  Name = 449087
REMARK  3 active torsions:
REMARK  status: ('A' for Active; 'I' for Inactive)
REMARK    1  A    between atoms: C_5  and  C_11
REMARK    2  A    between atoms: C_8  and  C_14
REMARK    3  A    between atoms: C_14  and  C_15
REMARK                            x       y       z     vdW  Elec       q    Type
REMARK                         _______ _______ _______ _____ _____    ______ ____
ROOT
ATOM      1  O   UNL     1      34.539 -16.149 -20.869  0.00  0.00    -0.274 OA
ATOM      2  N   UNL     1      33.186 -12.221 -23.435  0.00  0.00    -0.239 N 
ATOM      3  N   UNL     1      33.834 -13.263 -23.983  0.00  0.00    -0.166 NA
ATOM      4  N   UNL     1      34.638 -15.314 -23.063  0.00  0.00    -0.268 N 
ATOM      5  C   UNL     1      32.945 -12.363 -22.100  0.00  0.00    +0.045 C 
ATOM      6  C   UNL     1      33.469 -13.583 -21.751  0.00  0.00    +0.048 C 
ATOM      7  C   UNL     1      33.995 -14.075 -22.948  0.00  0.00    +0.152 C 
ATOM      8  C   UNL     1      34.861 -16.242 -22.049  0.00  0.00    +0.232 C 
ATOM      9  H   UNL     1      32.912 -11.428 -23.949  0.00  0.00    +0.174 HD
ATOM     10  H   UNL     1      34.967 -15.556 -23.959  0.00  0.00    +0.156 HD
ENDROOT
BRANCH   5  11
ATOM     11  C   UNL     1      32.235 -11.368 -21.192  0.00  0.00    +0.037 C 
ATOM     12  C   UNL     1      30.752 -11.513 -20.958  0.00  0.00    +0.006 C 
ATOM     13  C   UNL     1      31.717 -11.833 -19.854  0.00  0.00    +0.006 C 
ENDBRANCH   5  11
BRANCH   8  14
ATOM     14  C   UNL     1      35.594 -17.468 -22.587  0.00  0.00    +0.112 C 
BRANCH  14  15
ATOM     15  C   UNL     1      35.679 -18.598 -21.616  0.00  0.00    -0.013 C 
ATOM     16  C   UNL     1      34.581 -20.315 -20.289  0.00  0.00    -0.000 C 
ATOM     17  C   UNL     1      34.517 -19.250 -21.202  0.00  0.00    -0.004 C 
ATOM     18  C   UNL     1      35.839 -20.725 -19.789  0.00  0.00    -0.000 C 
ATOM     19  C   UNL     1      36.917 -19.001 -21.125  0.00  0.00    -0.004 C 
ATOM     20  C   UNL     1      36.998 -20.057 -20.217  0.00  0.00    -0.000 C 
ATOM     21  C   UNL     1      33.421 -20.983 -19.861  0.00  0.00    -0.000 C 
ATOM     22  C   UNL     1      35.902 -21.790 -18.876  0.00  0.00    -0.000 C 
ATOM     23  C   UNL     1      33.502 -22.039 -18.952  0.00  0.00    -0.000 C 
ATOM     24  C   UNL     1      34.741 -22.442 -18.461  0.00  0.00    -0.000 C 
ENDBRANCH  14  15
ENDBRANCH   8  14
TORSDOF 3
ENDMDL
MODEL 6
REMARK VINA RESULT:     -10.8      1.483      2.182
REMARK  Name = 449087
REMARK  3 active torsions:
REMARK  status: ('A' for Active; 'I' for Inactive)
REMARK    1  A    between atoms: C_5  and  C_11
REMARK    2  A    between atoms: C_8  and  C_14
REMARK    3  A    between atoms: C_14  and  C_15
REMARK                            x       y       z     vdW  Elec       q    Type
REMARK                         _______ _______ _______ _____ _____    ______ ____
ROOT
ATOM      1  O   UNL     1      36.953 -19.919 -20.390  0.00  0.00    -0.274 OA
ATOM      2  N   UNL     1      32.722 -21.980 -19.091  0.00  0.00    -0.239 N 
ATOM      3  N   UNL     1      32.815 -21.056 -20.063  0.00  0.00    -0.166 NA
ATOM      4  N   UNL     1      34.674 -19.853 -20.956  0.00  0.00    -0.268 N 
ATOM      5  C   UNL     1      33.915 -22.284 -18.503  0.00  0.00    +0.045 C 
ATOM      6  C   UNL     1      34.854 -21.508 -19.136  0.00  0.00    +0.048 C 
ATOM      7  C   UNL     1      34.113 -20.785 -20.074  0.00  0.00    +0.152 C 
ATOM      8  C   UNL     1      36.015 -19.491 -21.054  0.00  0.00    +0.232 C 
ATOM      9  H   UNL     1      31.871 -22.397 -18.826  0.00  0.00    +0.174 HD
ATOM     10  H   UNL     1      34.052 -19.405 -21.574  0.00  0.00    +0.156 HD
ENDROOT
BRANCH   5  11
ATOM     11  C   UNL     1      34.147 -23.284 -17.379  0.00  0.00    +0.037 C 
ATOM     12  C   UNL     1      34.722 -22.800 -16.071  0.00  0.00    +0.006 C 
ATOM     13  C   UNL     1      33.282 -23.219 -16.145  0.00  0.00    +0.006 C 
ENDBRANCH   5  11
BRANCH   8  14
ATOM     14  C   UNL     1      36.215 -18.442 -22.145  0.00  0.00    +0.112 C 
BRANCH  14  15
ATOM     15  C   UNL     1      35.376 -17.220 -21.970  0.00  0.00    -0.013 C 
ATOM     16  C   UNL     1      34.196 -15.326 -22.937  0.00  0.00    -0.000 C 
ATOM     17  C   UNL     1      34.985 -16.478 -23.085  0.00  0.00    -0.004 C 
ATOM     18  C   UNL     1      33.796 -14.922 -21.641  0.00  0.00    -0.000 C 
ATOM     19  C   UNL     1      34.984 -16.822 -20.696  0.00  0.00    -0.004 C 
ATOM     20  C   UNL     1      34.199 -15.681 -20.530  0.00  0.00    -0.000 C 
ATOM     21  C   UNL     1      33.793 -14.566 -24.048  0.00  0.00    -0.000 C 
ATOM     22  C   UNL     1      33.006 -13.769 -21.493  0.00  0.00    -0.000 C 
ATOM     23  C   UNL     1      33.009 -13.424 -23.883  0.00  0.00    -0.000 C 
ATOM     24  C   UNL     1      32.616 -13.027 -22.608  0.00  0.00    -0.000 C 
ENDBRANCH  14  15
ENDBRANCH   8  14
TORSDOF 3
ENDMDL
MODEL 7
REMARK VINA RESULT:     -10.7      1.849      2.580
REMARK  Name = 449087
REMARK  3 active torsions:
REMARK  status: ('A' for Active; 'I' for Inactive)
REMARK    1  A    between atoms: C_5  and  C_11
REMARK    2  A    between atoms: C_8  and  C_14
REMARK    3  A    between atoms: C_14  and  C_15
REMARK                            x       y       z     vdW  Elec       q    Type
REMARK                         _______ _______ _______ _____ _____    ______ ____
ROOT
ATOM      1  O   UNL     1      37.434 -19.217 -20.515  0.00  0.00    -0.274 OA
ATOM      2  N   UNL     1      35.333 -22.643 -17.742  0.00  0.00    -0.239 N 
ATOM      3  N   UNL     1      34.800 -22.211 -18.898  0.00  0.00    -0.166 NA
ATOM      4  N   UNL     1      35.525 -20.586 -20.489  0.00  0.00    -0.268 N 
ATOM      5  C   UNL     1      36.511 -22.036 -17.418  0.00  0.00    +0.045 C 
ATOM      6  C   UNL     1      36.767 -21.146 -18.433  0.00  0.00    +0.048 C 
ATOM      7  C   UNL     1      35.682 -21.307 -19.299  0.00  0.00    +0.152 C 
ATOM      8  C   UNL     1      36.384 -19.619 -21.005  0.00  0.00    +0.232 C 
ATOM      9  H   UNL     1      34.912 -23.333 -17.181  0.00  0.00    +0.174 HD
ATOM     10  H   UNL     1      34.720 -20.786 -21.020  0.00  0.00    +0.156 HD
ENDROOT
BRANCH   5  11
ATOM     11  C   UNL     1      37.362 -22.299 -16.184  0.00  0.00    +0.037 C 
ATOM     12  C   UNL     1      36.710 -22.282 -14.823  0.00  0.00    +0.006 C 
ATOM     13  C   UNL     1      37.168 -23.583 -15.416  0.00  0.00    +0.006 C 
ENDBRANCH   5  11
BRANCH   8  14
ATOM     14  C   UNL     1      35.854 -19.073 -22.328  0.00  0.00    +0.112 C 
BRANCH  14  15
ATOM     15  C   UNL     1      35.268 -17.704 -22.227  0.00  0.00    -0.013 C 
ATOM     16  C   UNL     1      34.384 -15.712 -23.306  0.00  0.00    -0.000 C 
ATOM     17  C   UNL     1      34.936 -17.001 -23.385  0.00  0.00    -0.004 C 
ATOM     18  C   UNL     1      34.163 -15.129 -22.036  0.00  0.00    -0.000 C 
ATOM     19  C   UNL     1      35.051 -17.131 -20.978  0.00  0.00    -0.004 C 
ATOM     20  C   UNL     1      34.503 -15.852 -20.881  0.00  0.00    -0.000 C 
ATOM     21  C   UNL     1      34.045 -14.989 -24.462  0.00  0.00    -0.000 C 
ATOM     22  C   UNL     1      33.610 -13.840 -21.958  0.00  0.00    -0.000 C 
ATOM     23  C   UNL     1      33.497 -13.709 -24.366  0.00  0.00    -0.000 C 
ATOM     24  C   UNL     1      33.280 -13.136 -23.116  0.00  0.00    -0.000 C 
ENDBRANCH  14  15
ENDBRANCH   8  14
TORSDOF 3
ENDMDL
MODEL 8
REMARK VINA RESULT:     -10.4      2.247      8.322
REMARK  Name = 449087
REMARK  3 active torsions:
REMARK  status: ('A' for Active; 'I' for Inactive)
REMARK    1  A    between atoms: C_5  and  C_11
REMARK    2  A    between atoms: C_8  and  C_14
REMARK    3  A    between atoms: C_14  and  C_15
REMARK                            x       y       z     vdW  Elec       q    Type
REMARK                         _______ _______ _______ _____ _____    ______ ____
ROOT
ATOM      1  O   UNL     1      34.928 -18.307 -20.514  0.00  0.00    -0.274 OA
ATOM      2  N   UNL     1      34.800 -15.422 -24.450  0.00  0.00    -0.239 N 
ATOM      3  N   UNL     1      34.975 -16.752 -24.526  0.00  0.00    -0.166 NA
ATOM      4  N   UNL     1      35.089 -18.451 -22.853  0.00  0.00    -0.268 N 
ATOM      5  C   UNL     1      34.663 -14.956 -23.176  0.00  0.00    +0.045 C 
ATOM      6  C   UNL     1      34.753 -16.057 -22.361  0.00  0.00    +0.048 C 
ATOM      7  C   UNL     1      34.944 -17.117 -23.252  0.00  0.00    +0.152 C 
ATOM      8  C   UNL     1      35.072 -18.945 -21.551  0.00  0.00    +0.232 C 
ATOM      9  H   UNL     1      34.773 -14.837 -25.242  0.00  0.00    +0.174 HD
ATOM     10  H   UNL     1      35.217 -19.113 -23.571  0.00  0.00    +0.156 HD
ENDROOT
BRANCH   5  11
ATOM     11  C   UNL     1      34.451 -13.509 -22.753  0.00  0.00    +0.037 C 
ATOM     12  C   UNL     1      33.819 -12.543 -23.725  0.00  0.00    +0.006 C 
ATOM     13  C   UNL     1      33.047 -13.007 -22.524  0.00  0.00    +0.006 C 
ENDBRANCH   5  11
BRANCH   8  14
ATOM     14  C   UNL     1      35.262 -20.460 -21.543  0.00  0.00    +0.112 C 
BRANCH  14  15
ATOM     15  C   UNL     1      35.344 -21.053 -20.176  0.00  0.00    -0.013 C 
ATOM     16  C   UNL     1      34.264 -22.155 -18.296  0.00  0.00    -0.000 C 
ATOM     17  C   UNL     1      34.203 -21.594 -19.582  0.00  0.00    -0.004 C 
ATOM     18  C   UNL     1      35.498 -22.170 -17.605  0.00  0.00    -0.000 C 
ATOM     19  C   UNL     1      36.558 -21.068 -19.496  0.00  0.00    -0.004 C 
ATOM     20  C   UNL     1      36.636 -21.622 -18.219  0.00  0.00    -0.000 C 
ATOM     21  C   UNL     1      33.125 -22.703 -17.682  0.00  0.00    -0.000 C 
ATOM     22  C   UNL     1      35.558 -22.733 -16.319  0.00  0.00    -0.000 C 
ATOM     23  C   UNL     1      33.203 -23.257 -16.404  0.00  0.00    -0.000 C 
ATOM     24  C   UNL     1      34.417 -23.272 -15.724  0.00  0.00    -0.000 C 
ENDBRANCH  14  15
ENDBRANCH   8  14
TORSDOF 3
ENDMDL
MODEL 9
REMARK VINA RESULT:     -10.3      3.772      6.517
REMARK  Name = 449087
REMARK  3 active torsions:
REMARK  status: ('A' for Active; 'I' for Inactive)
REMARK    1  A    between atoms: C_5  and  C_11
REMARK    2  A    between atoms: C_8  and  C_14
REMARK    3  A    between atoms: C_14  and  C_15
REMARK                            x       y       z     vdW  Elec       q    Type
REMARK                         _______ _______ _______ _____ _____    ______ ____
ROOT
ATOM      1  O   UNL     1      34.381 -22.411 -15.309  0.00  0.00    -0.274 OA
ATOM      2  N   UNL     1      36.548 -26.491 -13.729  0.00  0.00    -0.239 N 
ATOM      3  N   UNL     1      36.051 -26.363 -14.971  0.00  0.00    -0.166 NA
ATOM      4  N   UNL     1      34.946 -24.558 -16.076  0.00  0.00    -0.268 N 
ATOM      5  C   UNL     1      36.390 -25.379 -12.955  0.00  0.00    +0.045 C 
ATOM      6  C   UNL     1      35.746 -24.459 -13.745  0.00  0.00    +0.048 C 
ATOM      7  C   UNL     1      35.570 -25.127 -14.959  0.00  0.00    +0.152 C 
ATOM      8  C   UNL     1      34.409 -23.277 -16.176  0.00  0.00    +0.232 C 
ATOM      9  H   UNL     1      36.986 -27.312 -13.407  0.00  0.00    +0.174 HD
ATOM     10  H   UNL     1      34.881 -25.125 -16.879  0.00  0.00    +0.156 HD
ENDROOT
BRANCH   5  11
ATOM     11  C   UNL     1      36.842 -25.202 -11.511  0.00  0.00    +0.037 C 
ATOM     12  C   UNL     1      38.040 -24.334 -11.216  0.00  0.00    +0.006 C 
ATOM     13  C   UNL     1      36.665 -23.861 -10.844  0.00  0.00    +0.006 C 
ENDBRANCH   5  11
BRANCH   8  14
ATOM     14  C   UNL     1      33.821 -23.043 -17.565  0.00  0.00    +0.112 C 
BRANCH  14  15
ATOM     15  C   UNL     1      34.638 -22.137 -18.424  0.00  0.00    -0.013 C 
ATOM     16  C   UNL     1      34.783 -20.537 -20.250  0.00  0.00    -0.000 C 
ATOM     17  C   UNL     1      34.027 -21.394 -19.434  0.00  0.00    -0.004 C 
ATOM     18  C   UNL     1      36.178 -20.430 -20.038  0.00  0.00    -0.000 C 
ATOM     19  C   UNL     1      36.010 -22.032 -18.215  0.00  0.00    -0.004 C 
ATOM     20  C   UNL     1      36.776 -21.185 -19.016  0.00  0.00    -0.000 C 
ATOM     21  C   UNL     1      34.184 -19.782 -21.273  0.00  0.00    -0.000 C 
ATOM     22  C   UNL     1      36.933 -19.573 -20.855  0.00  0.00    -0.000 C 
ATOM     23  C   UNL     1      34.950 -18.936 -22.074  0.00  0.00    -0.000 C 
ATOM     24  C   UNL     1      36.322 -18.831 -21.866  0.00  0.00    -0.000 C 
ENDBRANCH  14  15
ENDBRANCH   8  14
TORSDOF 3
ENDMDL
