MODEL 1
REMARK VINA RESULT:     -11.5      0.000      0.000
REMARK  Name = 24995524
REMARK  4 active torsions:
REMARK  status: ('A' for Active; 'I' for Inactive)
REMARK    1  A    between atoms: N_5  and  C_13
REMARK    2  A    between atoms: C_6  and  C_19
REMARK    3  A    between atoms: C_19  and  C_20
REMARK    4  A    between atoms: C_20  and  N_22
REMARK                            x       y       z     vdW  Elec       q    Type
REMARK                         _______ _______ _______ _____ _____    ______ ____
ROOT
ATOM      1  S   UNL     1      36.374 -20.998 -19.516  0.00  0.00    -0.056 S 
ATOM      2  O   UNL     1      34.730 -23.567 -15.982  0.00  0.00    -0.252 OA
ATOM      3  N   UNL     1      34.215 -21.921 -18.437  0.00  0.00    -0.223 NA
ATOM      4  N   UNL     1      36.295 -22.487 -17.362  0.00  0.00    -0.248 N 
ATOM      5  N   UNL     1      37.015 -23.704 -15.503  0.00  0.00    -0.268 N 
ATOM      6  C   UNL     1      34.877 -20.612 -20.260  0.00  0.00    +0.031 C 
ATOM      7  C   UNL     1      33.845 -21.187 -19.548  0.00  0.00    +0.103 C 
ATOM      8  C   UNL     1      35.524 -21.891 -18.323  0.00  0.00    +0.166 C 
ATOM      9  C   UNL     1      35.896 -23.289 -16.243  0.00  0.00    +0.310 C 
ATOM     10  H   UNL     1      37.265 -22.344 -17.452  0.00  0.00    +0.158 HD
ATOM     11  H   UNL     1      37.890 -23.400 -15.838  0.00  0.00    +0.156 HD
ENDROOT
BRANCH   5  13
ATOM     12 CL   UNL     1      36.318 -24.051 -10.428  0.00  0.00    -0.082 Cl
ATOM     13  C   UNL     1      37.040 -24.503 -14.337  0.00  0.00    +0.052 C 
ATOM     14  C   UNL     1      36.705 -23.947 -13.102  0.00  0.00    +0.026 C 
ATOM     15  C   UNL     1      37.399 -25.849 -14.422  0.00  0.00    +0.015 C 
ATOM     16  C   UNL     1      36.731 -24.738 -11.952  0.00  0.00    +0.059 C 
ATOM     17  C   UNL     1      37.425 -26.638 -13.272  0.00  0.00    +0.002 C 
ATOM     18  C   UNL     1      37.090 -26.082 -12.038  0.00  0.00    +0.011 C 
ENDBRANCH   5  13
BRANCH   6  19
ATOM     19  C   UNL     1      34.835 -19.758 -21.503  0.00  0.00    +0.056 C 
BRANCH  19  20
ATOM     20  C   UNL     1      35.853 -18.619 -21.483  0.00  0.00    +0.093 C 
BRANCH  20  22
ATOM     21  S   UNL     1      33.732 -14.499 -21.233  0.00  0.00    -0.101 S 
ATOM     22  N   UNL     1      35.198 -17.346 -21.475  0.00  0.00    -0.320 N 
ATOM     23  N   UNL     1      35.139 -17.199 -23.849  0.00  0.00    -0.233 NA
ATOM     24  N   UNL     1      34.174 -15.305 -25.007  0.00  0.00    -0.247 NA
ATOM     25  C   UNL     1      34.850 -16.654 -22.650  0.00  0.00    +0.118 C 
ATOM     26  C   UNL     1      34.214 -15.420 -22.598  0.00  0.00    +0.145 C 
ATOM     27  C   UNL     1      33.890 -14.770 -23.789  0.00  0.00    +0.073 C 
ATOM     28  C   UNL     1      33.245 -13.519 -23.555  0.00  0.00    +0.022 C 
ATOM     29  C   UNL     1      33.097 -13.252 -22.213  0.00  0.00    +0.033 C 
ATOM     30  C   UNL     1      34.787 -16.498 -24.943  0.00  0.00    +0.251 C 
ATOM     31  H   UNL     1      34.981 -16.935 -20.606  0.00  0.00    +0.148 HD
ENDBRANCH  20  22
ENDBRANCH  19  20
ENDBRANCH   6  19
TORSDOF 4
ENDMDL
MODEL 2
REMARK VINA RESULT:     -11.4      1.523      1.950
REMARK  Name = 24995524
REMARK  4 active torsions:
REMARK  status: ('A' for Active; 'I' for Inactive)
REMARK    1  A    between atoms: N_5  and  C_13
REMARK    2  A    between atoms: C_6  and  C_19
REMARK    3  A    between atoms: C_19  and  C_20
REMARK    4  A    between atoms: C_20  and  N_22
REMARK                            x       y       z     vdW  Elec       q    Type
REMARK                         _______ _______ _______ _____ _____    ______ ____
ROOT
ATOM      1  S   UNL     1      34.444 -21.444 -19.539  0.00  0.00    -0.056 S 
ATOM      2  O   UNL     1      37.461 -22.697 -16.203  0.00  0.00    -0.252 OA
ATOM      3  N   UNL     1      36.855 -21.104 -18.672  0.00  0.00    -0.223 NA
ATOM      4  N   UNL     1      35.453 -22.610 -17.420  0.00  0.00    -0.248 N 
ATOM      5  N   UNL     1      35.614 -23.961 -15.521  0.00  0.00    -0.268 N 
ATOM      6  C   UNL     1      35.466 -20.377 -20.409  0.00  0.00    +0.031 C 
ATOM      7  C   UNL     1      36.704 -20.324 -19.803  0.00  0.00    +0.103 C 
ATOM      8  C   UNL     1      35.727 -21.738 -18.439  0.00  0.00    +0.166 C 
ATOM      9  C   UNL     1      36.299 -23.059 -16.354  0.00  0.00    +0.310 C 
ATOM     10  H   UNL     1      34.542 -22.982 -17.419  0.00  0.00    +0.158 HD
ATOM     11  H   UNL     1      34.682 -24.155 -15.771  0.00  0.00    +0.156 HD
ENDROOT
BRANCH   5  13
ATOM     12 CL   UNL     1      35.739 -24.289 -10.399  0.00  0.00    -0.082 Cl
ATOM     13  C   UNL     1      36.100 -24.621 -14.369  0.00  0.00    +0.052 C 
ATOM     14  C   UNL     1      35.723 -24.181 -13.101  0.00  0.00    +0.026 C 
ATOM     15  C   UNL     1      36.957 -25.715 -14.502  0.00  0.00    +0.015 C 
ATOM     16  C   UNL     1      36.203 -24.833 -11.965  0.00  0.00    +0.059 C 
ATOM     17  C   UNL     1      37.437 -26.366 -13.366  0.00  0.00    +0.002 C 
ATOM     18  C   UNL     1      37.060 -25.926 -12.098  0.00  0.00    +0.011 C 
ENDBRANCH   5  13
BRANCH   6  19
ATOM     19  C   UNL     1      34.963 -19.667 -21.642  0.00  0.00    +0.056 C 
BRANCH  19  20
ATOM     20  C   UNL     1      36.034 -18.814 -22.321  0.00  0.00    +0.093 C 
BRANCH  20  22
ATOM     21  S   UNL     1      34.157 -15.674 -25.177  0.00  0.00    -0.101 S 
ATOM     22  N   UNL     1      35.439 -17.807 -23.148  0.00  0.00    -0.320 N 
ATOM     23  N   UNL     1      34.856 -16.429 -21.297  0.00  0.00    -0.233 NA
ATOM     24  N   UNL     1      33.717 -14.311 -21.566  0.00  0.00    -0.247 NA
ATOM     25  C   UNL     1      34.860 -16.633 -22.629  0.00  0.00    +0.118 C 
ATOM     26  C   UNL     1      34.293 -15.679 -23.466  0.00  0.00    +0.145 C 
ATOM     27  C   UNL     1      33.730 -14.532 -22.908  0.00  0.00    +0.073 C 
ATOM     28  C   UNL     1      33.195 -13.662 -23.905  0.00  0.00    +0.022 C 
ATOM     29  C   UNL     1      33.360 -14.162 -25.177  0.00  0.00    +0.033 C 
ATOM     30  C   UNL     1      34.290 -15.293 -20.851  0.00  0.00    +0.251 C 
ATOM     31  H   UNL     1      35.434 -17.942 -24.123  0.00  0.00    +0.148 HD
ENDBRANCH  20  22
ENDBRANCH  19  20
ENDBRANCH   6  19
TORSDOF 4
ENDMDL
MODEL 3
REMARK VINA RESULT:     -11.3      3.238      3.744
REMARK  Name = 24995524
REMARK  4 active torsions:
REMARK  status: ('A' for Active; 'I' for Inactive)
REMARK    1  A    between atoms: N_5  and  C_13
REMARK    2  A    between atoms: C_6  and  C_19
REMARK    3  A    between atoms: C_19  and  C_20
REMARK    4  A    between atoms: C_20  and  N_22
REMARK                            x       y       z     vdW  Elec       q    Type
REMARK                         _______ _______ _______ _____ _____    ______ ____
ROOT
ATOM      1  S   UNL     1      33.268 -20.258 -20.596  0.00  0.00    -0.056 S 
ATOM      2  O   UNL     1      34.181 -23.030 -16.952  0.00  0.00    -0.252 OA
ATOM      3  N   UNL     1      35.160 -21.478 -19.327  0.00  0.00    -0.223 NA
ATOM      4  N   UNL     1      32.927 -21.739 -18.462  0.00  0.00    -0.248 N 
ATOM      5  N   UNL     1      31.864 -22.839 -16.696  0.00  0.00    -0.268 N 
ATOM      6  C   UNL     1      34.869 -20.091 -21.188  0.00  0.00    +0.031 C 
ATOM      7  C   UNL     1      35.735 -20.808 -20.389  0.00  0.00    +0.103 C 
ATOM      8  C   UNL     1      33.863 -21.260 -19.337  0.00  0.00    +0.166 C 
ATOM      9  C   UNL     1      33.098 -22.589 -17.320  0.00  0.00    +0.310 C 
ATOM     10  H   UNL     1      32.000 -21.458 -18.642  0.00  0.00    +0.158 HD
ATOM     11  H   UNL     1      31.078 -22.413 -17.109  0.00  0.00    +0.156 HD
ENDROOT
BRANCH   5  13
ATOM     12 CL   UNL     1      28.701 -25.995 -14.167  0.00  0.00    -0.082 Cl
ATOM     13  C   UNL     1      31.614 -23.625 -15.548  0.00  0.00    +0.052 C 
ATOM     14  C   UNL     1      30.421 -24.339 -15.438  0.00  0.00    +0.026 C 
ATOM     15  C   UNL     1      32.561 -23.687 -14.525  0.00  0.00    +0.015 C 
ATOM     16  C   UNL     1      30.175 -25.114 -14.304  0.00  0.00    +0.059 C 
ATOM     17  C   UNL     1      32.314 -24.461 -13.392  0.00  0.00    +0.002 C 
ATOM     18  C   UNL     1      31.121 -25.175 -13.282  0.00  0.00    +0.011 C 
ENDBRANCH   5  13
BRANCH   6  19
ATOM     19  C   UNL     1      35.152 -19.257 -22.414  0.00  0.00    +0.056 C 
BRANCH  19  20
ATOM     20  C   UNL     1      35.984 -18.012 -22.112  0.00  0.00    +0.093 C 
BRANCH  20  22
ATOM     21  S   UNL     1      33.338 -14.644 -20.323  0.00  0.00    -0.101 S 
ATOM     22  N   UNL     1      35.157 -16.949 -21.624  0.00  0.00    -0.320 N 
ATOM     23  N   UNL     1      34.757 -16.069 -23.798  0.00  0.00    -0.233 NA
ATOM     24  N   UNL     1      33.378 -14.115 -24.172  0.00  0.00    -0.247 NA
ATOM     25  C   UNL     1      34.557 -15.996 -22.467  0.00  0.00    +0.118 C 
ATOM     26  C   UNL     1      33.760 -14.979 -21.953  0.00  0.00    +0.145 C 
ATOM     27  C   UNL     1      33.186 -14.056 -22.826  0.00  0.00    +0.073 C 
ATOM     28  C   UNL     1      32.403 -13.083 -22.135  0.00  0.00    +0.022 C 
ATOM     29  C   UNL     1      32.402 -13.288 -20.773  0.00  0.00    +0.033 C 
ATOM     30  C   UNL     1      34.162 -15.134 -24.561  0.00  0.00    +0.251 C 
ATOM     31  H   UNL     1      35.003 -16.882 -20.654  0.00  0.00    +0.148 HD
ENDBRANCH  20  22
ENDBRANCH  19  20
ENDBRANCH   6  19
TORSDOF 4
ENDMDL
MODEL 4
REMARK VINA RESULT:     -11.1      1.656      1.962
REMARK  Name = 24995524
REMARK  4 active torsions:
REMARK  status: ('A' for Active; 'I' for Inactive)
REMARK    1  A    between atoms: N_5  and  C_13
REMARK    2  A    between atoms: C_6  and  C_19
REMARK    3  A    between atoms: C_19  and  C_20
REMARK    4  A    between atoms: C_20  and  N_22
REMARK                            x       y       z     vdW  Elec       q    Type
REMARK                         _______ _______ _______ _____ _____    ______ ____
ROOT
ATOM      1  S   UNL     1      34.799 -21.402 -19.821  0.00  0.00    -0.056 S 
ATOM      2  O   UNL     1      37.987 -21.902 -16.447  0.00  0.00    -0.252 OA
ATOM      3  N   UNL     1      37.095 -20.565 -18.981  0.00  0.00    -0.223 NA
ATOM      4  N   UNL     1      36.005 -22.258 -17.658  0.00  0.00    -0.248 N 
ATOM      5  N   UNL     1      36.416 -23.468 -15.703  0.00  0.00    -0.268 N 
ATOM      6  C   UNL     1      35.600 -20.197 -20.742  0.00  0.00    +0.031 C 
ATOM      7  C   UNL     1      36.801 -19.880 -20.144  0.00  0.00    +0.103 C 
ATOM      8  C   UNL     1      36.110 -21.395 -18.715  0.00  0.00    +0.166 C 
ATOM      9  C   UNL     1      36.917 -22.489 -16.577  0.00  0.00    +0.310 C 
ATOM     10  H   UNL     1      35.183 -22.799 -17.637  0.00  0.00    +0.158 HD
ATOM     11  H   UNL     1      35.540 -23.850 -15.940  0.00  0.00    +0.156 HD
ENDROOT
BRANCH   5  13
ATOM     12 CL   UNL     1      40.293 -26.038 -13.528  0.00  0.00    -0.082 Cl
ATOM     13  C   UNL     1      37.016 -23.972 -14.525  0.00  0.00    +0.052 C 
ATOM     14  C   UNL     1      38.219 -24.673 -14.599  0.00  0.00    +0.026 C 
ATOM     15  C   UNL     1      36.403 -23.766 -13.288  0.00  0.00    +0.015 C 
ATOM     16  C   UNL     1      38.808 -25.170 -13.436  0.00  0.00    +0.059 C 
ATOM     17  C   UNL     1      36.992 -24.263 -12.127  0.00  0.00    +0.002 C 
ATOM     18  C   UNL     1      38.195 -24.965 -12.201  0.00  0.00    +0.011 C 
ENDBRANCH   5  13
BRANCH   6  19
ATOM     19  C   UNL     1      34.974 -19.652 -22.003  0.00  0.00    +0.056 C 
BRANCH  19  20
ATOM     20  C   UNL     1      35.714 -18.437 -22.562  0.00  0.00    +0.093 C 
BRANCH  20  22
ATOM     21  S   UNL     1      33.771 -14.551 -20.930  0.00  0.00    -0.101 S 
ATOM     22  N   UNL     1      35.103 -17.218 -22.123  0.00  0.00    -0.320 N 
ATOM     23  N   UNL     1      34.673 -16.468 -24.340  0.00  0.00    -0.233 NA
ATOM     24  N   UNL     1      33.589 -14.355 -24.806  0.00  0.00    -0.247 NA
ATOM     25  C   UNL     1      34.593 -16.254 -23.012  0.00  0.00    +0.118 C 
ATOM     26  C   UNL     1      34.007 -15.083 -22.545  0.00  0.00    +0.145 C 
ATOM     27  C   UNL     1      33.516 -14.154 -23.463  0.00  0.00    +0.073 C 
ATOM     28  C   UNL     1      32.950 -13.015 -22.817  0.00  0.00    +0.022 C 
ATOM     29  C   UNL     1      33.024 -13.103 -21.445  0.00  0.00    +0.033 C 
ATOM     30  C   UNL     1      34.172 -15.515 -25.148  0.00  0.00    +0.251 C 
ATOM     31  H   UNL     1      35.037 -17.047 -21.156  0.00  0.00    +0.148 HD
ENDBRANCH  20  22
ENDBRANCH  19  20
ENDBRANCH   6  19
TORSDOF 4
ENDMDL
MODEL 5
REMARK VINA RESULT:     -11.0      3.532      4.315
REMARK  Name = 24995524
REMARK  4 active torsions:
REMARK  status: ('A' for Active; 'I' for Inactive)
REMARK    1  A    between atoms: N_5  and  C_13
REMARK    2  A    between atoms: C_6  and  C_19
REMARK    3  A    between atoms: C_19  and  C_20
REMARK    4  A    between atoms: C_20  and  N_22
REMARK                            x       y       z     vdW  Elec       q    Type
REMARK                         _______ _______ _______ _____ _____    ______ ____
ROOT
ATOM      1  S   UNL     1      33.943 -20.184 -20.349  0.00  0.00    -0.056 S 
ATOM      2  O   UNL     1      33.559 -23.376 -16.964  0.00  0.00    -0.252 OA
ATOM      3  N   UNL     1      35.262 -21.918 -18.958  0.00  0.00    -0.223 NA
ATOM      4  N   UNL     1      32.909 -21.707 -18.484  0.00  0.00    -0.248 N 
ATOM      5  N   UNL     1      31.334 -22.660 -17.047  0.00  0.00    -0.268 N 
ATOM      6  C   UNL     1      35.620 -20.357 -20.663  0.00  0.00    +0.031 C 
ATOM      7  C   UNL     1      36.150 -21.321 -19.832  0.00  0.00    +0.103 C 
ATOM      8  C   UNL     1      34.069 -21.396 -19.141  0.00  0.00    +0.166 C 
ATOM      9  C   UNL     1      32.683 -22.662 -17.439  0.00  0.00    +0.310 C 
ATOM     10  H   UNL     1      32.115 -21.200 -18.769  0.00  0.00    +0.158 HD
ATOM     11  H   UNL     1      30.748 -22.028 -17.522  0.00  0.00    +0.156 HD
ENDROOT
BRANCH   5  13
ATOM     12 CL   UNL     1      31.806 -25.436 -12.754  0.00  0.00    -0.082 Cl
ATOM     13  C   UNL     1      30.716 -23.453 -16.052  0.00  0.00    +0.052 C 
ATOM     14  C   UNL     1      31.478 -23.989 -15.014  0.00  0.00    +0.026 C 
ATOM     15  C   UNL     1      29.344 -23.700 -16.111  0.00  0.00    +0.015 C 
ATOM     16  C   UNL     1      30.866 -24.773 -14.035  0.00  0.00    +0.059 C 
ATOM     17  C   UNL     1      28.734 -24.483 -15.132  0.00  0.00    +0.002 C 
ATOM     18  C   UNL     1      29.495 -25.019 -14.094  0.00  0.00    +0.011 C 
ENDBRANCH   5  13
BRANCH   6  19
ATOM     19  C   UNL     1      36.294 -19.518 -21.723  0.00  0.00    +0.056 C 
BRANCH  19  20
ATOM     20  C   UNL     1      36.197 -18.018 -21.450  0.00  0.00    +0.093 C 
BRANCH  20  22
ATOM     21  S   UNL     1      34.471 -15.936 -25.222  0.00  0.00    -0.101 S 
ATOM     22  N   UNL     1      35.636 -17.328 -22.573  0.00  0.00    -0.320 N 
ATOM     23  N   UNL     1      34.608 -15.663 -21.220  0.00  0.00    -0.233 NA
ATOM     24  N   UNL     1      33.298 -13.857 -22.157  0.00  0.00    -0.247 NA
ATOM     25  C   UNL     1      34.853 -16.166 -22.446  0.00  0.00    +0.118 C 
ATOM     26  C   UNL     1      34.326 -15.526 -23.562  0.00  0.00    +0.145 C 
ATOM     27  C   UNL     1      33.555 -14.378 -23.387  0.00  0.00    +0.073 C 
ATOM     28  C   UNL     1      33.094 -13.851 -24.631  0.00  0.00    +0.022 C 
ATOM     29  C   UNL     1      33.521 -14.601 -25.704  0.00  0.00    +0.033 C 
ATOM     30  C   UNL     1      33.853 -14.551 -21.150  0.00  0.00    +0.251 C 
ATOM     31  H   UNL     1      35.805 -17.684 -23.475  0.00  0.00    +0.148 HD
ENDBRANCH  20  22
ENDBRANCH  19  20
ENDBRANCH   6  19
TORSDOF 4
ENDMDL
MODEL 6
REMARK VINA RESULT:     -11.0      4.413     11.232
REMARK  Name = 24995524
REMARK  4 active torsions:
REMARK  status: ('A' for Active; 'I' for Inactive)
REMARK    1  A    between atoms: N_5  and  C_13
REMARK    2  A    between atoms: C_6  and  C_19
REMARK    3  A    between atoms: C_19  and  C_20
REMARK    4  A    between atoms: C_20  and  N_22
REMARK                            x       y       z     vdW  Elec       q    Type
REMARK                         _______ _______ _______ _____ _____    ______ ____
ROOT
ATOM      1  S   UNL     1      34.103 -23.291 -16.384  0.00  0.00    -0.056 S 
ATOM      2  O   UNL     1      32.537 -20.601 -19.864  0.00  0.00    -0.252 OA
ATOM      3  N   UNL     1      31.966 -22.366 -17.506  0.00  0.00    -0.223 NA
ATOM      4  N   UNL     1      34.072 -21.708 -18.472  0.00  0.00    -0.248 N 
ATOM      5  N   UNL     1      34.836 -20.393 -20.245  0.00  0.00    -0.268 N 
ATOM      6  C   UNL     1      32.588 -23.742 -15.719  0.00  0.00    +0.031 C 
ATOM      7  C   UNL     1      31.571 -23.157 -16.444  0.00  0.00    +0.103 C 
ATOM      8  C   UNL     1      33.279 -22.363 -17.569  0.00  0.00    +0.166 C 
ATOM      9  C   UNL     1      33.698 -20.864 -19.569  0.00  0.00    +0.310 C 
ATOM     10  H   UNL     1      35.041 -21.834 -18.350  0.00  0.00    +0.158 HD
ATOM     11  H   UNL     1      35.704 -20.692 -19.890  0.00  0.00    +0.156 HD
ENDROOT
BRANCH   5  13
ATOM     12 CL   UNL     1      34.994 -15.609 -22.104  0.00  0.00    -0.082 Cl
ATOM     13  C   UNL     1      34.887 -19.541 -21.373  0.00  0.00    +0.052 C 
ATOM     14  C   UNL     1      34.913 -18.157 -21.201  0.00  0.00    +0.026 C 
ATOM     15  C   UNL     1      34.910 -20.086 -22.657  0.00  0.00    +0.015 C 
ATOM     16  C   UNL     1      34.962 -17.318 -22.315  0.00  0.00    +0.059 C 
ATOM     17  C   UNL     1      34.959 -19.247 -23.770  0.00  0.00    +0.002 C 
ATOM     18  C   UNL     1      34.986 -17.863 -23.598  0.00  0.00    +0.011 C 
ENDBRANCH   5  13
BRANCH   6  19
ATOM     19  C   UNL     1      32.517 -24.652 -14.517  0.00  0.00    +0.056 C 
BRANCH  19  20
ATOM     20  C   UNL     1      33.541 -24.301 -13.438  0.00  0.00    +0.093 C 
BRANCH  20  22
ATOM     21  S   UNL     1      37.565 -26.340 -14.529  0.00  0.00    -0.101 S 
ATOM     22  N   UNL     1      34.814 -24.890 -13.728  0.00  0.00    -0.320 N 
ATOM     23  N   UNL     1      35.964 -23.529 -12.151  0.00  0.00    -0.233 NA
ATOM     24  N   UNL     1      38.352 -23.700 -11.790  0.00  0.00    -0.247 NA
ATOM     25  C   UNL     1      36.003 -24.500 -13.086  0.00  0.00    +0.118 C 
ATOM     26  C   UNL     1      37.219 -25.098 -13.397  0.00  0.00    +0.145 C 
ATOM     27  C   UNL     1      38.373 -24.678 -12.735  0.00  0.00    +0.073 C 
ATOM     28  C   UNL     1      39.528 -25.392 -13.173  0.00  0.00    +0.022 C 
ATOM     29  C   UNL     1      39.229 -26.323 -14.143  0.00  0.00    +0.033 C 
ATOM     30  C   UNL     1      37.128 -23.192 -11.567  0.00  0.00    +0.251 C 
ATOM     31  H   UNL     1      34.858 -25.600 -14.409  0.00  0.00    +0.148 HD
ENDBRANCH  20  22
ENDBRANCH  19  20
ENDBRANCH   6  19
TORSDOF 4
ENDMDL
MODEL 7
REMARK VINA RESULT:     -11.0      4.754     11.877
REMARK  Name = 24995524
REMARK  4 active torsions:
REMARK  status: ('A' for Active; 'I' for Inactive)
REMARK    1  A    between atoms: N_5  and  C_13
REMARK    2  A    between atoms: C_6  and  C_19
REMARK    3  A    between atoms: C_19  and  C_20
REMARK    4  A    between atoms: C_20  and  N_22
REMARK                            x       y       z     vdW  Elec       q    Type
REMARK                         _______ _______ _______ _____ _____    ______ ____
ROOT
ATOM      1  S   UNL     1      34.560 -19.853 -20.858  0.00  0.00    -0.056 S 
ATOM      2  O   UNL     1      36.106 -16.070 -23.114  0.00  0.00    -0.252 OA
ATOM      3  N   UNL     1      36.680 -18.496 -21.445  0.00  0.00    -0.223 NA
ATOM      4  N   UNL     1      34.585 -17.659 -22.291  0.00  0.00    -0.248 N 
ATOM      5  N   UNL     1      33.822 -15.863 -23.574  0.00  0.00    -0.268 N 
ATOM      6  C   UNL     1      36.066 -20.424 -20.270  0.00  0.00    +0.031 C 
ATOM      7  C   UNL     1      37.074 -19.577 -20.680  0.00  0.00    +0.103 C 
ATOM      8  C   UNL     1      35.375 -18.540 -21.603  0.00  0.00    +0.166 C 
ATOM      9  C   UNL     1      34.954 -16.477 -23.012  0.00  0.00    +0.310 C 
ATOM     10  H   UNL     1      33.623 -17.869 -22.292  0.00  0.00    +0.158 HD
ATOM     11  H   UNL     1      32.961 -16.309 -23.405  0.00  0.00    +0.156 HD
ENDROOT
BRANCH   5  13
ATOM     12 CL   UNL     1      34.274 -10.753 -23.803  0.00  0.00    -0.082 Cl
ATOM     13  C   UNL     1      33.769 -14.684 -24.353  0.00  0.00    +0.052 C 
ATOM     14  C   UNL     1      34.020 -13.445 -23.762  0.00  0.00    +0.026 C 
ATOM     15  C   UNL     1      33.465 -14.760 -25.713  0.00  0.00    +0.015 C 
ATOM     16  C   UNL     1      33.965 -12.283 -24.532  0.00  0.00    +0.059 C 
ATOM     17  C   UNL     1      33.411 -13.598 -26.481  0.00  0.00    +0.002 C 
ATOM     18  C   UNL     1      33.662 -12.359 -25.891  0.00  0.00    +0.011 C 
ENDBRANCH   5  13
BRANCH   6  19
ATOM     19  C   UNL     1      36.139 -21.680 -19.436  0.00  0.00    +0.056 C 
BRANCH  19  20
ATOM     20  C   UNL     1      34.771 -22.158 -18.952  0.00  0.00    +0.093 C 
BRANCH  20  22
ATOM     21  S   UNL     1      35.271 -23.935 -14.694  0.00  0.00    -0.101 S 
ATOM     22  N   UNL     1      34.856 -22.704 -17.631  0.00  0.00    -0.320 N 
ATOM     23  N   UNL     1      32.501 -22.646 -17.298  0.00  0.00    -0.233 NA
ATOM     24  N   UNL     1      31.463 -23.397 -15.245  0.00  0.00    -0.247 NA
ATOM     25  C   UNL     1      33.728 -22.940 -16.824  0.00  0.00    +0.118 C 
ATOM     26  C   UNL     1      33.855 -23.472 -15.546  0.00  0.00    +0.145 C 
ATOM     27  C   UNL     1      32.708 -23.689 -14.782  0.00  0.00    +0.073 C 
ATOM     28  C   UNL     1      33.017 -24.236 -13.501  0.00  0.00    +0.022 C 
ATOM     29  C   UNL     1      34.370 -24.419 -13.325  0.00  0.00    +0.033 C 
ATOM     30  C   UNL     1      31.454 -22.890 -16.489  0.00  0.00    +0.251 C 
ATOM     31  H   UNL     1      35.746 -22.923 -17.270  0.00  0.00    +0.148 HD
ENDBRANCH  20  22
ENDBRANCH  19  20
ENDBRANCH   6  19
TORSDOF 4
ENDMDL
MODEL 8
REMARK VINA RESULT:     -10.6      4.672      7.786
REMARK  Name = 24995524
REMARK  4 active torsions:
REMARK  status: ('A' for Active; 'I' for Inactive)
REMARK    1  A    between atoms: N_5  and  C_13
REMARK    2  A    between atoms: C_6  and  C_19
REMARK    3  A    between atoms: C_19  and  C_20
REMARK    4  A    between atoms: C_20  and  N_22
REMARK                            x       y       z     vdW  Elec       q    Type
REMARK                         _______ _______ _______ _____ _____    ______ ____
ROOT
ATOM      1  S   UNL     1      34.113 -15.415 -24.572  0.00  0.00    -0.056 S 
ATOM      2  O   UNL     1      35.111 -17.150 -20.354  0.00  0.00    -0.252 OA
ATOM      3  N   UNL     1      34.624 -14.774 -22.121  0.00  0.00    -0.223 NA
ATOM      4  N   UNL     1      34.606 -17.125 -22.648  0.00  0.00    -0.248 N 
ATOM      5  N   UNL     1      34.934 -19.156 -21.543  0.00  0.00    -0.268 N 
ATOM      6  C   UNL     1      34.133 -13.749 -24.165  0.00  0.00    +0.031 C 
ATOM      7  C   UNL     1      34.421 -13.603 -22.825  0.00  0.00    +0.103 C 
ATOM      8  C   UNL     1      34.486 -15.793 -22.940  0.00  0.00    +0.166 C 
ATOM      9  C   UNL     1      34.907 -17.759 -21.398  0.00  0.00    +0.310 C 
ATOM     10  H   UNL     1      34.464 -17.736 -23.406  0.00  0.00    +0.158 HD
ATOM     11  H   UNL     1      34.750 -19.500 -22.447  0.00  0.00    +0.156 HD
ENDROOT
BRANCH   5  13
ATOM     12 CL   UNL     1      33.083 -22.517 -18.131  0.00  0.00    -0.082 Cl
ATOM     13  C   UNL     1      35.193 -20.129 -20.550  0.00  0.00    +0.052 C 
ATOM     14  C   UNL     1      34.133 -20.769 -19.907  0.00  0.00    +0.026 C 
ATOM     15  C   UNL     1      36.509 -20.448 -20.213  0.00  0.00    +0.015 C 
ATOM     16  C   UNL     1      34.391 -21.728 -18.926  0.00  0.00    +0.059 C 
ATOM     17  C   UNL     1      36.765 -21.406 -19.233  0.00  0.00    +0.002 C 
ATOM     18  C   UNL     1      35.706 -22.046 -18.590  0.00  0.00    +0.011 C 
ENDBRANCH   5  13
BRANCH   6  19
ATOM     19  C   UNL     1      33.861 -12.699 -25.215  0.00  0.00    +0.056 C 
BRANCH  19  20
ATOM     20  C   UNL     1      34.503 -11.350 -24.894  0.00  0.00    +0.093 C 
BRANCH  20  22
ATOM     21  S   UNL     1      31.921  -9.245 -21.663  0.00  0.00    -0.101 S 
ATOM     22  N   UNL     1      33.747 -10.645 -23.903  0.00  0.00    -0.320 N 
ATOM     23  N   UNL     1      35.104  -8.696 -24.047  0.00  0.00    -0.233 NA
ATOM     24  N   UNL     1      34.692  -6.727 -22.701  0.00  0.00    -0.247 NA
ATOM     25  C   UNL     1      34.054  -9.334 -23.494  0.00  0.00    +0.118 C 
ATOM     26  C   UNL     1      33.294  -8.685 -22.528  0.00  0.00    +0.145 C 
ATOM     27  C   UNL     1      33.636  -7.386 -22.152  0.00  0.00    +0.073 C 
ATOM     28  C   UNL     1      32.756  -6.871 -21.154  0.00  0.00    +0.022 C 
ATOM     29  C   UNL     1      31.782  -7.777 -20.800  0.00  0.00    +0.033 C 
ATOM     30  C   UNL     1      35.356  -7.444 -23.622  0.00  0.00    +0.251 C 
ATOM     31  H   UNL     1      32.977 -11.099 -23.489  0.00  0.00    +0.148 HD
ENDBRANCH  20  22
ENDBRANCH  19  20
ENDBRANCH   6  19
TORSDOF 4
ENDMDL
MODEL 9
REMARK VINA RESULT:     -10.6      1.859      2.309
REMARK  Name = 24995524
REMARK  4 active torsions:
REMARK  status: ('A' for Active; 'I' for Inactive)
REMARK    1  A    between atoms: N_5  and  C_13
REMARK    2  A    between atoms: C_6  and  C_19
REMARK    3  A    between atoms: C_19  and  C_20
REMARK    4  A    between atoms: C_20  and  N_22
REMARK                            x       y       z     vdW  Elec       q    Type
REMARK                         _______ _______ _______ _____ _____    ______ ____
ROOT
ATOM      1  S   UNL     1      36.385 -20.539 -20.119  0.00  0.00    -0.056 S 
ATOM      2  O   UNL     1      35.429 -23.033 -16.289  0.00  0.00    -0.252 OA
ATOM      3  N   UNL     1      34.473 -21.626 -18.761  0.00  0.00    -0.223 NA
ATOM      4  N   UNL     1      36.705 -21.879 -17.889  0.00  0.00    -0.248 N 
ATOM      5  N   UNL     1      37.751 -22.878 -16.056  0.00  0.00    -0.268 N 
ATOM      6  C   UNL     1      34.785 -20.376 -20.714  0.00  0.00    +0.031 C 
ATOM      7  C   UNL     1      33.908 -21.015 -19.863  0.00  0.00    +0.103 C 
ATOM      8  C   UNL     1      35.774 -21.440 -18.792  0.00  0.00    +0.166 C 
ATOM      9  C   UNL     1      36.520 -22.644 -16.691  0.00  0.00    +0.310 C 
ATOM     10  H   UNL     1      37.636 -21.634 -18.093  0.00  0.00    +0.158 HD
ATOM     11  H   UNL     1      38.545 -22.502 -16.501  0.00  0.00    +0.156 HD
ENDROOT
BRANCH   5  13
ATOM     12 CL   UNL     1      40.496 -26.420 -13.548  0.00  0.00    -0.082 Cl
ATOM     13  C   UNL     1      37.990 -23.589 -14.857  0.00  0.00    +0.052 C 
ATOM     14  C   UNL     1      39.007 -24.542 -14.801  0.00  0.00    +0.026 C 
ATOM     15  C   UNL     1      37.207 -23.338 -13.730  0.00  0.00    +0.015 C 
ATOM     16  C   UNL     1      39.241 -25.243 -13.617  0.00  0.00    +0.059 C 
ATOM     17  C   UNL     1      37.441 -24.039 -12.547  0.00  0.00    +0.002 C 
ATOM     18  C   UNL     1      38.458 -24.991 -12.492  0.00  0.00    +0.011 C 
ENDBRANCH   5  13
BRANCH   6  19
ATOM     19  C   UNL     1      34.514 -19.618 -21.991  0.00  0.00    +0.056 C 
BRANCH  19  20
ATOM     20  C   UNL     1      35.613 -18.614 -22.336  0.00  0.00    +0.093 C 
BRANCH  20  22
ATOM     21  S   UNL     1      34.037 -15.459 -25.353  0.00  0.00    -0.101 S 
ATOM     22  N   UNL     1      35.119 -17.596 -23.215  0.00  0.00    -0.320 N 
ATOM     23  N   UNL     1      34.828 -16.019 -21.457  0.00  0.00    -0.233 NA
ATOM     24  N   UNL     1      33.977 -13.786 -21.847  0.00  0.00    -0.247 NA
ATOM     25  C   UNL     1      34.735 -16.318 -22.768  0.00  0.00    +0.118 C 
ATOM     26  C   UNL     1      34.260 -15.358 -23.654  0.00  0.00    +0.145 C 
ATOM     27  C   UNL     1      33.890 -14.105 -23.167  0.00  0.00    +0.073 C 
ATOM     28  C   UNL     1      33.427 -13.244 -24.206  0.00  0.00    +0.022 C 
ATOM     29  C   UNL     1      33.456 -13.855 -25.440  0.00  0.00    +0.033 C 
ATOM     30  C   UNL     1      34.447 -14.784 -21.080  0.00  0.00    +0.251 C 
ATOM     31  H   UNL     1      35.045 -17.801 -24.175  0.00  0.00    +0.148 HD
ENDBRANCH  20  22
ENDBRANCH  19  20
ENDBRANCH   6  19
TORSDOF 4
ENDMDL
