MODEL 1
REMARK VINA RESULT:     -11.6      0.000      0.000
REMARK  Name = 9924495
REMARK  4 active torsions:
REMARK  status: ('A' for Active; 'I' for Inactive)
REMARK    1  A    between atoms: N_2  and  C_22
REMARK    2  A    between atoms: C_3  and  C_14
REMARK    3  A    between atoms: C_4  and  C_9
REMARK    4  A    between atoms: C_15  and  C_21
REMARK                            x       y       z     vdW  Elec       q    Type
REMARK                         _______ _______ _______ _____ _____    ______ ____
ROOT
ATOM      1  O   UNL     1      36.888 -22.976 -16.121  0.00  0.00    -0.269 OA
ATOM      2  N   UNL     1      34.623 -22.797 -16.746  0.00  0.00    -0.233 N 
ATOM      3  C   UNL     1      35.318 -23.813 -14.585  0.00  0.00    +0.055 C 
ATOM      4  C   UNL     1      32.988 -23.820 -15.301  0.00  0.00    +0.033 C 
ATOM      5  C   UNL     1      35.691 -23.137 -15.880  0.00  0.00    +0.257 C 
ATOM      6  C   UNL     1      34.034 -24.127 -14.353  0.00  0.00    +0.007 C 
ATOM      7  C   UNL     1      33.317 -23.169 -16.429  0.00  0.00    +0.074 C 
ENDROOT
BRANCH   4   9
ATOM      8  N   UNL     1      31.335 -25.101 -14.128  0.00  0.00    -0.244 NA
ATOM      9  C   UNL     1      31.570 -24.150 -15.059  0.00  0.00    +0.083 C 
ATOM     10  C   UNL     1      30.578 -23.498 -15.771  0.00  0.00    +0.019 C 
ATOM     11  C   UNL     1      29.256 -23.843 -15.510  0.00  0.00    +0.003 C 
ATOM     12  C   UNL     1      30.039 -25.410 -13.901  0.00  0.00    +0.099 C 
ATOM     13  C   UNL     1      28.973 -24.816 -14.558  0.00  0.00    +0.021 C 
ENDBRANCH   4   9
BRANCH   3  14
ATOM     14  C   UNL     1      36.341 -24.130 -13.573  0.00  0.00    +0.014 C 
ATOM     15  C   UNL     1      37.057 -25.326 -13.596  0.00  0.00    +0.069 C 
ATOM     16  C   UNL     1      36.585 -23.190 -12.570  0.00  0.00    +0.001 C 
ATOM     17  C   UNL     1      38.016 -25.584 -12.617  0.00  0.00    +0.010 C 
ATOM     18  C   UNL     1      37.545 -23.448 -11.591  0.00  0.00    +0.000 C 
ATOM     19  C   UNL     1      38.261 -24.644 -11.615  0.00  0.00    +0.001 C 
BRANCH  15  21
ATOM     20  N   UNL     1      36.652 -27.112 -15.428  0.00  0.00    -0.191 NA
ATOM     21  C   UNL     1      36.834 -26.314 -14.609  0.00  0.00    +0.100 C 
ENDBRANCH  15  21
ENDBRANCH   3  14
BRANCH   2  22
ATOM     22  C   UNL     1      34.901 -22.086 -17.980  0.00  0.00    +0.058 C 
ATOM     23  C   UNL     1      36.216 -21.817 -18.338  0.00  0.00    +0.015 C 
ATOM     24  C   UNL     1      33.847 -21.681 -18.792  0.00  0.00    +0.015 C 
ATOM     25  C   UNL     1      36.482 -21.134 -19.525  0.00  0.00    +0.001 C 
ATOM     26  C   UNL     1      34.113 -20.998 -19.978  0.00  0.00    +0.001 C 
ATOM     27  C   UNL     1      35.431 -20.724 -20.345  0.00  0.00    +0.000 C 
ENDBRANCH   2  22
TORSDOF 4
ENDMDL
MODEL 2
REMARK VINA RESULT:     -11.6      1.200      5.153
REMARK  Name = 9924495
REMARK  4 active torsions:
REMARK  status: ('A' for Active; 'I' for Inactive)
REMARK    1  A    between atoms: N_2  and  C_22
REMARK    2  A    between atoms: C_3  and  C_14
REMARK    3  A    between atoms: C_4  and  C_9
REMARK    4  A    between atoms: C_15  and  C_21
REMARK                            x       y       z     vdW  Elec       q    Type
REMARK                         _______ _______ _______ _____ _____    ______ ____
ROOT
ATOM      1  O   UNL     1      33.506 -24.503 -12.996  0.00  0.00    -0.269 OA
ATOM      2  N   UNL     1      32.874 -23.762 -15.142  0.00  0.00    -0.233 N 
ATOM      3  C   UNL     1      35.248 -23.780 -14.399  0.00  0.00    +0.055 C 
ATOM      4  C   UNL     1      34.595 -22.822 -16.543  0.00  0.00    +0.033 C 
ATOM      5  C   UNL     1      33.796 -24.071 -14.112  0.00  0.00    +0.257 C 
ATOM      6  C   UNL     1      35.583 -23.182 -15.552  0.00  0.00    +0.007 C 
ATOM      7  C   UNL     1      33.310 -23.133 -16.308  0.00  0.00    +0.074 C 
ENDROOT
BRANCH   4   9
ATOM      8  N   UNL     1      36.263 -21.946 -18.026  0.00  0.00    -0.244 NA
ATOM      9  C   UNL     1      34.946 -22.172 -17.821  0.00  0.00    +0.083 C 
ATOM     10  C   UNL     1      33.950 -21.831 -18.719  0.00  0.00    +0.019 C 
ATOM     11  C   UNL     1      34.329 -21.219 -19.910  0.00  0.00    +0.003 C 
ATOM     12  C   UNL     1      36.593 -21.349 -19.194  0.00  0.00    +0.099 C 
ATOM     13  C   UNL     1      35.673 -20.970 -20.158  0.00  0.00    +0.021 C 
ENDBRANCH   4   9
BRANCH   3  14
ATOM     14  C   UNL     1      36.300 -24.145 -13.433  0.00  0.00    +0.014 C 
ATOM     15  C   UNL     1      36.959 -25.372 -13.489  0.00  0.00    +0.069 C 
ATOM     16  C   UNL     1      36.629 -23.220 -12.442  0.00  0.00    +0.001 C 
ATOM     17  C   UNL     1      37.948 -25.676 -12.553  0.00  0.00    +0.010 C 
ATOM     18  C   UNL     1      37.619 -23.523 -11.506  0.00  0.00    +0.000 C 
ATOM     19  C   UNL     1      38.278 -24.751 -11.562  0.00  0.00    +0.001 C 
BRANCH  15  21
ATOM     20  N   UNL     1      36.395 -27.135 -15.302  0.00  0.00    -0.191 NA
ATOM     21  C   UNL     1      36.647 -26.346 -14.492  0.00  0.00    +0.100 C 
ENDBRANCH  15  21
ENDBRANCH   3  14
BRANCH   2  22
ATOM     22  C   UNL     1      31.469 -24.075 -14.962  0.00  0.00    +0.058 C 
ATOM     23  C   UNL     1      31.101 -25.301 -14.421  0.00  0.00    +0.015 C 
ATOM     24  C   UNL     1      30.504 -23.145 -15.333  0.00  0.00    +0.015 C 
ATOM     25  C   UNL     1      29.751 -25.602 -14.248  0.00  0.00    +0.001 C 
ATOM     26  C   UNL     1      29.154 -23.446 -15.160  0.00  0.00    +0.001 C 
ATOM     27  C   UNL     1      28.777 -24.675 -14.617  0.00  0.00    +0.000 C 
ENDBRANCH   2  22
TORSDOF 4
ENDMDL
MODEL 3
REMARK VINA RESULT:      -9.9      1.995      5.592
REMARK  Name = 9924495
REMARK  4 active torsions:
REMARK  status: ('A' for Active; 'I' for Inactive)
REMARK    1  A    between atoms: N_2  and  C_22
REMARK    2  A    between atoms: C_3  and  C_14
REMARK    3  A    between atoms: C_4  and  C_9
REMARK    4  A    between atoms: C_15  and  C_21
REMARK                            x       y       z     vdW  Elec       q    Type
REMARK                         _______ _______ _______ _____ _____    ______ ____
ROOT
ATOM      1  O   UNL     1      33.432 -24.660 -14.194  0.00  0.00    -0.269 OA
ATOM      2  N   UNL     1      32.437 -23.518 -15.999  0.00  0.00    -0.233 N 
ATOM      3  C   UNL     1      34.899 -23.828 -15.832  0.00  0.00    +0.055 C 
ATOM      4  C   UNL     1      33.907 -22.472 -17.597  0.00  0.00    +0.033 C 
ATOM      5  C   UNL     1      33.521 -24.063 -15.268  0.00  0.00    +0.257 C 
ATOM      6  C   UNL     1      35.040 -23.065 -16.926  0.00  0.00    +0.007 C 
ATOM      7  C   UNL     1      32.676 -22.730 -17.124  0.00  0.00    +0.074 C 
ENDROOT
BRANCH   4   9
ATOM      8  N   UNL     1      32.891 -21.152 -19.321  0.00  0.00    -0.244 NA
ATOM      9  C   UNL     1      34.042 -21.637 -18.807  0.00  0.00    +0.083 C 
ATOM     10  C   UNL     1      35.296 -21.399 -19.345  0.00  0.00    +0.019 C 
ATOM     11  C   UNL     1      35.373 -20.607 -20.486  0.00  0.00    +0.003 C 
ATOM     12  C   UNL     1      33.005 -20.387 -20.430  0.00  0.00    +0.099 C 
ATOM     13  C   UNL     1      34.211 -20.088 -21.045  0.00  0.00    +0.021 C 
ENDBRANCH   4   9
BRANCH   3  14
ATOM     14  C   UNL     1      36.089 -24.426 -15.200  0.00  0.00    +0.014 C 
ATOM     15  C   UNL     1      37.291 -23.730 -15.084  0.00  0.00    +0.069 C 
ATOM     16  C   UNL     1      35.987 -25.728 -14.710  0.00  0.00    +0.001 C 
ATOM     17  C   UNL     1      38.393 -24.335 -14.479  0.00  0.00    +0.010 C 
ATOM     18  C   UNL     1      37.088 -26.334 -14.105  0.00  0.00    +0.000 C 
ATOM     19  C   UNL     1      38.291 -25.637 -13.989  0.00  0.00    +0.001 C 
BRANCH  15  21
ATOM     20  N   UNL     1      37.548 -21.310 -15.973  0.00  0.00    -0.191 NA
ATOM     21  C   UNL     1      37.434 -22.391 -15.575  0.00  0.00    +0.100 C 
ENDBRANCH  15  21
ENDBRANCH   3  14
BRANCH   2  22
ATOM     22  C   UNL     1      31.078 -23.761 -15.553  0.00  0.00    +0.058 C 
ATOM     23  C   UNL     1      30.130 -22.749 -15.651  0.00  0.00    +0.015 C 
ATOM     24  C   UNL     1      30.737 -25.004 -15.032  0.00  0.00    +0.015 C 
ATOM     25  C   UNL     1      28.824 -22.983 -15.222  0.00  0.00    +0.001 C 
ATOM     26  C   UNL     1      29.431 -25.238 -14.602  0.00  0.00    +0.001 C 
ATOM     27  C   UNL     1      28.474 -24.227 -14.698  0.00  0.00    +0.000 C 
ENDBRANCH   2  22
TORSDOF 4
ENDMDL
MODEL 4
REMARK VINA RESULT:      -9.6      1.607      6.302
REMARK  Name = 9924495
REMARK  4 active torsions:
REMARK  status: ('A' for Active; 'I' for Inactive)
REMARK    1  A    between atoms: N_2  and  C_22
REMARK    2  A    between atoms: C_3  and  C_14
REMARK    3  A    between atoms: C_4  and  C_9
REMARK    4  A    between atoms: C_15  and  C_21
REMARK                            x       y       z     vdW  Elec       q    Type
REMARK                         _______ _______ _______ _____ _____    ______ ____
ROOT
ATOM      1  O   UNL     1      32.199 -22.554 -17.774  0.00  0.00    -0.269 OA
ATOM      2  N   UNL     1      32.392 -23.583 -15.663  0.00  0.00    -0.233 N 
ATOM      3  C   UNL     1      34.381 -22.802 -16.935  0.00  0.00    +0.055 C 
ATOM      4  C   UNL     1      34.614 -24.043 -14.851  0.00  0.00    +0.033 C 
ATOM      5  C   UNL     1      32.884 -22.947 -16.828  0.00  0.00    +0.257 C 
ATOM      6  C   UNL     1      35.163 -23.340 -15.987  0.00  0.00    +0.007 C 
ATOM      7  C   UNL     1      33.279 -24.121 -14.730  0.00  0.00    +0.074 C 
ENDROOT
BRANCH   4   9
ATOM      8  N   UNL     1      36.430 -25.474 -14.215  0.00  0.00    -0.244 NA
ATOM      9  C   UNL     1      35.459 -24.634 -13.794  0.00  0.00    +0.083 C 
ATOM     10  C   UNL     1      35.226 -24.318 -12.467  0.00  0.00    +0.019 C 
ATOM     11  C   UNL     1      36.047 -24.901 -11.506  0.00  0.00    +0.003 C 
ATOM     12  C   UNL     1      37.207 -26.022 -13.254  0.00  0.00    +0.099 C 
ATOM     13  C   UNL     1      37.058 -25.769 -11.900  0.00  0.00    +0.021 C 
ENDBRANCH   4   9
BRANCH   3  14
ATOM     14  C   UNL     1      34.994 -22.076 -18.062  0.00  0.00    +0.014 C 
ATOM     15  C   UNL     1      36.350 -21.754 -18.082  0.00  0.00    +0.069 C 
ATOM     16  C   UNL     1      34.174 -21.711 -19.130  0.00  0.00    +0.001 C 
ATOM     17  C   UNL     1      36.888 -21.065 -19.169  0.00  0.00    +0.010 C 
ATOM     18  C   UNL     1      34.712 -21.022 -20.218  0.00  0.00    +0.000 C 
ATOM     19  C   UNL     1      36.069 -20.700 -20.238  0.00  0.00    +0.001 C 
BRANCH  15  21
ATOM     20  N   UNL     1      37.928 -22.400 -16.132  0.00  0.00    -0.191 NA
ATOM     21  C   UNL     1      37.222 -22.112 -17.004  0.00  0.00    +0.100 C 
ENDBRANCH  15  21
ENDBRANCH   3  14
BRANCH   2  22
ATOM     22  C   UNL     1      30.960 -23.699 -15.460  0.00  0.00    +0.058 C 
ATOM     23  C   UNL     1      30.135 -22.619 -15.750  0.00  0.00    +0.015 C 
ATOM     24  C   UNL     1      30.428 -24.890 -14.981  0.00  0.00    +0.015 C 
ATOM     25  C   UNL     1      28.758 -22.731 -15.556  0.00  0.00    +0.001 C 
ATOM     26  C   UNL     1      29.051 -25.002 -14.786  0.00  0.00    +0.001 C 
ATOM     27  C   UNL     1      28.216 -23.923 -15.074  0.00  0.00    +0.000 C 
ENDBRANCH   2  22
TORSDOF 4
ENDMDL
MODEL 5
REMARK VINA RESULT:      -9.0      1.806      5.491
REMARK  Name = 9924495
REMARK  4 active torsions:
REMARK  status: ('A' for Active; 'I' for Inactive)
REMARK    1  A    between atoms: N_2  and  C_22
REMARK    2  A    between atoms: C_3  and  C_14
REMARK    3  A    between atoms: C_4  and  C_9
REMARK    4  A    between atoms: C_15  and  C_21
REMARK                            x       y       z     vdW  Elec       q    Type
REMARK                         _______ _______ _______ _____ _____    ______ ____
ROOT
ATOM      1  O   UNL     1      34.745 -24.913 -13.149  0.00  0.00    -0.269 OA
ATOM      2  N   UNL     1      33.713 -23.807 -14.957  0.00  0.00    -0.233 N 
ATOM      3  C   UNL     1      36.167 -24.209 -14.883  0.00  0.00    +0.055 C 
ATOM      4  C   UNL     1      35.149 -22.888 -16.660  0.00  0.00    +0.033 C 
ATOM      5  C   UNL     1      34.807 -24.365 -14.250  0.00  0.00    +0.257 C 
ATOM      6  C   UNL     1      36.288 -23.497 -16.014  0.00  0.00    +0.007 C 
ATOM      7  C   UNL     1      33.932 -23.076 -16.124  0.00  0.00    +0.074 C 
ENDROOT
BRANCH   4   9
ATOM      8  N   UNL     1      36.510 -21.725 -18.255  0.00  0.00    -0.244 NA
ATOM      9  C   UNL     1      35.262 -22.109 -17.909  0.00  0.00    +0.083 C 
ATOM     10  C   UNL     1      34.126 -21.814 -18.644  0.00  0.00    +0.019 C 
ATOM     11  C   UNL     1      34.282 -21.077 -19.813  0.00  0.00    +0.003 C 
ATOM     12  C   UNL     1      36.623 -21.010 -19.397  0.00  0.00    +0.099 C 
ATOM     13  C   UNL     1      35.551 -20.664 -20.203  0.00  0.00    +0.021 C 
ENDBRANCH   4   9
BRANCH   3  14
ATOM     14  C   UNL     1      37.360 -24.828 -14.279  0.00  0.00    +0.014 C 
ATOM     15  C   UNL     1      37.891 -24.382 -13.069  0.00  0.00    +0.069 C 
ATOM     16  C   UNL     1      37.961 -25.891 -14.954  0.00  0.00    +0.001 C 
ATOM     17  C   UNL     1      39.023 -24.996 -12.534  0.00  0.00    +0.010 C 
ATOM     18  C   UNL     1      39.092 -26.507 -14.419  0.00  0.00    +0.000 C 
ATOM     19  C   UNL     1      39.623 -26.060 -13.209  0.00  0.00    +0.001 C 
BRANCH  15  21
ATOM     20  N   UNL     1      36.825 -22.414 -11.763  0.00  0.00    -0.191 NA
ATOM     21  C   UNL     1      37.301 -23.293 -12.348  0.00  0.00    +0.100 C 
ENDBRANCH  15  21
ENDBRANCH   3  14
BRANCH   2  22
ATOM     22  C   UNL     1      32.368 -23.976 -14.441  0.00  0.00    +0.058 C 
ATOM     23  C   UNL     1      32.102 -24.991 -13.530  0.00  0.00    +0.015 C 
ATOM     24  C   UNL     1      31.358 -23.119 -14.863  0.00  0.00    +0.015 C 
ATOM     25  C   UNL     1      30.808 -25.152 -13.035  0.00  0.00    +0.001 C 
ATOM     26  C   UNL     1      30.064 -23.280 -14.368  0.00  0.00    +0.001 C 
ATOM     27  C   UNL     1      29.789 -24.297 -13.453  0.00  0.00    +0.000 C 
ENDBRANCH   2  22
TORSDOF 4
ENDMDL
MODEL 6
REMARK VINA RESULT:      -8.8      1.486      5.710
REMARK  Name = 9924495
REMARK  4 active torsions:
REMARK  status: ('A' for Active; 'I' for Inactive)
REMARK    1  A    between atoms: N_2  and  C_22
REMARK    2  A    between atoms: C_3  and  C_14
REMARK    3  A    between atoms: C_4  and  C_9
REMARK    4  A    between atoms: C_15  and  C_21
REMARK                            x       y       z     vdW  Elec       q    Type
REMARK                         _______ _______ _______ _____ _____    ______ ____
ROOT
ATOM      1  O   UNL     1      31.944 -22.215 -17.512  0.00  0.00    -0.269 OA
ATOM      2  N   UNL     1      34.259 -22.618 -17.325  0.00  0.00    -0.233 N 
ATOM      3  C   UNL     1      32.608 -23.667 -15.787  0.00  0.00    +0.055 C 
ATOM      4  C   UNL     1      35.007 -23.936 -15.451  0.00  0.00    +0.033 C 
ATOM      5  C   UNL     1      32.896 -22.778 -16.971  0.00  0.00    +0.257 C 
ATOM      6  C   UNL     1      33.631 -24.186 -15.091  0.00  0.00    +0.007 C 
ATOM      7  C   UNL     1      35.259 -23.189 -16.539  0.00  0.00    +0.074 C 
ENDROOT
BRANCH   4   9
ATOM      8  N   UNL     1      36.414 -25.808 -14.939  0.00  0.00    -0.244 NA
ATOM      9  C   UNL     1      36.145 -24.505 -14.702  0.00  0.00    +0.083 C 
ATOM     10  C   UNL     1      36.858 -23.712 -13.820  0.00  0.00    +0.019 C 
ATOM     11  C   UNL     1      37.920 -24.293 -13.136  0.00  0.00    +0.003 C 
ATOM     12  C   UNL     1      37.454 -26.339 -14.256  0.00  0.00    +0.099 C 
ATOM     13  C   UNL     1      38.230 -25.631 -13.353  0.00  0.00    +0.021 C 
ENDBRANCH   4   9
BRANCH   3  14
ATOM     14  C   UNL     1      31.223 -23.974 -15.388  0.00  0.00    +0.014 C 
ATOM     15  C   UNL     1      30.779 -23.812 -14.077  0.00  0.00    +0.069 C 
ATOM     16  C   UNL     1      30.346 -24.439 -16.369  0.00  0.00    +0.001 C 
ATOM     17  C   UNL     1      29.459 -24.116 -13.744  0.00  0.00    +0.010 C 
ATOM     18  C   UNL     1      29.026 -24.743 -16.037  0.00  0.00    +0.000 C 
ATOM     19  C   UNL     1      28.582 -24.580 -14.724  0.00  0.00    +0.001 C 
BRANCH  15  21
ATOM     20  N   UNL     1      32.355 -22.955 -12.208  0.00  0.00    -0.191 NA
ATOM     21  C   UNL     1      31.651 -23.337 -13.043  0.00  0.00    +0.100 C 
ENDBRANCH  15  21
ENDBRANCH   3  14
BRANCH   2  22
ATOM     22  C   UNL     1      34.607 -21.830 -18.492  0.00  0.00    +0.058 C 
ATOM     23  C   UNL     1      33.601 -21.265 -19.266  0.00  0.00    +0.015 C 
ATOM     24  C   UNL     1      35.944 -21.647 -18.823  0.00  0.00    +0.015 C 
ATOM     25  C   UNL     1      33.936 -20.508 -20.388  0.00  0.00    +0.001 C 
ATOM     26  C   UNL     1      36.280 -20.890 -19.945  0.00  0.00    +0.001 C 
ATOM     27  C   UNL     1      35.276 -20.320 -20.728  0.00  0.00    +0.000 C 
ENDBRANCH   2  22
TORSDOF 4
ENDMDL
MODEL 7
REMARK VINA RESULT:      -8.6      1.542      6.652
REMARK  Name = 9924495
REMARK  4 active torsions:
REMARK  status: ('A' for Active; 'I' for Inactive)
REMARK    1  A    between atoms: N_2  and  C_22
REMARK    2  A    between atoms: C_3  and  C_14
REMARK    3  A    between atoms: C_4  and  C_9
REMARK    4  A    between atoms: C_15  and  C_21
REMARK                            x       y       z     vdW  Elec       q    Type
REMARK                         _______ _______ _______ _____ _____    ______ ____
ROOT
ATOM      1  O   UNL     1      33.554 -25.140 -13.854  0.00  0.00    -0.269 OA
ATOM      2  N   UNL     1      35.168 -24.030 -15.164  0.00  0.00    -0.233 N 
ATOM      3  C   UNL     1      32.729 -23.785 -15.589  0.00  0.00    +0.055 C 
ATOM      4  C   UNL     1      34.383 -22.792 -17.078  0.00  0.00    +0.033 C 
ATOM      5  C   UNL     1      33.851 -24.371 -14.769  0.00  0.00    +0.257 C 
ATOM      6  C   UNL     1      33.020 -23.054 -16.675  0.00  0.00    +0.007 C 
ATOM      7  C   UNL     1      35.379 -23.268 -16.314  0.00  0.00    +0.074 C 
ENDROOT
BRANCH   4   9
ATOM      8  N   UNL     1      36.041 -21.799 -18.496  0.00  0.00    -0.244 NA
ATOM      9  C   UNL     1      34.722 -21.983 -18.265  0.00  0.00    +0.083 C 
ATOM     10  C   UNL     1      33.714 -21.463 -19.058  0.00  0.00    +0.019 C 
ATOM     11  C   UNL     1      34.083 -20.706 -20.165  0.00  0.00    +0.003 C 
ATOM     12  C   UNL     1      36.361 -21.058 -19.581  0.00  0.00    +0.099 C 
ATOM     13  C   UNL     1      35.429 -20.495 -20.438  0.00  0.00    +0.021 C 
ENDBRANCH   4   9
BRANCH   3  14
ATOM     14  C   UNL     1      31.321 -24.003 -15.211  0.00  0.00    +0.014 C 
ATOM     15  C   UNL     1      30.841 -23.693 -13.940  0.00  0.00    +0.069 C 
ATOM     16  C   UNL     1      30.459 -24.536 -16.171  0.00  0.00    +0.001 C 
ATOM     17  C   UNL     1      29.500 -23.916 -13.625  0.00  0.00    +0.010 C 
ATOM     18  C   UNL     1      29.118 -24.759 -15.857  0.00  0.00    +0.000 C 
ATOM     19  C   UNL     1      28.639 -24.449 -14.585  0.00  0.00    +0.001 C 
BRANCH  15  21
ATOM     20  N   UNL     1      32.384 -22.701 -12.111  0.00  0.00    -0.191 NA
ATOM     21  C   UNL     1      31.695 -23.144 -12.929  0.00  0.00    +0.100 C 
ENDBRANCH  15  21
ENDBRANCH   3  14
BRANCH   2  22
ATOM     22  C   UNL     1      36.295 -24.503 -14.383  0.00  0.00    +0.058 C 
ATOM     23  C   UNL     1      36.752 -23.750 -13.308  0.00  0.00    +0.015 C 
ATOM     24  C   UNL     1      36.905 -25.706 -14.717  0.00  0.00    +0.015 C 
ATOM     25  C   UNL     1      37.835 -24.205 -12.557  0.00  0.00    +0.001 C 
ATOM     26  C   UNL     1      37.989 -26.162 -13.966  0.00  0.00    +0.001 C 
ATOM     27  C   UNL     1      38.454 -25.411 -12.886  0.00  0.00    +0.000 C 
ENDBRANCH   2  22
TORSDOF 4
ENDMDL
