MODEL 1
REMARK VINA RESULT:     -11.8      0.000      0.000
REMARK  Name = 3168
REMARK  6 active torsions:
REMARK  status: ('A' for Active; 'I' for Inactive)
REMARK    1  A    between atoms: N_1  and  C_19
REMARK    2  A    between atoms: C_5  and  N_9
REMARK    3  A    between atoms: C_19  and  C_20
REMARK    4  A    between atoms: C_20  and  C_21
REMARK    5  A    between atoms: C_21  and  C_23
REMARK    6  A    between atoms: C_23  and  C_25
REMARK                            x       y       z     vdW  Elec       q    Type
REMARK                         _______ _______ _______ _____ _____    ______ ____
ROOT
ATOM      1  N   UNL     1      34.109 -16.016 -23.448  0.00  0.00    +0.390 N 
ATOM      2  C   UNL     1      34.907 -17.039 -24.135  0.00  0.00    -0.071 C 
ATOM      3  C   UNL     1      34.973 -18.320 -23.290  0.00  0.00    +0.021 C 
ATOM      4  C   UNL     1      34.735 -15.633 -22.172  0.00  0.00    -0.049 C 
ATOM      5  C   UNL     1      35.265 -18.044 -21.842  0.00  0.00    +0.037 C 
ATOM      6  C   UNL     1      35.170 -16.805 -21.335  0.00  0.00    -0.036 C 
ATOM      7  H   UNL     1      33.193 -16.418 -23.248  0.00  0.00    -0.079 HD
ENDROOT
BRANCH   5   9
ATOM      8  O   UNL     1      38.030 -18.897 -21.079  0.00  0.00    -0.246 OA
ATOM      9  N   UNL     1      35.647 -19.103 -21.070  0.00  0.00    -0.263 N 
ATOM     10  N   UNL     1      36.904 -20.620 -19.923  0.00  0.00    -0.305 N 
ATOM     11  C   UNL     1      34.784 -20.033 -20.460  0.00  0.00    +0.083 A 
ATOM     12  C   UNL     1      36.997 -19.459 -20.741  0.00  0.00    +0.332 A 
ATOM     13  C   UNL     1      35.562 -20.956 -19.762  0.00  0.00    +0.076 A 
ATOM     14  C   UNL     1      33.407 -20.126 -20.473  0.00  0.00    +0.019 C 
ATOM     15  C   UNL     1      35.015 -22.002 -19.052  0.00  0.00    +0.019 C 
ATOM     16  C   UNL     1      32.827 -21.181 -19.759  0.00  0.00    +0.002 C 
ATOM     17  C   UNL     1      33.623 -22.109 -19.056  0.00  0.00    +0.002 C 
ATOM     18  H   UNL     1      37.667 -21.108 -19.534  0.00  0.00    +0.170 HD
ENDBRANCH   5   9
BRANCH   1  19
ATOM     19  C   UNL     1      33.911 -14.845 -24.300  0.00  0.00    -0.076 C 
BRANCH  19  20
ATOM     20  C   UNL     1      33.903 -13.571 -23.452  0.00  0.00    -0.015 C 
BRANCH  20  21
ATOM     21  C   UNL     1      32.484 -13.120 -23.095  0.00  0.00    +0.067 C 
BRANCH  21  23
ATOM     22  O   UNL     1      32.156 -14.121 -20.923  0.00  0.00    -0.291 OA
ATOM     23  C   UNL     1      32.217 -13.095 -21.596  0.00  0.00    +0.173 C 
BRANCH  23  25
ATOM     24  F   UNL     1      31.563  -8.157 -19.073  0.00  0.00    -0.204 F 
ATOM     25  C   UNL     1      32.044 -11.776 -20.923  0.00  0.00    +0.035 C 
ATOM     26  C   UNL     1      31.908 -11.747 -19.553  0.00  0.00    +0.005 C 
ATOM     27  C   UNL     1      32.026 -10.637 -21.695  0.00  0.00    +0.005 C 
ATOM     28  C   UNL     1      31.743 -10.513 -18.923  0.00  0.00    +0.030 C 
ATOM     29  C   UNL     1      31.861  -9.403 -21.065  0.00  0.00    +0.030 C 
ATOM     30  C   UNL     1      31.720  -9.341 -19.678  0.00  0.00    +0.140 C 
ENDBRANCH  23  25
ENDBRANCH  21  23
ENDBRANCH  20  21
ENDBRANCH  19  20
ENDBRANCH   1  19
TORSDOF 6
ENDMDL
MODEL 2
REMARK VINA RESULT:     -11.7      2.058      2.514
REMARK  Name = 3168
REMARK  6 active torsions:
REMARK  status: ('A' for Active; 'I' for Inactive)
REMARK    1  A    between atoms: N_1  and  C_19
REMARK    2  A    between atoms: C_5  and  N_9
REMARK    3  A    between atoms: C_19  and  C_20
REMARK    4  A    between atoms: C_20  and  C_21
REMARK    5  A    between atoms: C_21  and  C_23
REMARK    6  A    between atoms: C_23  and  C_25
REMARK                            x       y       z     vdW  Elec       q    Type
REMARK                         _______ _______ _______ _____ _____    ______ ____
ROOT
ATOM      1  N   UNL     1      34.025 -15.843 -23.223  0.00  0.00    +0.390 N 
ATOM      2  C   UNL     1      34.961 -16.727 -23.927  0.00  0.00    -0.071 C 
ATOM      3  C   UNL     1      35.075 -18.074 -23.195  0.00  0.00    +0.021 C 
ATOM      4  C   UNL     1      34.514 -15.534 -21.869  0.00  0.00    -0.049 C 
ATOM      5  C   UNL     1      35.229 -17.913 -21.709  0.00  0.00    +0.037 C 
ATOM      6  C   UNL     1      34.986 -16.741 -21.105  0.00  0.00    -0.036 C 
ATOM      7  H   UNL     1      33.136 -16.335 -23.137  0.00  0.00    -0.079 HD
ENDROOT
BRANCH   5   9
ATOM      8  O   UNL     1      38.021 -18.753 -21.035  0.00  0.00    -0.246 OA
ATOM      9  N   UNL     1      35.643 -19.007 -21.004  0.00  0.00    -0.263 N 
ATOM     10  N   UNL     1      36.946 -20.561 -19.964  0.00  0.00    -0.305 N 
ATOM     11  C   UNL     1      34.807 -19.987 -20.436  0.00  0.00    +0.083 A 
ATOM     12  C   UNL     1      37.004 -19.354 -20.715  0.00  0.00    +0.332 A 
ATOM     13  C   UNL     1      35.613 -20.932 -19.803  0.00  0.00    +0.076 A 
ATOM     14  C   UNL     1      33.432 -20.107 -20.435  0.00  0.00    +0.019 C 
ATOM     15  C   UNL     1      35.097 -22.028 -19.146  0.00  0.00    +0.019 C 
ATOM     16  C   UNL     1      32.883 -21.212 -19.775  0.00  0.00    +0.002 C 
ATOM     17  C   UNL     1      33.707 -22.162 -19.137  0.00  0.00    +0.002 C 
ATOM     18  H   UNL     1      37.723 -21.055 -19.613  0.00  0.00    +0.170 HD
ENDBRANCH   5   9
BRANCH   1  19
ATOM     19  C   UNL     1      33.790 -14.615 -23.981  0.00  0.00    -0.076 C 
BRANCH  19  20
ATOM     20  C   UNL     1      34.433 -13.424 -23.270  0.00  0.00    -0.015 C 
BRANCH  20  21
ATOM     21  C   UNL     1      33.535 -12.183 -23.285  0.00  0.00    +0.067 C 
BRANCH  21  23
ATOM     22  O   UNL     1      34.829 -11.143 -25.038  0.00  0.00    -0.291 OA
ATOM     23  C   UNL     1      34.149 -11.003 -24.024  0.00  0.00    +0.173 C 
BRANCH  23  25
ATOM     24  F   UNL     1      33.217  -5.853 -22.078  0.00  0.00    -0.204 F 
ATOM     25  C   UNL     1      33.899  -9.627 -23.505  0.00  0.00    +0.035 C 
ATOM     26  C   UNL     1      34.887  -8.679 -23.646  0.00  0.00    +0.005 C 
ATOM     27  C   UNL     1      32.691  -9.357 -22.904  0.00  0.00    +0.005 C 
ATOM     28  C   UNL     1      34.655  -7.392 -23.159  0.00  0.00    +0.030 C 
ATOM     29  C   UNL     1      32.457  -8.071 -22.417  0.00  0.00    +0.030 C 
ATOM     30  C   UNL     1      33.440  -7.088 -22.545  0.00  0.00    +0.140 C 
ENDBRANCH  23  25
ENDBRANCH  21  23
ENDBRANCH  20  21
ENDBRANCH  19  20
ENDBRANCH   1  19
TORSDOF 6
ENDMDL
MODEL 3
REMARK VINA RESULT:     -11.3      3.692      9.693
REMARK  Name = 3168
REMARK  6 active torsions:
REMARK  status: ('A' for Active; 'I' for Inactive)
REMARK    1  A    between atoms: N_1  and  C_19
REMARK    2  A    between atoms: C_5  and  N_9
REMARK    3  A    between atoms: C_19  and  C_20
REMARK    4  A    between atoms: C_20  and  C_21
REMARK    5  A    between atoms: C_21  and  C_23
REMARK    6  A    between atoms: C_23  and  C_25
REMARK                            x       y       z     vdW  Elec       q    Type
REMARK                         _______ _______ _______ _____ _____    ______ ____
ROOT
ATOM      1  N   UNL     1      34.729 -15.095 -23.679  0.00  0.00    +0.390 N 
ATOM      2  C   UNL     1      33.602 -14.638 -24.500  0.00  0.00    -0.071 C 
ATOM      3  C   UNL     1      33.474 -13.108 -24.426  0.00  0.00    +0.021 C 
ATOM      4  C   UNL     1      34.509 -14.770 -22.260  0.00  0.00    -0.049 C 
ATOM      5  C   UNL     1      33.590 -12.585 -23.022  0.00  0.00    +0.037 C 
ATOM      6  C   UNL     1      34.051 -13.356 -22.026  0.00  0.00    -0.036 C 
ATOM      7  H   UNL     1      35.565 -14.602 -23.994  0.00  0.00    -0.079 HD
ENDROOT
BRANCH   5   9
ATOM      8  O   UNL     1      31.169 -11.607 -21.560  0.00  0.00    -0.246 OA
ATOM      9  N   UNL     1      33.190 -11.298 -22.802  0.00  0.00    -0.263 N 
ATOM     10  N   UNL     1      32.011  -9.472 -22.115  0.00  0.00    -0.305 N 
ATOM     11  C   UNL     1      33.863 -10.140 -23.235  0.00  0.00    +0.083 A 
ATOM     12  C   UNL     1      32.013 -10.895 -22.090  0.00  0.00    +0.332 A 
ATOM     13  C   UNL     1      33.134  -9.030 -22.810  0.00  0.00    +0.076 A 
ATOM     14  C   UNL     1      35.032  -9.993 -23.953  0.00  0.00    +0.019 C 
ATOM     15  C   UNL     1      33.529  -7.737 -23.076  0.00  0.00    +0.019 C 
ATOM     16  C   UNL     1      35.454  -8.689 -24.236  0.00  0.00    +0.002 C 
ATOM     17  C   UNL     1      34.710  -7.573 -23.801  0.00  0.00    +0.002 C 
ATOM     18  H   UNL     1      31.326  -8.894 -21.707  0.00  0.00    +0.170 HD
ENDBRANCH   5   9
BRANCH   1  19
ATOM     19  C   UNL     1      34.959 -16.528 -23.852  0.00  0.00    -0.076 C 
BRANCH  19  20
ATOM     20  C   UNL     1      35.271 -17.180 -22.504  0.00  0.00    -0.015 C 
BRANCH  20  21
ATOM     21  C   UNL     1      35.636 -18.660 -22.644  0.00  0.00    +0.067 C 
BRANCH  21  23
ATOM     22  O   UNL     1      37.391 -19.004 -21.023  0.00  0.00    -0.291 OA
ATOM     23  C   UNL     1      36.243 -19.255 -21.381  0.00  0.00    +0.173 C 
BRANCH  23  25
ATOM     24  F   UNL     1      33.105 -22.647 -18.247  0.00  0.00    -0.204 F 
ATOM     25  C   UNL     1      35.404 -20.160 -20.543  0.00  0.00    +0.035 C 
ATOM     26  C   UNL     1      36.032 -21.091 -19.746  0.00  0.00    +0.005 C 
ATOM     27  C   UNL     1      34.035 -20.032 -20.599  0.00  0.00    +0.005 C 
ATOM     28  C   UNL     1      35.248 -21.939 -18.963  0.00  0.00    +0.030 C 
ATOM     29  C   UNL     1      33.251 -20.880 -19.817  0.00  0.00    +0.030 C 
ATOM     30  C   UNL     1      33.858 -21.834 -18.998  0.00  0.00    +0.140 C 
ENDBRANCH  23  25
ENDBRANCH  21  23
ENDBRANCH  20  21
ENDBRANCH  19  20
ENDBRANCH   1  19
TORSDOF 6
ENDMDL
MODEL 4
REMARK VINA RESULT:     -11.2      3.535      8.987
REMARK  Name = 3168
REMARK  6 active torsions:
REMARK  status: ('A' for Active; 'I' for Inactive)
REMARK    1  A    between atoms: N_1  and  C_19
REMARK    2  A    between atoms: C_5  and  N_9
REMARK    3  A    between atoms: C_19  and  C_20
REMARK    4  A    between atoms: C_20  and  C_21
REMARK    5  A    between atoms: C_21  and  C_23
REMARK    6  A    between atoms: C_23  and  C_25
REMARK                            x       y       z     vdW  Elec       q    Type
REMARK                         _______ _______ _______ _____ _____    ______ ____
ROOT
ATOM      1  N   UNL     1      34.267 -16.311 -23.961  0.00  0.00    +0.390 N 
ATOM      2  C   UNL     1      35.258 -15.597 -23.148  0.00  0.00    -0.071 C 
ATOM      3  C   UNL     1      34.640 -14.324 -22.550  0.00  0.00    +0.021 C 
ATOM      4  C   UNL     1      33.836 -15.488 -25.104  0.00  0.00    -0.049 C 
ATOM      5  C   UNL     1      33.846 -13.538 -23.556  0.00  0.00    +0.037 C 
ATOM      6  C   UNL     1      33.492 -14.071 -24.734  0.00  0.00    -0.036 C 
ATOM      7  H   UNL     1      33.453 -16.492 -23.373  0.00  0.00    -0.079 HD
ENDROOT
BRANCH   5   9
ATOM      8  O   UNL     1      34.690 -10.992 -24.881  0.00  0.00    -0.246 OA
ATOM      9  N   UNL     1      33.516 -12.255 -23.224  0.00  0.00    -0.263 N 
ATOM     10  N   UNL     1      33.364  -9.981 -23.210  0.00  0.00    -0.305 N 
ATOM     11  C   UNL     1      32.685 -11.867 -22.157  0.00  0.00    +0.083 A 
ATOM     12  C   UNL     1      33.957 -11.073 -23.904  0.00  0.00    +0.332 A 
ATOM     13  C   UNL     1      32.599 -10.476 -22.157  0.00  0.00    +0.076 A 
ATOM     14  C   UNL     1      32.018 -12.623 -21.213  0.00  0.00    +0.019 C 
ATOM     15  C   UNL     1      31.855  -9.778 -21.231  0.00  0.00    +0.019 C 
ATOM     16  C   UNL     1      31.256 -11.937 -20.261  0.00  0.00    +0.002 C 
ATOM     17  C   UNL     1      31.175 -10.530 -20.270  0.00  0.00    +0.002 C 
ATOM     18  H   UNL     1      33.477  -9.029 -23.437  0.00  0.00    +0.170 HD
ENDBRANCH   5   9
BRANCH   1  19
ATOM     19  C   UNL     1      34.789 -17.598 -24.418  0.00  0.00    -0.076 C 
BRANCH  19  20
ATOM     20  C   UNL     1      35.692 -18.211 -23.346  0.00  0.00    -0.015 C 
BRANCH  20  21
ATOM     21  C   UNL     1      34.977 -19.293 -22.533  0.00  0.00    +0.067 C 
BRANCH  21  23
ATOM     22  O   UNL     1      36.415 -18.726 -20.679  0.00  0.00    -0.291 OA
ATOM     23  C   UNL     1      35.507 -19.431 -21.113  0.00  0.00    +0.173 C 
BRANCH  23  25
ATOM     24  F   UNL     1      33.184 -23.235 -17.750  0.00  0.00    -0.204 F 
ATOM     25  C   UNL     1      34.886 -20.445 -20.214  0.00  0.00    +0.035 C 
ATOM     26  C   UNL     1      35.710 -21.290 -19.503  0.00  0.00    +0.005 C 
ATOM     27  C   UNL     1      33.513 -20.502 -20.128  0.00  0.00    +0.005 C 
ATOM     28  C   UNL     1      35.129 -22.241 -18.663  0.00  0.00    +0.030 C 
ATOM     29  C   UNL     1      32.932 -21.453 -19.289  0.00  0.00    +0.030 C 
ATOM     30  C   UNL     1      33.741 -22.323 -18.556  0.00  0.00    +0.140 C 
ENDBRANCH  23  25
ENDBRANCH  21  23
ENDBRANCH  20  21
ENDBRANCH  19  20
ENDBRANCH   1  19
TORSDOF 6
ENDMDL
MODEL 5
REMARK VINA RESULT:     -11.0      4.258      7.129
REMARK  Name = 3168
REMARK  6 active torsions:
REMARK  status: ('A' for Active; 'I' for Inactive)
REMARK    1  A    between atoms: N_1  and  C_19
REMARK    2  A    between atoms: C_5  and  N_9
REMARK    3  A    between atoms: C_19  and  C_20
REMARK    4  A    between atoms: C_20  and  C_21
REMARK    5  A    between atoms: C_21  and  C_23
REMARK    6  A    between atoms: C_23  and  C_25
REMARK                            x       y       z     vdW  Elec       q    Type
REMARK                         _______ _______ _______ _____ _____    ______ ____
ROOT
ATOM      1  N   UNL     1      35.338 -21.319 -18.876  0.00  0.00    +0.390 N 
ATOM      2  C   UNL     1      34.458 -22.461 -19.151  0.00  0.00    -0.071 C 
ATOM      3  C   UNL     1      33.771 -22.927 -17.858  0.00  0.00    +0.021 C 
ATOM      4  C   UNL     1      36.419 -21.701 -17.951  0.00  0.00    -0.049 C 
ATOM      5  C   UNL     1      34.723 -23.025 -16.699  0.00  0.00    +0.037 C 
ATOM      6  C   UNL     1      35.944 -22.473 -16.752  0.00  0.00    -0.036 C 
ATOM      7  H   UNL     1      34.778 -20.593 -18.430  0.00  0.00    -0.079 HD
ENDROOT
BRANCH   5   9
ATOM      8  O   UNL     1      36.239 -24.979 -15.015  0.00  0.00    -0.246 OA
ATOM      9  N   UNL     1      34.296 -23.713 -15.599  0.00  0.00    -0.263 N 
ATOM     10  N   UNL     1      34.223 -25.101 -13.793  0.00  0.00    -0.305 N 
ATOM     11  C   UNL     1      33.015 -23.633 -15.022  0.00  0.00    +0.083 A 
ATOM     12  C   UNL     1      35.078 -24.639 -14.834  0.00  0.00    +0.332 A 
ATOM     13  C   UNL     1      32.981 -24.485 -13.920  0.00  0.00    +0.076 A 
ATOM     14  C   UNL     1      31.909 -22.889 -15.383  0.00  0.00    +0.019 C 
ATOM     15  C   UNL     1      31.860 -24.637 -13.133  0.00  0.00    +0.019 C 
ATOM     16  C   UNL     1      30.758 -23.026 -14.600  0.00  0.00    +0.002 C 
ATOM     17  C   UNL     1      30.734 -23.891 -13.487  0.00  0.00    +0.002 C 
ATOM     18  H   UNL     1      34.471 -25.752 -13.096  0.00  0.00    +0.170 HD
ENDBRANCH   5   9
BRANCH   1  19
ATOM     19  C   UNL     1      35.887 -20.768 -20.114  0.00  0.00    -0.076 C 
BRANCH  19  20
ATOM     20  C   UNL     1      34.785 -20.078 -20.919  0.00  0.00    -0.015 C 
BRANCH  20  21
ATOM     21  C   UNL     1      35.348 -19.171 -22.017  0.00  0.00    +0.067 C 
BRANCH  21  23
ATOM     22  O   UNL     1      35.564 -17.254 -20.565  0.00  0.00    -0.291 OA
ATOM     23  C   UNL     1      35.268 -17.689 -21.676  0.00  0.00    +0.173 C 
BRANCH  23  25
ATOM     24  F   UNL     1      33.639 -14.114 -25.644  0.00  0.00    -0.204 F 
ATOM     25  C   UNL     1      34.835 -16.735 -22.736  0.00  0.00    +0.035 C 
ATOM     26  C   UNL     1      34.298 -15.525 -22.356  0.00  0.00    +0.005 C 
ATOM     27  C   UNL     1      34.986 -17.098 -24.055  0.00  0.00    +0.005 C 
ATOM     28  C   UNL     1      33.890 -14.632 -23.347  0.00  0.00    +0.030 C 
ATOM     29  C   UNL     1      34.578 -16.205 -25.047  0.00  0.00    +0.030 C 
ATOM     30  C   UNL     1      34.030 -14.972 -24.692  0.00  0.00    +0.140 C 
ENDBRANCH  23  25
ENDBRANCH  21  23
ENDBRANCH  20  21
ENDBRANCH  19  20
ENDBRANCH   1  19
TORSDOF 6
ENDMDL
MODEL 6
REMARK VINA RESULT:     -11.0      4.582      9.557
REMARK  Name = 3168
REMARK  6 active torsions:
REMARK  status: ('A' for Active; 'I' for Inactive)
REMARK    1  A    between atoms: N_1  and  C_19
REMARK    2  A    between atoms: C_5  and  N_9
REMARK    3  A    between atoms: C_19  and  C_20
REMARK    4  A    between atoms: C_20  and  C_21
REMARK    5  A    between atoms: C_21  and  C_23
REMARK    6  A    between atoms: C_23  and  C_25
REMARK                            x       y       z     vdW  Elec       q    Type
REMARK                         _______ _______ _______ _____ _____    ______ ____
ROOT
ATOM      1  N   UNL     1      35.796 -20.513 -19.502  0.00  0.00    +0.390 N 
ATOM      2  C   UNL     1      36.897 -20.169 -20.409  0.00  0.00    -0.071 C 
ATOM      3  C   UNL     1      36.638 -18.804 -21.068  0.00  0.00    +0.021 C 
ATOM      4  C   UNL     1      34.530 -20.648 -20.241  0.00  0.00    -0.049 C 
ATOM      5  C   UNL     1      35.229 -18.664 -21.572  0.00  0.00    +0.037 C 
ATOM      6  C   UNL     1      34.267 -19.522 -21.202  0.00  0.00    -0.036 C 
ATOM      7  H   UNL     1      35.694 -19.752 -18.831  0.00  0.00    -0.079 HD
ENDROOT
BRANCH   5   9
ATOM      8  O   UNL     1      35.103 -18.722 -24.561  0.00  0.00    -0.246 OA
ATOM      9  N   UNL     1      34.976 -17.635 -22.434  0.00  0.00    -0.263 N 
ATOM     10  N   UNL     1      34.635 -16.420 -24.332  0.00  0.00    -0.305 N 
ATOM     11  C   UNL     1      34.714 -16.300 -22.072  0.00  0.00    +0.083 A 
ATOM     12  C   UNL     1      34.930 -17.731 -23.864  0.00  0.00    +0.332 A 
ATOM     13  C   UNL     1      34.508 -15.566 -23.238  0.00  0.00    +0.076 A 
ATOM     14  C   UNL     1      34.647 -15.701 -20.830  0.00  0.00    +0.019 C 
ATOM     15  C   UNL     1      34.228 -14.217 -23.227  0.00  0.00    +0.019 C 
ATOM     16  C   UNL     1      34.365 -14.331 -20.792  0.00  0.00    +0.002 C 
ATOM     17  C   UNL     1      34.157 -13.597 -21.978  0.00  0.00    +0.002 C 
ATOM     18  H   UNL     1      34.537 -16.157 -25.276  0.00  0.00    +0.170 HD
ENDBRANCH   5   9
BRANCH   1  19
ATOM     19  C   UNL     1      36.092 -21.735 -18.755  0.00  0.00    -0.076 C 
BRANCH  19  20
ATOM     20  C   UNL     1      34.852 -22.627 -18.688  0.00  0.00    -0.015 C 
BRANCH  20  21
ATOM     21  C   UNL     1      34.373 -22.849 -17.250  0.00  0.00    +0.067 C 
BRANCH  21  23
ATOM     22  O   UNL     1      32.149 -22.241 -17.965  0.00  0.00    -0.291 OA
ATOM     23  C   UNL     1      32.864 -22.723 -17.090  0.00  0.00    +0.173 C 
BRANCH  23  25
ATOM     24  F   UNL     1      30.506 -24.579 -12.382  0.00  0.00    -0.204 F 
ATOM     25  C   UNL     1      32.236 -23.220 -15.833  0.00  0.00    +0.035 C 
ATOM     26  C   UNL     1      30.863 -23.305 -15.770  0.00  0.00    +0.005 C 
ATOM     27  C   UNL     1      33.050 -23.574 -14.781  0.00  0.00    +0.005 C 
ATOM     28  C   UNL     1      30.273 -23.768 -14.594  0.00  0.00    +0.030 C 
ATOM     29  C   UNL     1      32.461 -24.037 -13.604  0.00  0.00    +0.030 C 
ATOM     30  C   UNL     1      31.072 -24.134 -13.511  0.00  0.00    +0.140 C 
ENDBRANCH  23  25
ENDBRANCH  21  23
ENDBRANCH  20  21
ENDBRANCH  19  20
ENDBRANCH   1  19
TORSDOF 6
ENDMDL
MODEL 7
REMARK VINA RESULT:     -10.9      5.348     11.575
REMARK  Name = 3168
REMARK  6 active torsions:
REMARK  status: ('A' for Active; 'I' for Inactive)
REMARK    1  A    between atoms: N_1  and  C_19
REMARK    2  A    between atoms: C_5  and  N_9
REMARK    3  A    between atoms: C_19  and  C_20
REMARK    4  A    between atoms: C_20  and  C_21
REMARK    5  A    between atoms: C_21  and  C_23
REMARK    6  A    between atoms: C_23  and  C_25
REMARK                            x       y       z     vdW  Elec       q    Type
REMARK                         _______ _______ _______ _____ _____    ______ ____
ROOT
ATOM      1  N   UNL     1      31.607  -9.602 -20.336  0.00  0.00    +0.390 N 
ATOM      2  C   UNL     1      32.613  -8.602 -19.958  0.00  0.00    -0.071 C 
ATOM      3  C   UNL     1      32.253  -7.232 -20.554  0.00  0.00    +0.021 C 
ATOM      4  C   UNL     1      31.574  -9.786 -21.796  0.00  0.00    -0.049 C 
ATOM      5  C   UNL     1      31.842  -7.319 -21.997  0.00  0.00    +0.037 C 
ATOM      6  C   UNL     1      31.546  -8.496 -22.568  0.00  0.00    -0.036 C 
ATOM      7  H   UNL     1      30.695  -9.256 -20.036  0.00  0.00    -0.079 HD
ENDROOT
BRANCH   5   9
ATOM      8  O   UNL     1      29.943  -5.025 -21.702  0.00  0.00    -0.246 OA
ATOM      9  N   UNL     1      31.800  -6.151 -22.703  0.00  0.00    -0.263 N 
ATOM     10  N   UNL     1      31.201  -4.088 -23.465  0.00  0.00    -0.305 N 
ATOM     11  C   UNL     1      32.674  -5.785 -23.745  0.00  0.00    +0.083 A 
ATOM     12  C   UNL     1      30.858  -5.087 -22.511  0.00  0.00    +0.332 A 
ATOM     13  C   UNL     1      32.299  -4.524 -24.203  0.00  0.00    +0.076 A 
ATOM     14  C   UNL     1      33.741  -6.459 -24.303  0.00  0.00    +0.019 C 
ATOM     15  C   UNL     1      32.960  -3.879 -25.226  0.00  0.00    +0.019 C 
ATOM     16  C   UNL     1      34.428  -5.825 -25.344  0.00  0.00    +0.002 C 
ATOM     17  C   UNL     1      34.042  -4.548 -25.800  0.00  0.00    +0.002 C 
ATOM     18  H   UNL     1      30.737  -3.227 -23.584  0.00  0.00    +0.170 HD
ENDBRANCH   5   9
BRANCH   1  19
ATOM     19  C   UNL     1      31.851 -10.875 -19.659  0.00  0.00    -0.076 C 
BRANCH  19  20
ATOM     20  C   UNL     1      31.446 -12.040 -20.564  0.00  0.00    -0.015 C 
BRANCH  20  21
ATOM     21  C   UNL     1      32.455 -13.191 -20.515  0.00  0.00    +0.067 C 
BRANCH  21  23
ATOM     22  O   UNL     1      33.002 -12.727 -22.820  0.00  0.00    -0.291 OA
ATOM     23  C   UNL     1      33.091 -13.494 -21.864  0.00  0.00    +0.173 C 
BRANCH  23  25
ATOM     24  F   UNL     1      35.985 -18.232 -22.455  0.00  0.00    -0.204 F 
ATOM     25  C   UNL     1      33.865 -14.759 -22.021  0.00  0.00    +0.035 C 
ATOM     26  C   UNL     1      34.209 -15.169 -23.290  0.00  0.00    +0.005 C 
ATOM     27  C   UNL     1      34.206 -15.470 -20.893  0.00  0.00    +0.005 C 
ATOM     28  C   UNL     1      34.932 -16.353 -23.437  0.00  0.00    +0.030 C 
ATOM     29  C   UNL     1      34.928 -16.654 -21.040  0.00  0.00    +0.030 C 
ATOM     30  C   UNL     1      35.291 -17.096 -22.313  0.00  0.00    +0.140 C 
ENDBRANCH  23  25
ENDBRANCH  21  23
ENDBRANCH  20  21
ENDBRANCH  19  20
ENDBRANCH   1  19
TORSDOF 6
ENDMDL
MODEL 8
REMARK VINA RESULT:     -10.8      4.344      9.472
REMARK  Name = 3168
REMARK  6 active torsions:
REMARK  status: ('A' for Active; 'I' for Inactive)
REMARK    1  A    between atoms: N_1  and  C_19
REMARK    2  A    between atoms: C_5  and  N_9
REMARK    3  A    between atoms: C_19  and  C_20
REMARK    4  A    between atoms: C_20  and  C_21
REMARK    5  A    between atoms: C_21  and  C_23
REMARK    6  A    between atoms: C_23  and  C_25
REMARK                            x       y       z     vdW  Elec       q    Type
REMARK                         _______ _______ _______ _____ _____    ______ ____
ROOT
ATOM      1  N   UNL     1      35.205 -21.269 -18.829  0.00  0.00    +0.390 N 
ATOM      2  C   UNL     1      36.333 -21.256 -19.769  0.00  0.00    -0.071 C 
ATOM      3  C   UNL     1      36.348 -19.940 -20.564  0.00  0.00    +0.021 C 
ATOM      4  C   UNL     1      33.922 -21.210 -19.550  0.00  0.00    -0.049 C 
ATOM      5  C   UNL     1      34.988 -19.559 -21.078  0.00  0.00    +0.037 C 
ATOM      6  C   UNL     1      33.877 -20.156 -20.621  0.00  0.00    -0.036 C 
ATOM      7  H   UNL     1      35.280 -20.440 -18.240  0.00  0.00    -0.079 HD
ENDROOT
BRANCH   5   9
ATOM      8  O   UNL     1      35.149 -19.873 -24.049  0.00  0.00    -0.246 OA
ATOM      9  N   UNL     1      34.935 -18.592 -22.041  0.00  0.00    -0.263 N 
ATOM     10  N   UNL     1      34.917 -17.524 -24.054  0.00  0.00    -0.305 N 
ATOM     11  C   UNL     1      34.788 -17.210 -21.815  0.00  0.00    +0.083 A 
ATOM     12  C   UNL     1      35.019 -18.811 -23.455  0.00  0.00    +0.332 A 
ATOM     13  C   UNL     1      34.779 -16.567 -23.051  0.00  0.00    +0.076 A 
ATOM     14  C   UNL     1      34.667 -16.498 -20.639  0.00  0.00    +0.019 C 
ATOM     15  C   UNL     1      34.649 -15.201 -23.177  0.00  0.00    +0.019 C 
ATOM     16  C   UNL     1      34.534 -15.109 -20.740  0.00  0.00    +0.002 C 
ATOM     17  C   UNL     1      34.525 -14.467 -21.995  0.00  0.00    +0.002 C 
ATOM     18  H   UNL     1      34.941 -17.340 -25.022  0.00  0.00    +0.170 HD
ENDBRANCH   5   9
BRANCH   1  19
ATOM     19  C   UNL     1      35.258 -22.445 -17.962  0.00  0.00    -0.076 C 
BRANCH  19  20
ATOM     20  C   UNL     1      36.268 -22.224 -16.834  0.00  0.00    -0.015 C 
BRANCH  20  21
ATOM     21  C   UNL     1      35.633 -22.370 -15.448  0.00  0.00    +0.067 C 
BRANCH  21  23
ATOM     22  O   UNL     1      35.191 -24.741 -15.334  0.00  0.00    -0.291 OA
ATOM     23  C   UNL     1      34.741 -23.597 -15.319  0.00  0.00    +0.173 C 
BRANCH  23  25
ATOM     24  F   UNL     1      29.243 -22.861 -14.681  0.00  0.00    -0.204 F 
ATOM     25  C   UNL     1      33.273 -23.399 -15.149  0.00  0.00    +0.035 C 
ATOM     26  C   UNL     1      32.742 -23.451 -13.880  0.00  0.00    +0.005 C 
ATOM     27  C   UNL     1      32.503 -23.173 -16.267  0.00  0.00    +0.005 C 
ATOM     28  C   UNL     1      31.369 -23.268 -13.720  0.00  0.00    +0.030 C 
ATOM     29  C   UNL     1      31.129 -22.990 -16.109  0.00  0.00    +0.030 C 
ATOM     30  C   UNL     1      30.562 -23.037 -14.834  0.00  0.00    +0.140 C 
ENDBRANCH  23  25
ENDBRANCH  21  23
ENDBRANCH  20  21
ENDBRANCH  19  20
ENDBRANCH   1  19
TORSDOF 6
ENDMDL
MODEL 9
REMARK VINA RESULT:     -10.8      3.709      6.302
REMARK  Name = 3168
REMARK  6 active torsions:
REMARK  status: ('A' for Active; 'I' for Inactive)
REMARK    1  A    between atoms: N_1  and  C_19
REMARK    2  A    between atoms: C_5  and  N_9
REMARK    3  A    between atoms: C_19  and  C_20
REMARK    4  A    between atoms: C_20  and  C_21
REMARK    5  A    between atoms: C_21  and  C_23
REMARK    6  A    between atoms: C_23  and  C_25
REMARK                            x       y       z     vdW  Elec       q    Type
REMARK                         _______ _______ _______ _____ _____    ______ ____
ROOT
ATOM      1  N   UNL     1      32.458 -10.679 -21.824  0.00  0.00    +0.390 N 
ATOM      2  C   UNL     1      31.519 -11.806 -21.791  0.00  0.00    -0.071 C 
ATOM      3  C   UNL     1      32.270 -13.131 -21.994  0.00  0.00    +0.021 C 
ATOM      4  C   UNL     1      33.113 -10.581 -23.138  0.00  0.00    -0.049 C 
ATOM      5  C   UNL     1      33.265 -13.066 -23.118  0.00  0.00    +0.037 C 
ATOM      6  C   UNL     1      33.638 -11.893 -23.652  0.00  0.00    -0.036 C 
ATOM      7  H   UNL     1      33.176 -10.850 -21.120  0.00  0.00    -0.079 HD
ENDROOT
BRANCH   5   9
ATOM      8  O   UNL     1      33.491 -14.014 -25.947  0.00  0.00    -0.246 OA
ATOM      9  N   UNL     1      33.759 -14.251 -23.583  0.00  0.00    -0.263 N 
ATOM     10  N   UNL     1      34.417 -15.946 -24.958  0.00  0.00    -0.305 N 
ATOM     11  C   UNL     1      34.277 -15.295 -22.793  0.00  0.00    +0.083 A 
ATOM     12  C   UNL     1      33.839 -14.646 -24.959  0.00  0.00    +0.332 A 
ATOM     13  C   UNL     1      34.676 -16.326 -23.642  0.00  0.00    +0.076 A 
ATOM     14  C   UNL     1      34.419 -15.404 -21.425  0.00  0.00    +0.019 C 
ATOM     15  C   UNL     1      35.229 -17.499 -23.178  0.00  0.00    +0.019 C 
ATOM     16  C   UNL     1      34.978 -16.586 -20.927  0.00  0.00    +0.002 C 
ATOM     17  C   UNL     1      35.378 -17.623 -21.795  0.00  0.00    +0.002 C 
ATOM     18  H   UNL     1      34.604 -16.490 -25.757  0.00  0.00    +0.170 HD
ENDBRANCH   5   9
BRANCH   1  19
ATOM     19  C   UNL     1      31.785  -9.425 -21.486  0.00  0.00    -0.076 C 
BRANCH  19  20
ATOM     20  C   UNL     1      32.245  -8.932 -20.113  0.00  0.00    -0.015 C 
BRANCH  20  21
ATOM     21  C   UNL     1      33.002  -7.603 -20.197  0.00  0.00    +0.067 C 
BRANCH  21  23
ATOM     22  O   UNL     1      31.385  -6.059 -21.106  0.00  0.00    -0.291 OA
ATOM     23  C   UNL     1      32.448  -6.657 -21.253  0.00  0.00    +0.173 C 
BRANCH  23  25
ATOM     24  F   UNL     1      35.403  -5.834 -25.918  0.00  0.00    -0.204 F 
ATOM     25  C   UNL     1      33.235  -6.438 -22.500  0.00  0.00    +0.035 C 
ATOM     26  C   UNL     1      34.447  -7.078 -22.636  0.00  0.00    +0.005 C 
ATOM     27  C   UNL     1      32.724  -5.604 -23.467  0.00  0.00    +0.005 C 
ATOM     28  C   UNL     1      35.186  -6.872 -23.801  0.00  0.00    +0.030 C 
ATOM     29  C   UNL     1      33.462  -5.397 -24.633  0.00  0.00    +0.030 C 
ATOM     30  C   UNL     1      34.694  -6.032 -24.800  0.00  0.00    +0.140 C 
ENDBRANCH  23  25
ENDBRANCH  21  23
ENDBRANCH  20  21
ENDBRANCH  19  20
ENDBRANCH   1  19
TORSDOF 6
ENDMDL
