MODEL 1
REMARK VINA RESULT:     -11.0      0.000      0.000
REMARK  Name = 5289411
REMARK  6 active torsions:
REMARK  status: ('A' for Active; 'I' for Inactive)
REMARK    1  A    between atoms: N_3  and  C_9
REMARK    2  A    between atoms: C_4  and  O_25
REMARK    3  A    between atoms: C_5  and  N_24
REMARK    4  A    between atoms: C_12  and  C_17
REMARK    5  A    between atoms: O_25  and  C_26
REMARK    6  A    between atoms: C_26  and  C_27
REMARK                            x       y       z     vdW  Elec       q    Type
REMARK                         _______ _______ _______ _____ _____    ______ ____
ROOT
ATOM      1  N   UNL     1      33.835 -23.817 -15.653  0.00  0.00    -0.293 NA
ATOM      2  N   UNL     1      32.315 -23.862 -13.783  0.00  0.00    -0.316 NA
ATOM      3  N   UNL     1      34.523 -24.626 -13.561  0.00  0.00    -0.238 N 
ATOM      4  C   UNL     1      32.841 -23.292 -16.398  0.00  0.00    +0.292 C 
ATOM      5  C   UNL     1      31.577 -23.027 -15.916  0.00  0.00    +0.261 C 
ATOM      6  C   UNL     1      31.368 -23.335 -14.587  0.00  0.00    +0.196 C 
ATOM      7  C   UNL     1      33.508 -24.075 -14.372  0.00  0.00    +0.207 C 
ATOM      8  H   UNL     1      34.238 -24.799 -12.633  0.00  0.00    +0.166 HD
ATOM      9  N   UNL     1      30.093 -23.091 -14.017  0.00  0.00    -0.334 N 
ATOM     10  H   UNL     1      29.928 -23.306 -13.070  0.00  0.00    +0.144 HD
ATOM     11  H   UNL     1      29.373 -22.707 -14.567  0.00  0.00    +0.144 HD
ENDROOT
BRANCH   3  12
ATOM     12  C   UNL     1      35.860 -24.978 -13.817  0.00  0.00    +0.058 C 
ATOM     13  C   UNL     1      36.155 -26.133 -14.545  0.00  0.00    +0.015 C 
ATOM     14  C   UNL     1      36.899 -24.174 -13.342  0.00  0.00    +0.015 C 
ATOM     15  C   UNL     1      38.517 -25.677 -14.321  0.00  0.00    +0.053 C 
ATOM     16  C   UNL     1      37.482 -26.482 -14.796  0.00  0.00    +0.006 C 
ATOM     17  C   UNL     1      38.226 -24.523 -13.593  0.00  0.00    +0.006 C 
BRANCH  15  20
ATOM     18  O   UNL     1      40.428 -25.832 -15.689  0.00  0.00    -0.270 OA
ATOM     19  N   UNL     1      40.625 -26.622 -13.546  0.00  0.00    -0.325 N 
ATOM     20  C   UNL     1      39.900 -26.043 -14.582  0.00  0.00    +0.243 C 
ATOM     21  H   UNL     1      41.564 -26.882 -13.687  0.00  0.00    +0.145 HD
ATOM     22  H   UNL     1      40.199 -26.771 -12.671  0.00  0.00    +0.145 HD
ENDBRANCH  15  20
ENDBRANCH   3  12
BRANCH   5  24
ATOM     23  O   UNL     1      29.565 -23.175 -16.766  0.00  0.00    -0.099 OA
ATOM     24  N   UNL     1      30.597 -22.491 -16.717  0.00  0.00    -0.030 NA
ENDBRANCH   5  24
BRANCH   4  25
ATOM     25  O   UNL     1      33.156 -23.023 -17.707  0.00  0.00    -0.453 OA
BRANCH  25  26
ATOM     26  C   UNL     1      34.519 -22.781 -18.005  0.00  0.00    +0.208 C 
BRANCH  26  27
ATOM     27  C   UNL     1      34.598 -21.993 -19.310  0.00  0.00    +0.044 C 
ATOM     28  C   UNL     1      33.379 -21.072 -19.460  0.00  0.00    +0.004 C 
ATOM     29  C   UNL     1      35.902 -21.188 -19.380  0.00  0.00    +0.004 C 
ATOM     30  C   UNL     1      33.461 -20.233 -20.734  0.00  0.00    +0.000 C 
ATOM     31  C   UNL     1      35.980 -20.349 -20.653  0.00  0.00    +0.000 C 
ATOM     32  C   UNL     1      34.763 -19.442 -20.803  0.00  0.00    +0.000 C 
ENDBRANCH  26  27
ENDBRANCH  25  26
ENDBRANCH   4  25
TORSDOF 6
ENDMDL
MODEL 2
REMARK VINA RESULT:     -10.7      3.019      6.964
REMARK  Name = 5289411
REMARK  6 active torsions:
REMARK  status: ('A' for Active; 'I' for Inactive)
REMARK    1  A    between atoms: N_3  and  C_9
REMARK    2  A    between atoms: C_4  and  O_25
REMARK    3  A    between atoms: C_5  and  N_24
REMARK    4  A    between atoms: C_12  and  C_17
REMARK    5  A    between atoms: O_25  and  C_26
REMARK    6  A    between atoms: C_26  and  C_27
REMARK                            x       y       z     vdW  Elec       q    Type
REMARK                         _______ _______ _______ _____ _____    ______ ____
ROOT
ATOM      1  N   UNL     1      35.307 -23.816 -13.948  0.00  0.00    -0.293 NA
ATOM      2  N   UNL     1      37.627 -23.845 -13.297  0.00  0.00    -0.316 NA
ATOM      3  N   UNL     1      36.970 -22.987 -15.379  0.00  0.00    -0.238 N 
ATOM      4  C   UNL     1      35.007 -24.382 -12.761  0.00  0.00    +0.292 C 
ATOM      5  C   UNL     1      35.945 -24.706 -11.805  0.00  0.00    +0.261 C 
ATOM      6  C   UNL     1      37.254 -24.411 -12.130  0.00  0.00    +0.196 C 
ATOM      7  C   UNL     1      36.617 -23.579 -14.147  0.00  0.00    +0.207 C 
ATOM      8  H   UNL     1      37.938 -22.832 -15.482  0.00  0.00    +0.166 HD
ATOM      9  N   UNL     1      38.279 -24.714 -11.197  0.00  0.00    -0.334 N 
ATOM     10  H   UNL     1      39.217 -24.510 -11.414  0.00  0.00    +0.144 HD
ATOM     11  H   UNL     1      38.051 -25.127 -10.333  0.00  0.00    +0.144 HD
ENDROOT
BRANCH   3  12
ATOM     12  C   UNL     1      36.211 -22.574 -16.489  0.00  0.00    +0.058 C 
ATOM     13  C   UNL     1      34.848 -22.870 -16.556  0.00  0.00    +0.015 C 
ATOM     14  C   UNL     1      36.818 -21.868 -17.530  0.00  0.00    +0.015 C 
ATOM     15  C   UNL     1      34.706 -21.757 -18.695  0.00  0.00    +0.053 C 
ATOM     16  C   UNL     1      34.096 -22.462 -17.658  0.00  0.00    +0.006 C 
ATOM     17  C   UNL     1      36.067 -21.459 -18.632  0.00  0.00    +0.006 C 
BRANCH  15  20
ATOM     18  O   UNL     1      32.749 -21.716 -20.006  0.00  0.00    -0.270 OA
ATOM     19  N   UNL     1      34.520 -20.465 -20.754  0.00  0.00    -0.325 N 
ATOM     20  C   UNL     1      33.921 -21.333 -19.845  0.00  0.00    +0.243 C 
ATOM     21  H   UNL     1      34.019 -20.157 -21.543  0.00  0.00    +0.145 HD
ATOM     22  H   UNL     1      35.444 -20.160 -20.606  0.00  0.00    +0.145 HD
ENDBRANCH  15  20
ENDBRANCH   3  12
BRANCH   5  24
ATOM     23  O   UNL     1      35.586 -24.490  -9.656  0.00  0.00    -0.099 OA
ATOM     24  N   UNL     1      35.589 -25.283 -10.610  0.00  0.00    -0.030 NA
ENDBRANCH   5  24
BRANCH   4  25
ATOM     25  O   UNL     1      33.675 -24.633 -12.540  0.00  0.00    -0.453 OA
BRANCH  25  26
ATOM     26  C   UNL     1      32.762 -23.604 -12.874  0.00  0.00    +0.208 C 
BRANCH  26  27
ATOM     27  C   UNL     1      31.854 -24.105 -13.995  0.00  0.00    +0.044 C 
ATOM     28  C   UNL     1      30.758 -25.021 -13.434  0.00  0.00    +0.004 C 
ATOM     29  C   UNL     1      31.241 -22.928 -14.764  0.00  0.00    +0.004 C 
ATOM     30  C   UNL     1      29.804 -25.494 -14.529  0.00  0.00    +0.000 C 
ATOM     31  C   UNL     1      30.286 -23.403 -15.857  0.00  0.00    +0.000 C 
ATOM     32  C   UNL     1      29.204 -24.321 -15.296  0.00  0.00    +0.000 C 
ENDBRANCH  26  27
ENDBRANCH  25  26
ENDBRANCH   4  25
TORSDOF 6
ENDMDL
MODEL 3
REMARK VINA RESULT:     -10.7      2.101      6.615
REMARK  Name = 5289411
REMARK  6 active torsions:
REMARK  status: ('A' for Active; 'I' for Inactive)
REMARK    1  A    between atoms: N_3  and  C_9
REMARK    2  A    between atoms: C_4  and  O_25
REMARK    3  A    between atoms: C_5  and  N_24
REMARK    4  A    between atoms: C_12  and  C_17
REMARK    5  A    between atoms: O_25  and  C_26
REMARK    6  A    between atoms: C_26  and  C_27
REMARK                            x       y       z     vdW  Elec       q    Type
REMARK                         _______ _______ _______ _____ _____    ______ ____
ROOT
ATOM      1  N   UNL     1      34.403 -23.404 -15.059  0.00  0.00    -0.293 NA
ATOM      2  N   UNL     1      35.138 -24.299 -12.946  0.00  0.00    -0.316 NA
ATOM      3  N   UNL     1      32.860 -24.249 -13.507  0.00  0.00    -0.238 N 
ATOM      4  C   UNL     1      35.693 -23.151 -15.357  0.00  0.00    +0.292 C 
ATOM      5  C   UNL     1      36.747 -23.438 -14.515  0.00  0.00    +0.261 C 
ATOM      6  C   UNL     1      36.407 -24.018 -13.310  0.00  0.00    +0.196 C 
ATOM      7  C   UNL     1      34.199 -23.970 -13.854  0.00  0.00    +0.207 C 
ATOM      8  H   UNL     1      32.759 -24.662 -12.618  0.00  0.00    +0.166 HD
ATOM      9  N   UNL     1      37.435 -24.344 -12.389  0.00  0.00    -0.334 N 
ATOM     10  H   UNL     1      37.208 -24.758 -11.525  0.00  0.00    +0.144 HD
ATOM     11  H   UNL     1      38.374 -24.157 -12.614  0.00  0.00    +0.144 HD
ENDROOT
BRANCH   3  12
ATOM     12  C   UNL     1      31.641 -24.054 -14.180  0.00  0.00    +0.058 C 
ATOM     13  C   UNL     1      31.320 -22.798 -14.699  0.00  0.00    +0.015 C 
ATOM     14  C   UNL     1      30.746 -25.115 -14.332  0.00  0.00    +0.015 C 
ATOM     15  C   UNL     1      29.218 -23.666 -15.515  0.00  0.00    +0.053 C 
ATOM     16  C   UNL     1      30.110 -22.604 -15.366  0.00  0.00    +0.006 C 
ATOM     17  C   UNL     1      29.536 -24.922 -14.998  0.00  0.00    +0.006 C 
BRANCH  15  20
ATOM     18  O   UNL     1      27.651 -24.137 -17.209  0.00  0.00    -0.270 OA
ATOM     19  N   UNL     1      27.087 -22.499 -15.706  0.00  0.00    -0.325 N 
ATOM     20  C   UNL     1      27.956 -23.463 -16.209  0.00  0.00    +0.243 C 
ATOM     21  H   UNL     1      26.224 -22.335 -16.150  0.00  0.00    +0.145 HD
ATOM     22  H   UNL     1      27.336 -21.983 -14.906  0.00  0.00    +0.145 HD
ENDBRANCH  15  20
ENDBRANCH   3  12
BRANCH   5  24
ATOM     23  O   UNL     1      38.783 -24.158 -14.871  0.00  0.00    -0.099 OA
ATOM     24  N   UNL     1      38.046 -23.161 -14.865  0.00  0.00    -0.030 NA
ENDBRANCH   5  24
BRANCH   4  25
ATOM     25  O   UNL     1      35.920 -22.573 -16.581  0.00  0.00    -0.453 OA
BRANCH  25  26
ATOM     26  C   UNL     1      35.007 -22.882 -17.618  0.00  0.00    +0.208 C 
BRANCH  26  27
ATOM     27  C   UNL     1      34.789 -21.628 -18.462  0.00  0.00    +0.044 C 
ATOM     28  C   UNL     1      35.887 -21.494 -19.526  0.00  0.00    +0.004 C 
ATOM     29  C   UNL     1      33.399 -21.646 -19.111  0.00  0.00    +0.004 C 
ATOM     30  C   UNL     1      35.661 -20.274 -20.418  0.00  0.00    +0.000 C 
ATOM     31  C   UNL     1      33.176 -20.427 -20.004  0.00  0.00    +0.000 C 
ATOM     32  C   UNL     1      34.275 -20.293 -21.054  0.00  0.00    +0.000 C 
ENDBRANCH  26  27
ENDBRANCH  25  26
ENDBRANCH   4  25
TORSDOF 6
ENDMDL
MODEL 4
REMARK VINA RESULT:     -10.5      2.668      5.341
REMARK  Name = 5289411
REMARK  6 active torsions:
REMARK  status: ('A' for Active; 'I' for Inactive)
REMARK    1  A    between atoms: N_3  and  C_9
REMARK    2  A    between atoms: C_4  and  O_25
REMARK    3  A    between atoms: C_5  and  N_24
REMARK    4  A    between atoms: C_12  and  C_17
REMARK    5  A    between atoms: O_25  and  C_26
REMARK    6  A    between atoms: C_26  and  C_27
REMARK                            x       y       z     vdW  Elec       q    Type
REMARK                         _______ _______ _______ _____ _____    ______ ____
ROOT
ATOM      1  N   UNL     1      34.849 -22.713 -17.194  0.00  0.00    -0.293 NA
ATOM      2  N   UNL     1      36.229 -21.286 -18.560  0.00  0.00    -0.316 NA
ATOM      3  N   UNL     1      37.077 -22.273 -16.608  0.00  0.00    -0.238 N 
ATOM      4  C   UNL     1      33.841 -22.507 -18.066  0.00  0.00    +0.292 C 
ATOM      5  C   UNL     1      33.946 -21.716 -19.190  0.00  0.00    +0.261 C 
ATOM      6  C   UNL     1      35.177 -21.124 -19.390  0.00  0.00    +0.196 C 
ATOM      7  C   UNL     1      35.999 -22.081 -17.498  0.00  0.00    +0.207 C 
ATOM      8  H   UNL     1      37.897 -21.792 -16.869  0.00  0.00    +0.166 HD
ATOM      9  N   UNL     1      35.365 -20.295 -20.525  0.00  0.00    -0.334 N 
ATOM     10  H   UNL     1      36.237 -19.866 -20.681  0.00  0.00    +0.144 HD
ATOM     11  H   UNL     1      34.625 -20.150 -21.156  0.00  0.00    +0.144 HD
ENDROOT
BRANCH   3  12
ATOM     12  C   UNL     1      37.212 -23.016 -15.422  0.00  0.00    +0.058 C 
ATOM     13  C   UNL     1      38.273 -23.914 -15.273  0.00  0.00    +0.015 C 
ATOM     14  C   UNL     1      36.286 -22.862 -14.388  0.00  0.00    +0.015 C 
ATOM     15  C   UNL     1      37.478 -24.496 -13.067  0.00  0.00    +0.053 C 
ATOM     16  C   UNL     1      38.405 -24.652 -14.097  0.00  0.00    +0.006 C 
ATOM     17  C   UNL     1      36.418 -23.601 -13.212  0.00  0.00    +0.006 C 
BRANCH  15  20
ATOM     18  O   UNL     1      37.737 -24.711 -10.736  0.00  0.00    -0.270 OA
ATOM     19  N   UNL     1      37.590 -26.655 -11.943  0.00  0.00    -0.325 N 
ATOM     20  C   UNL     1      37.616 -25.267 -11.842  0.00  0.00    +0.243 C 
ATOM     21  H   UNL     1      37.680 -27.209 -11.134  0.00  0.00    +0.145 HD
ATOM     22  H   UNL     1      37.480 -27.081 -12.823  0.00  0.00    +0.145 HD
ENDBRANCH  15  20
ENDBRANCH   3  12
BRANCH   5  24
ATOM     23  O   UNL     1      32.416 -20.391 -20.022  0.00  0.00    -0.099 OA
ATOM     24  N   UNL     1      32.888 -21.537 -20.048  0.00  0.00    -0.030 NA
ENDBRANCH   5  24
BRANCH   4  25
ATOM     25  O   UNL     1      32.660 -23.143 -17.772  0.00  0.00    -0.453 OA
BRANCH  25  26
ATOM     26  C   UNL     1      31.941 -22.678 -16.645  0.00  0.00    +0.208 C 
BRANCH  26  27
ATOM     27  C   UNL     1      31.775 -23.836 -15.663  0.00  0.00    +0.044 C 
ATOM     28  C   UNL     1      32.609 -23.595 -14.398  0.00  0.00    +0.004 C 
ATOM     29  C   UNL     1      30.296 -24.042 -15.312  0.00  0.00    +0.004 C 
ATOM     30  C   UNL     1      32.419 -24.714 -13.376  0.00  0.00    +0.000 C 
ATOM     31  C   UNL     1      30.109 -25.160 -14.289  0.00  0.00    +0.000 C 
ATOM     32  C   UNL     1      30.947 -24.921 -13.037  0.00  0.00    +0.000 C 
ENDBRANCH  26  27
ENDBRANCH  25  26
ENDBRANCH   4  25
TORSDOF 6
ENDMDL
MODEL 5
REMARK VINA RESULT:     -10.4      6.470      9.493
REMARK  Name = 5289411
REMARK  6 active torsions:
REMARK  status: ('A' for Active; 'I' for Inactive)
REMARK    1  A    between atoms: N_3  and  C_9
REMARK    2  A    between atoms: C_4  and  O_25
REMARK    3  A    between atoms: C_5  and  N_24
REMARK    4  A    between atoms: C_12  and  C_17
REMARK    5  A    between atoms: O_25  and  C_26
REMARK    6  A    between atoms: C_26  and  C_27
REMARK                            x       y       z     vdW  Elec       q    Type
REMARK                         _______ _______ _______ _____ _____    ______ ____
ROOT
ATOM      1  N   UNL     1      34.594 -17.372 -21.219  0.00  0.00    -0.293 NA
ATOM      2  N   UNL     1      35.260 -17.764 -23.501  0.00  0.00    -0.316 NA
ATOM      3  N   UNL     1      34.975 -19.549 -22.005  0.00  0.00    -0.238 N 
ATOM      4  C   UNL     1      34.574 -16.051 -21.493  0.00  0.00    +0.292 C 
ATOM      5  C   UNL     1      34.879 -15.517 -22.726  0.00  0.00    +0.261 C 
ATOM      6  C   UNL     1      35.219 -16.431 -23.704  0.00  0.00    +0.196 C 
ATOM      7  C   UNL     1      34.942 -18.160 -22.254  0.00  0.00    +0.207 C 
ATOM      8  H   UNL     1      35.234 -20.086 -22.789  0.00  0.00    +0.166 HD
ATOM      9  N   UNL     1      35.546 -15.960 -25.001  0.00  0.00    -0.334 N 
ATOM     10  H   UNL     1      35.791 -16.599 -25.709  0.00  0.00    +0.144 HD
ATOM     11  H   UNL     1      35.528 -14.995 -25.193  0.00  0.00    +0.144 HD
ENDROOT
BRANCH   3  12
ATOM     12  C   UNL     1      34.710 -20.317 -20.857  0.00  0.00    +0.058 C 
ATOM     13  C   UNL     1      35.760 -20.912 -20.153  0.00  0.00    +0.015 C 
ATOM     14  C   UNL     1      33.396 -20.490 -20.417  0.00  0.00    +0.015 C 
ATOM     15  C   UNL     1      34.183 -21.846 -18.579  0.00  0.00    +0.053 C 
ATOM     16  C   UNL     1      35.497 -21.675 -19.015  0.00  0.00    +0.006 C 
ATOM     17  C   UNL     1      33.132 -21.254 -19.279  0.00  0.00    +0.006 C 
BRANCH  15  20
ATOM     18  O   UNL     1      32.746 -22.917 -17.052  0.00  0.00    -0.270 OA
ATOM     19  N   UNL     1      34.997 -23.109 -16.660  0.00  0.00    -0.325 N 
ATOM     20  C   UNL     1      33.910 -22.643 -17.394  0.00  0.00    +0.243 C 
ATOM     21  H   UNL     1      34.850 -23.651 -15.852  0.00  0.00    +0.145 HD
ATOM     22  H   UNL     1      35.913 -22.895 -16.950  0.00  0.00    +0.145 HD
ENDBRANCH  15  20
ENDBRANCH   3  12
BRANCH   5  24
ATOM     23  O   UNL     1      34.113 -13.838 -23.902  0.00  0.00    -0.099 OA
ATOM     24  N   UNL     1      34.844 -14.163 -22.955  0.00  0.00    -0.030 NA
ENDBRANCH   5  24
BRANCH   4  25
ATOM     25  O   UNL     1      34.222 -15.232 -20.448  0.00  0.00    -0.453 OA
BRANCH  25  26
ATOM     26  C   UNL     1      32.853 -14.893 -20.327  0.00  0.00    +0.208 C 
BRANCH  26  27
ATOM     27  C   UNL     1      32.719 -13.375 -20.417  0.00  0.00    +0.044 C 
ATOM     28  C   UNL     1      32.025 -12.969 -21.724  0.00  0.00    +0.004 C 
ATOM     29  C   UNL     1      31.961 -12.825 -19.202  0.00  0.00    +0.004 C 
ATOM     30  C   UNL     1      31.831 -11.456 -21.813  0.00  0.00    +0.000 C 
ATOM     31  C   UNL     1      31.767 -11.313 -19.294  0.00  0.00    +0.000 C 
ATOM     32  C   UNL     1      31.084 -10.913 -20.599  0.00  0.00    +0.000 C 
ENDBRANCH  26  27
ENDBRANCH  25  26
ENDBRANCH   4  25
TORSDOF 6
ENDMDL
MODEL 6
REMARK VINA RESULT:     -10.3      7.719     10.993
REMARK  Name = 5289411
REMARK  6 active torsions:
REMARK  status: ('A' for Active; 'I' for Inactive)
REMARK    1  A    between atoms: N_3  and  C_9
REMARK    2  A    between atoms: C_4  and  O_25
REMARK    3  A    between atoms: C_5  and  N_24
REMARK    4  A    between atoms: C_12  and  C_17
REMARK    5  A    between atoms: O_25  and  C_26
REMARK    6  A    between atoms: C_26  and  C_27
REMARK                            x       y       z     vdW  Elec       q    Type
REMARK                         _______ _______ _______ _____ _____    ______ ____
ROOT
ATOM      1  N   UNL     1      34.498 -15.833 -22.900  0.00  0.00    -0.293 NA
ATOM      2  N   UNL     1      34.521 -16.154 -25.288  0.00  0.00    -0.316 NA
ATOM      3  N   UNL     1      35.164 -17.879 -23.834  0.00  0.00    -0.238 N 
ATOM      4  C   UNL     1      34.061 -14.575 -23.112  0.00  0.00    +0.292 C 
ATOM      5  C   UNL     1      33.834 -14.041 -24.362  0.00  0.00    +0.261 C 
ATOM      6  C   UNL     1      34.083 -14.885 -25.426  0.00  0.00    +0.196 C 
ATOM      7  C   UNL     1      34.705 -16.557 -24.016  0.00  0.00    +0.207 C 
ATOM      8  H   UNL     1      35.302 -18.370 -24.677  0.00  0.00    +0.166 HD
ATOM      9  N   UNL     1      33.872 -14.409 -26.745  0.00  0.00    -0.334 N 
ATOM     10  H   UNL     1      34.045 -14.999 -27.514  0.00  0.00    +0.144 HD
ATOM     11  H   UNL     1      33.553 -13.490 -26.891  0.00  0.00    +0.144 HD
ENDROOT
BRANCH   3  12
ATOM     12  C   UNL     1      35.462 -18.633 -22.685  0.00  0.00    +0.058 C 
ATOM     13  C   UNL     1      36.721 -18.533 -22.088  0.00  0.00    +0.015 C 
ATOM     14  C   UNL     1      34.502 -19.487 -22.138  0.00  0.00    +0.015 C 
ATOM     15  C   UNL     1      36.056 -20.135 -20.406  0.00  0.00    +0.053 C 
ATOM     16  C   UNL     1      37.017 -19.283 -20.949  0.00  0.00    +0.006 C 
ATOM     17  C   UNL     1      34.798 -20.237 -21.000  0.00  0.00    +0.006 C 
BRANCH  15  20
ATOM     18  O   UNL     1      37.167 -20.505 -18.362  0.00  0.00    -0.270 OA
ATOM     19  N   UNL     1      35.722 -22.141 -19.063  0.00  0.00    -0.325 N 
ATOM     20  C   UNL     1      36.366 -20.918 -19.220  0.00  0.00    +0.243 C 
ATOM     21  H   UNL     1      35.907 -22.697 -18.273  0.00  0.00    +0.145 HD
ATOM     22  H   UNL     1      35.081 -22.449 -19.743  0.00  0.00    +0.145 HD
ENDBRANCH  15  20
ENDBRANCH   3  12
BRANCH   5  24
ATOM     23  O   UNL     1      34.255 -11.976 -24.954  0.00  0.00    -0.099 OA
ATOM     24  N   UNL     1      33.388 -12.751 -24.526  0.00  0.00    -0.030 NA
ENDBRANCH   5  24
BRANCH   4  25
ATOM     25  O   UNL     1      33.845 -13.821 -21.985  0.00  0.00    -0.453 OA
BRANCH  25  26
ATOM     26  C   UNL     1      32.721 -14.154 -21.193  0.00  0.00    +0.208 C 
BRANCH  26  27
ATOM     27  C   UNL     1      31.918 -12.882 -20.929  0.00  0.00    +0.044 C 
ATOM     28  C   UNL     1      32.022 -12.473 -19.454  0.00  0.00    +0.004 C 
ATOM     29  C   UNL     1      32.388 -11.745 -21.846  0.00  0.00    +0.004 C 
ATOM     30  C   UNL     1      31.270 -11.172 -19.176  0.00  0.00    +0.000 C 
ATOM     31  C   UNL     1      31.637 -10.446 -21.564  0.00  0.00    +0.000 C 
ATOM     32  C   UNL     1      31.735 -10.047 -20.095  0.00  0.00    +0.000 C 
ENDBRANCH  26  27
ENDBRANCH  25  26
ENDBRANCH   4  25
TORSDOF 6
ENDMDL
MODEL 7
REMARK VINA RESULT:     -10.1      1.919      6.535
REMARK  Name = 5289411
REMARK  6 active torsions:
REMARK  status: ('A' for Active; 'I' for Inactive)
REMARK    1  A    between atoms: N_3  and  C_9
REMARK    2  A    between atoms: C_4  and  O_25
REMARK    3  A    between atoms: C_5  and  N_24
REMARK    4  A    between atoms: C_12  and  C_17
REMARK    5  A    between atoms: O_25  and  C_26
REMARK    6  A    between atoms: C_26  and  C_27
REMARK                            x       y       z     vdW  Elec       q    Type
REMARK                         _______ _______ _______ _____ _____    ______ ____
ROOT
ATOM      1  N   UNL     1      35.367 -24.263 -14.282  0.00  0.00    -0.293 NA
ATOM      2  N   UNL     1      35.759 -25.456 -12.225  0.00  0.00    -0.316 NA
ATOM      3  N   UNL     1      33.583 -24.878 -12.887  0.00  0.00    -0.238 N 
ATOM      4  C   UNL     1      36.699 -24.269 -14.494  0.00  0.00    +0.292 C 
ATOM      5  C   UNL     1      37.611 -24.838 -13.632  0.00  0.00    +0.261 C 
ATOM      6  C   UNL     1      37.079 -25.424 -12.501  0.00  0.00    +0.196 C 
ATOM      7  C   UNL     1      34.971 -24.865 -13.144  0.00  0.00    +0.207 C 
ATOM      8  H   UNL     1      33.340 -25.328 -12.045  0.00  0.00    +0.166 HD
ATOM      9  N   UNL     1      37.954 -26.033 -11.566  0.00  0.00    -0.334 N 
ATOM     10  H   UNL     1      37.590 -26.455 -10.754  0.00  0.00    +0.144 HD
ATOM     11  H   UNL     1      38.925 -26.033 -11.728  0.00  0.00    +0.144 HD
ENDROOT
BRANCH   3  12
ATOM     12  C   UNL     1      32.479 -24.375 -13.598  0.00  0.00    +0.058 C 
ATOM     13  C   UNL     1      31.324 -25.149 -13.738  0.00  0.00    +0.015 C 
ATOM     14  C   UNL     1      32.533 -23.102 -14.170  0.00  0.00    +0.015 C 
ATOM     15  C   UNL     1      30.287 -23.379 -15.014  0.00  0.00    +0.053 C 
ATOM     16  C   UNL     1      30.229 -24.650 -14.445  0.00  0.00    +0.006 C 
ATOM     17  C   UNL     1      31.438 -22.604 -14.877  0.00  0.00    +0.006 C 
BRANCH  15  20
ATOM     18  O   UNL     1      29.274 -22.383 -16.893  0.00  0.00    -0.270 OA
ATOM     19  N   UNL     1      27.895 -22.933 -15.147  0.00  0.00    -0.325 N 
ATOM     20  C   UNL     1      29.145 -22.861 -15.752  0.00  0.00    +0.243 C 
ATOM     21  H   UNL     1      27.100 -22.592 -15.616  0.00  0.00    +0.145 HD
ATOM     22  H   UNL     1      27.806 -23.325 -14.248  0.00  0.00    +0.145 HD
ENDBRANCH  15  20
ENDBRANCH   3  12
BRANCH   5  24
ATOM     23  O   UNL     1      39.657 -24.590 -12.893  0.00  0.00    -0.099 OA
ATOM     24  N   UNL     1      38.960 -24.818 -13.893  0.00  0.00    -0.030 NA
ENDBRANCH   5  24
BRANCH   4  25
ATOM     25  O   UNL     1      37.120 -23.658 -15.649  0.00  0.00    -0.453 OA
BRANCH  25  26
ATOM     26  C   UNL     1      36.529 -22.414 -15.973  0.00  0.00    +0.208 C 
BRANCH  26  27
ATOM     27  C   UNL     1      35.960 -22.501 -17.388  0.00  0.00    +0.044 C 
ATOM     28  C   UNL     1      34.427 -22.447 -17.358  0.00  0.00    +0.004 C 
ATOM     29  C   UNL     1      36.529 -21.383 -18.271  0.00  0.00    +0.004 C 
ATOM     30  C   UNL     1      33.834 -22.479 -18.766  0.00  0.00    +0.000 C 
ATOM     31  C   UNL     1      35.934 -21.417 -19.677  0.00  0.00    +0.000 C 
ATOM     32  C   UNL     1      34.409 -21.371 -19.643  0.00  0.00    +0.000 C 
ENDBRANCH  26  27
ENDBRANCH  25  26
ENDBRANCH   4  25
TORSDOF 6
ENDMDL
MODEL 8
REMARK VINA RESULT:      -9.4     12.359     16.816
REMARK  Name = 5289411
REMARK  6 active torsions:
REMARK  status: ('A' for Active; 'I' for Inactive)
REMARK    1  A    between atoms: N_3  and  C_9
REMARK    2  A    between atoms: C_4  and  O_25
REMARK    3  A    between atoms: C_5  and  N_24
REMARK    4  A    between atoms: C_12  and  C_17
REMARK    5  A    between atoms: O_25  and  C_26
REMARK    6  A    between atoms: C_26  and  C_27
REMARK                            x       y       z     vdW  Elec       q    Type
REMARK                         _______ _______ _______ _____ _____    ______ ____
ROOT
ATOM      1  N   UNL     1      32.671  -9.528 -22.468  0.00  0.00    -0.293 NA
ATOM      2  N   UNL     1      32.017  -8.852 -20.250  0.00  0.00    -0.316 NA
ATOM      3  N   UNL     1      32.854  -7.290 -21.788  0.00  0.00    -0.238 N 
ATOM      4  C   UNL     1      32.320 -10.789 -22.146  0.00  0.00    +0.292 C 
ATOM      5  C   UNL     1      31.818 -11.157 -20.915  0.00  0.00    +0.261 C 
ATOM      6  C   UNL     1      31.687 -10.136 -19.996  0.00  0.00    +0.196 C 
ATOM      7  C   UNL     1      32.497  -8.622 -21.487  0.00  0.00    +0.207 C 
ATOM      8  H   UNL     1      32.710  -6.663 -21.041  0.00  0.00    +0.166 HD
ATOM      9  N   UNL     1      31.177 -10.433 -18.707  0.00  0.00    -0.334 N 
ATOM     10  H   UNL     1      31.077  -9.716 -18.039  0.00  0.00    +0.144 HD
ATOM     11  H   UNL     1      30.922 -11.356 -18.479  0.00  0.00    +0.144 HD
ENDROOT
BRANCH   3  12
ATOM     12  C   UNL     1      33.375  -6.682 -22.944  0.00  0.00    +0.058 C 
ATOM     13  C   UNL     1      34.715  -6.868 -23.291  0.00  0.00    +0.015 C 
ATOM     14  C   UNL     1      32.554  -5.888 -23.748  0.00  0.00    +0.015 C 
ATOM     15  C   UNL     1      34.409  -5.470 -25.238  0.00  0.00    +0.053 C 
ATOM     16  C   UNL     1      35.231  -6.262 -24.438  0.00  0.00    +0.006 C 
ATOM     17  C   UNL     1      33.070  -5.283 -24.895  0.00  0.00    +0.006 C 
BRANCH  15  20
ATOM     18  O   UNL     1      36.174  -4.787 -26.641  0.00  0.00    -0.270 OA
ATOM     19  N   UNL     1      34.047  -4.307 -27.349  0.00  0.00    -0.325 N 
ATOM     20  C   UNL     1      34.949  -4.839 -26.432  0.00  0.00    +0.243 C 
ATOM     21  H   UNL     1      34.376  -3.872 -28.168  0.00  0.00    +0.145 HD
ATOM     22  H   UNL     1      33.079  -4.366 -27.177  0.00  0.00    +0.145 HD
ENDBRANCH  15  20
ENDBRANCH   3  12
BRANCH   5  24
ATOM     23  O   UNL     1      32.375 -13.099 -20.074  0.00  0.00    -0.099 OA
ATOM     24  N   UNL     1      31.475 -12.457 -20.635  0.00  0.00    -0.030 NA
ENDBRANCH   5  24
BRANCH   4  25
ATOM     25  O   UNL     1      32.492 -11.727 -23.134  0.00  0.00    -0.453 OA
BRANCH  25  26
ATOM     26  C   UNL     1      33.778 -12.303 -23.259  0.00  0.00    +0.208 C 
BRANCH  26  27
ATOM     27  C   UNL     1      33.619 -13.751 -23.719  0.00  0.00    +0.044 C 
ATOM     28  C   UNL     1      33.624 -13.835 -25.251  0.00  0.00    +0.004 C 
ATOM     29  C   UNL     1      34.719 -14.635 -23.119  0.00  0.00    +0.004 C 
ATOM     30  C   UNL     1      33.519 -15.279 -25.737  0.00  0.00    +0.000 C 
ATOM     31  C   UNL     1      34.613 -16.078 -23.608  0.00  0.00    +0.000 C 
ATOM     32  C   UNL     1      34.610 -16.156 -25.131  0.00  0.00    +0.000 C 
ENDBRANCH  26  27
ENDBRANCH  25  26
ENDBRANCH   4  25
TORSDOF 6
ENDMDL
MODEL 9
REMARK VINA RESULT:      -9.3      3.184      7.690
REMARK  Name = 5289411
REMARK  6 active torsions:
REMARK  status: ('A' for Active; 'I' for Inactive)
REMARK    1  A    between atoms: N_3  and  C_9
REMARK    2  A    between atoms: C_4  and  O_25
REMARK    3  A    between atoms: C_5  and  N_24
REMARK    4  A    between atoms: C_12  and  C_17
REMARK    5  A    between atoms: O_25  and  C_26
REMARK    6  A    between atoms: C_26  and  C_27
REMARK                            x       y       z     vdW  Elec       q    Type
REMARK                         _______ _______ _______ _____ _____    ______ ____
ROOT
ATOM      1  N   UNL     1      35.045 -22.364 -17.620  0.00  0.00    -0.293 NA
ATOM      2  N   UNL     1      37.098 -22.364 -16.357  0.00  0.00    -0.316 NA
ATOM      3  N   UNL     1      36.899 -21.116 -18.334  0.00  0.00    -0.238 N 
ATOM      4  C   UNL     1      34.524 -23.201 -16.699  0.00  0.00    +0.292 C 
ATOM      5  C   UNL     1      35.215 -23.657 -15.597  0.00  0.00    +0.261 C 
ATOM      6  C   UNL     1      36.512 -23.202 -15.475  0.00  0.00    +0.196 C 
ATOM      7  C   UNL     1      36.319 -21.992 -17.391  0.00  0.00    +0.207 C 
ATOM      8  H   UNL     1      37.830 -20.871 -18.126  0.00  0.00    +0.166 HD
ATOM      9  N   UNL     1      37.289 -23.626 -14.368  0.00  0.00    -0.334 N 
ATOM     10  H   UNL     1      38.216 -23.310 -14.266  0.00  0.00    +0.144 HD
ATOM     11  H   UNL     1      36.901 -24.236 -13.700  0.00  0.00    +0.144 HD
ENDROOT
BRANCH   3  12
ATOM     12  C   UNL     1      36.408 -20.525 -19.512  0.00  0.00    +0.058 C 
ATOM     13  C   UNL     1      37.207 -19.637 -20.236  0.00  0.00    +0.015 C 
ATOM     14  C   UNL     1      35.119 -20.821 -19.960  0.00  0.00    +0.015 C 
ATOM     15  C   UNL     1      35.431 -19.347 -21.849  0.00  0.00    +0.053 C 
ATOM     16  C   UNL     1      36.719 -19.050 -21.404  0.00  0.00    +0.006 C 
ATOM     17  C   UNL     1      34.631 -20.233 -21.128  0.00  0.00    +0.006 C 
BRANCH  15  20
ATOM     18  O   UNL     1      34.415 -19.416 -23.973  0.00  0.00    -0.270 OA
ATOM     19  N   UNL     1      35.005 -17.348 -23.175  0.00  0.00    -0.325 N 
ATOM     20  C   UNL     1      34.923 -18.733 -23.065  0.00  0.00    +0.243 C 
ATOM     21  H   UNL     1      34.670 -16.898 -23.984  0.00  0.00    +0.145 HD
ATOM     22  H   UNL     1      35.397 -16.819 -22.444  0.00  0.00    +0.145 HD
ENDBRANCH  15  20
ENDBRANCH   3  12
BRANCH   5  24
ATOM     23  O   UNL     1      34.380 -23.975 -13.599  0.00  0.00    -0.099 OA
ATOM     24  N   UNL     1      34.639 -24.510 -14.686  0.00  0.00    -0.030 NA
ENDBRANCH   5  24
BRANCH   4  25
ATOM     25  O   UNL     1      33.226 -23.592 -16.917  0.00  0.00    -0.453 OA
BRANCH  25  26
ATOM     26  C   UNL     1      32.230 -22.589 -16.845  0.00  0.00    +0.208 C 
BRANCH  26  27
ATOM     27  C   UNL     1      31.201 -23.001 -15.795  0.00  0.00    +0.044 C 
ATOM     28  C   UNL     1      29.777 -22.718 -16.293  0.00  0.00    +0.004 C 
ATOM     29  C   UNL     1      31.366 -24.481 -15.425  0.00  0.00    +0.004 C 
ATOM     30  C   UNL     1      28.726 -23.171 -15.281  0.00  0.00    +0.000 C 
ATOM     31  C   UNL     1      30.313 -24.931 -14.415  0.00  0.00    +0.000 C 
ATOM     32  C   UNL     1      28.899 -24.640 -14.910  0.00  0.00    +0.000 C 
ENDBRANCH  26  27
ENDBRANCH  25  26
ENDBRANCH   4  25
TORSDOF 6
ENDMDL
