MODEL 1
REMARK VINA RESULT:     -12.5      0.000      0.000
REMARK  Name = 11538992
REMARK  4 active torsions:
REMARK  status: ('A' for Active; 'I' for Inactive)
REMARK    1  A    between atoms: C_1  and  N_7
REMARK    2  A    between atoms: C_3  and  C_24
REMARK    3  A    between atoms: C_4  and  N_30
REMARK    4  A    between atoms: C_15  and  C_20
REMARK                            x       y       z     vdW  Elec       q    Type
REMARK                         _______ _______ _______ _____ _____    ______ ____
ROOT
ATOM      1  C   UNL     1      35.209 -21.778 -19.414  0.00  0.00    -0.059 C 
ATOM      2  C   UNL     1      36.403 -20.819 -19.407  0.00  0.00    -0.042 C 
ATOM      3  C   UNL     1      35.082 -19.164 -20.821  0.00  0.00    +0.005 C 
ATOM      4  C   UNL     1      36.419 -19.933 -20.665  0.00  0.00    -0.064 C 
ATOM      5  C   UNL     1      33.890 -21.013 -19.549  0.00  0.00    -0.021 C 
ATOM      6  C   UNL     1      33.885 -20.135 -20.799  0.00  0.00    +0.000 C 
ENDROOT
BRANCH   1   7
ATOM      7  N   UNL     1      35.199 -22.566 -18.181  0.00  0.00    +0.394 N 
ATOM      8  N   UNL     1      34.967 -23.371 -15.526  0.00  0.00    -0.299 N 
ATOM      9  N   UNL     1      32.823 -23.766 -15.589  0.00  0.00    -0.136 NA
ATOM     10  N   UNL     1      33.327 -24.223 -14.382  0.00  0.00    -0.125 NA
ATOM     11  C   UNL     1      36.171 -22.031 -17.210  0.00  0.00    -0.052 C 
ATOM     12  C   UNL     1      33.839 -22.603 -17.605  0.00  0.00    -0.009 C 
ATOM     13  C   UNL     1      36.272 -22.955 -15.986  0.00  0.00    +0.086 C 
ATOM     14  C   UNL     1      33.828 -23.258 -16.270  0.00  0.00    +0.122 A 
ATOM     15  C   UNL     1      34.620 -23.977 -14.367  0.00  0.00    +0.238 A 
ATOM     16  H   UNL     1      35.477 -23.522 -18.408  0.00  0.00    -0.079 HD
BRANCH  15  20
ATOM     17  F   UNL     1      36.559 -25.184 -13.656  0.00  0.00    -0.163 F 
ATOM     18  F   UNL     1      36.259 -23.213 -12.802  0.00  0.00    -0.163 F 
ATOM     19  F   UNL     1      34.983 -24.866 -12.192  0.00  0.00    -0.163 F 
ATOM     20  C   UNL     1      35.574 -24.298 -13.293  0.00  0.00    +0.452 C 
ENDBRANCH  15  20
ENDBRANCH   1   7
BRANCH   3  24
ATOM     21  F   UNL     1      34.947 -20.222 -23.451  0.00  0.00    -0.204 F 
ATOM     22  F   UNL     1      35.022 -14.775 -22.968  0.00  0.00    -0.202 F 
ATOM     23  F   UNL     1      34.894 -15.929 -25.442  0.00  0.00    -0.202 F 
ATOM     24  C   UNL     1      35.032 -18.294 -22.069  0.00  0.00    +0.005 C 
ATOM     25  C   UNL     1      34.966 -18.888 -23.326  0.00  0.00    +0.138 C 
ATOM     26  C   UNL     1      35.051 -16.909 -21.943  0.00  0.00    +0.030 C 
ATOM     27  C   UNL     1      35.005 -16.108 -23.084  0.00  0.00    +0.167 C 
ATOM     28  C   UNL     1      34.920 -18.087 -24.467  0.00  0.00    +0.061 C 
ATOM     29  C   UNL     1      34.940 -16.698 -24.346  0.00  0.00    +0.170 C 
ENDBRANCH   3  24
BRANCH   4  30
ATOM     30  N   UNL     1      37.549 -19.001 -20.589  0.00  0.00    +0.382 N 
ATOM     31  H   UNL     1      38.354 -19.475 -20.181  0.00  0.00    -0.089 HD
ATOM     32  H   UNL     1      37.293 -18.203 -20.008  0.00  0.00    -0.089 HD
ATOM     33  H   UNL     1      37.785 -18.676 -21.527  0.00  0.00    -0.089 HD
ENDBRANCH   4  30
TORSDOF 4
ENDMDL
MODEL 2
REMARK VINA RESULT:     -11.8      0.919      1.794
REMARK  Name = 11538992
REMARK  4 active torsions:
REMARK  status: ('A' for Active; 'I' for Inactive)
REMARK    1  A    between atoms: C_1  and  N_7
REMARK    2  A    between atoms: C_3  and  C_24
REMARK    3  A    between atoms: C_4  and  N_30
REMARK    4  A    between atoms: C_15  and  C_20
REMARK                            x       y       z     vdW  Elec       q    Type
REMARK                         _______ _______ _______ _____ _____    ______ ____
ROOT
ATOM      1  C   UNL     1      35.406 -22.094 -18.952  0.00  0.00    -0.059 C 
ATOM      2  C   UNL     1      36.561 -21.088 -19.015  0.00  0.00    -0.042 C 
ATOM      3  C   UNL     1      35.156 -19.568 -20.497  0.00  0.00    +0.005 C 
ATOM      4  C   UNL     1      36.525 -20.274 -20.319  0.00  0.00    -0.064 C 
ATOM      5  C   UNL     1      34.056 -21.390 -19.109  0.00  0.00    -0.021 C 
ATOM      6  C   UNL     1      34.000 -20.583 -20.404  0.00  0.00    +0.000 C 
ENDROOT
BRANCH   1   7
ATOM      7  N   UNL     1      35.443 -22.813 -17.678  0.00  0.00    +0.394 N 
ATOM      8  N   UNL     1      35.220 -23.497 -14.989  0.00  0.00    -0.299 N 
ATOM      9  N   UNL     1      33.132 -24.122 -15.080  0.00  0.00    -0.136 NA
ATOM     10  N   UNL     1      33.647 -24.459 -13.838  0.00  0.00    -0.125 NA
ATOM     11  C   UNL     1      36.324 -22.126 -16.715  0.00  0.00    -0.052 C 
ATOM     12  C   UNL     1      34.078 -22.965 -17.132  0.00  0.00    -0.009 C 
ATOM     13  C   UNL     1      36.486 -22.968 -15.440  0.00  0.00    +0.086 C 
ATOM     14  C   UNL     1      34.098 -23.546 -15.764  0.00  0.00    +0.122 A 
ATOM     15  C   UNL     1      34.905 -24.075 -13.806  0.00  0.00    +0.238 A 
ATOM     16  H   UNL     1      35.827 -23.743 -17.845  0.00  0.00    -0.079 HD
BRANCH  15  20
ATOM     17  F   UNL     1      35.352 -24.913 -11.611  0.00  0.00    -0.163 F 
ATOM     18  F   UNL     1      36.999 -24.923 -13.022  0.00  0.00    -0.163 F 
ATOM     19  F   UNL     1      36.300 -23.042 -12.182  0.00  0.00    -0.163 F 
ATOM     20  C   UNL     1      35.856 -24.235 -12.694  0.00  0.00    +0.452 C 
ENDBRANCH  15  20
ENDBRANCH   1   7
BRANCH   3  24
ATOM     21  F   UNL     1      35.423 -16.745 -20.609  0.00  0.00    -0.204 F 
ATOM     22  F   UNL     1      34.505 -19.339 -25.335  0.00  0.00    -0.202 F 
ATOM     23  F   UNL     1      34.783 -16.621 -25.296  0.00  0.00    -0.202 F 
ATOM     24  C   UNL     1      35.055 -18.770 -21.790  0.00  0.00    +0.005 C 
ATOM     25  C   UNL     1      35.197 -17.387 -21.763  0.00  0.00    +0.138 C 
ATOM     26  C   UNL     1      34.822 -19.434 -22.990  0.00  0.00    +0.030 C 
ATOM     27  C   UNL     1      34.729 -18.707 -24.177  0.00  0.00    +0.167 C 
ATOM     28  C   UNL     1      35.104 -16.660 -22.950  0.00  0.00    +0.061 C 
ATOM     29  C   UNL     1      34.870 -17.319 -24.156  0.00  0.00    +0.170 C 
ENDBRANCH   3  24
BRANCH   4  30
ATOM     30  N   UNL     1      37.617 -19.294 -20.311  0.00  0.00    +0.382 N 
ATOM     31  H   UNL     1      37.229 -18.353 -20.253  0.00  0.00    -0.089 HD
ATOM     32  H   UNL     1      38.161 -19.385 -21.169  0.00  0.00    -0.089 HD
ATOM     33  H   UNL     1      38.220 -19.464 -19.506  0.00  0.00    -0.089 HD
ENDBRANCH   4  30
TORSDOF 4
ENDMDL
MODEL 3
REMARK VINA RESULT:     -10.9      1.591      2.011
REMARK  Name = 11538992
REMARK  4 active torsions:
REMARK  status: ('A' for Active; 'I' for Inactive)
REMARK    1  A    between atoms: C_1  and  N_7
REMARK    2  A    between atoms: C_3  and  C_24
REMARK    3  A    between atoms: C_4  and  N_30
REMARK    4  A    between atoms: C_15  and  C_20
REMARK                            x       y       z     vdW  Elec       q    Type
REMARK                         _______ _______ _______ _____ _____    ______ ____
ROOT
ATOM      1  C   UNL     1      35.861 -21.386 -18.137  0.00  0.00    -0.059 C 
ATOM      2  C   UNL     1      34.525 -21.573 -18.862  0.00  0.00    -0.042 C 
ATOM      3  C   UNL     1      35.413 -20.246 -20.844  0.00  0.00    +0.005 C 
ATOM      4  C   UNL     1      34.247 -20.416 -19.837  0.00  0.00    -0.064 C 
ATOM      5  C   UNL     1      37.012 -21.238 -19.136  0.00  0.00    -0.021 C 
ATOM      6  C   UNL     1      36.757 -20.086 -20.107  0.00  0.00    +0.000 C 
ENDROOT
BRANCH   1   7
ATOM      7  N   UNL     1      36.114 -22.528 -17.259  0.00  0.00    +0.394 N 
ATOM      8  N   UNL     1      36.471 -24.157 -15.029  0.00  0.00    -0.299 N 
ATOM      9  N   UNL     1      34.360 -24.629 -14.745  0.00  0.00    -0.136 NA
ATOM     10  N   UNL     1      35.115 -25.422 -13.895  0.00  0.00    -0.125 NA
ATOM     11  C   UNL     1      37.290 -22.281 -16.404  0.00  0.00    -0.052 C 
ATOM     12  C   UNL     1      34.918 -22.824 -16.442  0.00  0.00    -0.009 C 
ATOM     13  C   UNL     1      37.646 -23.543 -15.602  0.00  0.00    +0.086 C 
ATOM     14  C   UNL     1      35.196 -23.873 -15.426  0.00  0.00    +0.122 A 
ATOM     15  C   UNL     1      36.382 -25.121 -14.084  0.00  0.00    +0.238 A 
ATOM     16  H   UNL     1      36.315 -23.343 -17.840  0.00  0.00    -0.079 HD
BRANCH  15  20
ATOM     17  F   UNL     1      38.416 -26.369 -14.252  0.00  0.00    -0.163 F 
ATOM     18  F   UNL     1      38.337 -24.814 -12.741  0.00  0.00    -0.163 F 
ATOM     19  F   UNL     1      37.210 -26.654 -12.465  0.00  0.00    -0.163 F 
ATOM     20  C   UNL     1      37.548 -25.718 -13.410  0.00  0.00    +0.452 C 
ENDBRANCH  15  20
ENDBRANCH   1   7
BRANCH   3  24
ATOM     21  F   UNL     1      35.075 -20.606 -23.639  0.00  0.00    -0.204 F 
ATOM     22  F   UNL     1      34.948 -15.469 -21.766  0.00  0.00    -0.202 F 
ATOM     23  F   UNL     1      34.636 -15.962 -24.436  0.00  0.00    -0.202 F 
ATOM     24  C   UNL     1      35.204 -19.092 -21.816  0.00  0.00    +0.005 C 
ATOM     25  C   UNL     1      35.046 -19.350 -23.174  0.00  0.00    +0.138 C 
ATOM     26  C   UNL     1      35.172 -17.787 -21.335  0.00  0.00    +0.030 C 
ATOM     27  C   UNL     1      34.980 -16.728 -22.222  0.00  0.00    +0.167 C 
ATOM     28  C   UNL     1      34.854 -18.290 -24.060  0.00  0.00    +0.061 C 
ATOM     29  C   UNL     1      34.821 -16.980 -23.585  0.00  0.00    +0.170 C 
ENDBRANCH   3  24
BRANCH   4  30
ATOM     30  N   UNL     1      32.984 -20.665 -20.540  0.00  0.00    +0.382 N 
ATOM     31  H   UNL     1      32.985 -21.614 -20.913  0.00  0.00    -0.089 HD
ATOM     32  H   UNL     1      32.885 -19.999 -21.306  0.00  0.00    -0.089 HD
ATOM     33  H   UNL     1      32.206 -20.555 -19.891  0.00  0.00    -0.089 HD
ENDBRANCH   4  30
TORSDOF 4
ENDMDL
MODEL 4
REMARK VINA RESULT:     -10.7      7.260     11.464
REMARK  Name = 11538992
REMARK  4 active torsions:
REMARK  status: ('A' for Active; 'I' for Inactive)
REMARK    1  A    between atoms: C_1  and  N_7
REMARK    2  A    between atoms: C_3  and  C_24
REMARK    3  A    between atoms: C_4  and  N_30
REMARK    4  A    between atoms: C_15  and  C_20
REMARK                            x       y       z     vdW  Elec       q    Type
REMARK                         _______ _______ _______ _____ _____    ______ ____
ROOT
ATOM      1  C   UNL     1      33.468 -11.686 -23.565  0.00  0.00    -0.059 C 
ATOM      2  C   UNL     1      34.549 -10.604 -23.656  0.00  0.00    -0.042 C 
ATOM      3  C   UNL     1      33.056  -9.001 -22.360  0.00  0.00    +0.005 C 
ATOM      4  C   UNL     1      33.938  -9.193 -23.621  0.00  0.00    -0.064 C 
ATOM      5  C   UNL     1      32.612 -11.502 -22.309  0.00  0.00    -0.021 C 
ATOM      6  C   UNL     1      31.989 -10.109 -22.263  0.00  0.00    +0.000 C 
ENDROOT
BRANCH   1   7
ATOM      7  N   UNL     1      34.090 -13.010 -23.551  0.00  0.00    +0.394 N 
ATOM      8  N   UNL     1      34.518 -15.760 -23.495  0.00  0.00    -0.299 N 
ATOM      9  N   UNL     1      34.317 -16.070 -25.645  0.00  0.00    -0.136 NA
ATOM     10  N   UNL     1      34.765 -17.246 -25.063  0.00  0.00    -0.125 NA
ATOM     11  C   UNL     1      33.741 -13.739 -22.317  0.00  0.00    -0.052 C 
ATOM     12  C   UNL     1      33.693 -13.778 -24.749  0.00  0.00    -0.009 C 
ATOM     13  C   UNL     1      34.524 -15.058 -22.233  0.00  0.00    +0.086 C 
ATOM     14  C   UNL     1      34.176 -15.182 -24.684  0.00  0.00    +0.122 A 
ATOM     15  C   UNL     1      34.880 -17.035 -23.769  0.00  0.00    +0.238 A 
ATOM     16  H   UNL     1      35.103 -12.890 -23.568  0.00  0.00    -0.079 HD
BRANCH  15  20
ATOM     17  F   UNL     1      36.620 -17.787 -22.309  0.00  0.00    -0.163 F 
ATOM     18  F   UNL     1      34.581 -17.997 -21.600  0.00  0.00    -0.163 F 
ATOM     19  F   UNL     1      35.320 -19.296 -23.180  0.00  0.00    -0.163 F 
ATOM     20  C   UNL     1      35.335 -17.994 -22.748  0.00  0.00    +0.452 C 
ENDBRANCH  15  20
ENDBRANCH   1   7
BRANCH   3  24
ATOM     21  F   UNL     1      31.903  -7.947 -19.991  0.00  0.00    -0.204 F 
ATOM     22  F   UNL     1      31.699  -4.802 -24.461  0.00  0.00    -0.202 F 
ATOM     23  F   UNL     1      30.628  -3.912 -22.110  0.00  0.00    -0.202 F 
ATOM     24  C   UNL     1      32.400  -7.629 -22.290  0.00  0.00    +0.005 C 
ATOM     25  C   UNL     1      31.856  -7.181 -21.090  0.00  0.00    +0.138 C 
ATOM     26  C   UNL     1      32.350  -6.832 -23.429  0.00  0.00    +0.030 C 
ATOM     27  C   UNL     1      31.750  -5.574 -23.369  0.00  0.00    +0.167 C 
ATOM     28  C   UNL     1      31.256  -5.924 -21.030  0.00  0.00    +0.061 C 
ATOM     29  C   UNL     1      31.203  -5.121 -22.168  0.00  0.00    +0.170 C 
ENDBRANCH   3  24
BRANCH   4  30
ATOM     30  N   UNL     1      35.012  -8.196 -23.661  0.00  0.00    +0.382 N 
ATOM     31  H   UNL     1      34.624  -7.271 -23.478  0.00  0.00    -0.089 HD
ATOM     32  H   UNL     1      35.451  -8.205 -24.582  0.00  0.00    -0.089 HD
ATOM     33  H   UNL     1      35.709  -8.418 -22.950  0.00  0.00    -0.089 HD
ENDBRANCH   4  30
TORSDOF 4
ENDMDL
MODEL 5
REMARK VINA RESULT:     -10.4      7.179     11.090
REMARK  Name = 11538992
REMARK  4 active torsions:
REMARK  status: ('A' for Active; 'I' for Inactive)
REMARK    1  A    between atoms: C_1  and  N_7
REMARK    2  A    between atoms: C_3  and  C_24
REMARK    3  A    between atoms: C_4  and  N_30
REMARK    4  A    between atoms: C_15  and  C_20
REMARK                            x       y       z     vdW  Elec       q    Type
REMARK                         _______ _______ _______ _____ _____    ______ ____
ROOT
ATOM      1  C   UNL     1      34.131 -12.160 -22.409  0.00  0.00    -0.059 C 
ATOM      2  C   UNL     1      32.683 -12.199 -21.912  0.00  0.00    -0.042 C 
ATOM      3  C   UNL     1      32.339  -9.812 -22.726  0.00  0.00    +0.005 C 
ATOM      4  C   UNL     1      32.179 -10.795 -21.537  0.00  0.00    -0.064 C 
ATOM      5  C   UNL     1      34.279 -11.202 -23.595  0.00  0.00    -0.021 C 
ATOM      6  C   UNL     1      33.793  -9.800 -23.237  0.00  0.00    +0.000 C 
ENDROOT
BRANCH   1   7
ATOM      7  N   UNL     1      34.557 -13.503 -22.803  0.00  0.00    +0.394 N 
ATOM      8  N   UNL     1      34.591 -16.195 -23.510  0.00  0.00    -0.299 N 
ATOM      9  N   UNL     1      34.214 -15.882 -25.636  0.00  0.00    -0.136 NA
ATOM     10  N   UNL     1      34.525 -17.217 -25.428  0.00  0.00    -0.125 NA
ATOM     11  C   UNL     1      34.185 -14.493 -21.775  0.00  0.00    -0.052 C 
ATOM     12  C   UNL     1      33.981 -13.862 -24.116  0.00  0.00    -0.009 C 
ATOM     13  C   UNL     1      34.776 -15.869 -22.116  0.00  0.00    +0.086 C 
ATOM     14  C   UNL     1      34.262 -15.279 -24.467  0.00  0.00    +0.122 A 
ATOM     15  C   UNL     1      34.750 -17.381 -24.142  0.00  0.00    +0.238 A 
ATOM     16  H   UNL     1      35.574 -13.507 -22.887  0.00  0.00    -0.079 HD
BRANCH  15  20
ATOM     17  F   UNL     1      36.431 -18.672 -23.033  0.00  0.00    -0.163 F 
ATOM     18  F   UNL     1      34.392 -18.898 -22.327  0.00  0.00    -0.163 F 
ATOM     19  F   UNL     1      34.978 -19.746 -24.243  0.00  0.00    -0.163 F 
ATOM     20  C   UNL     1      35.126 -18.630 -23.458  0.00  0.00    +0.452 C 
ENDBRANCH  15  20
ENDBRANCH   1   7
BRANCH   3  24
ATOM     21  F   UNL     1      30.589  -8.318 -24.388  0.00  0.00    -0.204 F 
ATOM     22  F   UNL     1      32.342  -5.888 -19.812  0.00  0.00    -0.202 F 
ATOM     23  F   UNL     1      30.653  -4.565 -21.505  0.00  0.00    -0.202 F 
ATOM     24  C   UNL     1      31.883  -8.396 -22.399  0.00  0.00    +0.005 C 
ATOM     25  C   UNL     1      31.023  -7.728 -23.265  0.00  0.00    +0.138 C 
ATOM     26  C   UNL     1      32.330  -7.781 -21.234  0.00  0.00    +0.030 C 
ATOM     27  C   UNL     1      31.915  -6.485 -20.932  0.00  0.00    +0.167 C 
ATOM     28  C   UNL     1      30.607  -6.431 -22.962  0.00  0.00    +0.061 C 
ATOM     29  C   UNL     1      31.053  -5.810 -21.797  0.00  0.00    +0.170 C 
ENDBRANCH   3  24
BRANCH   4  30
ATOM     30  N   UNL     1      30.777 -10.877 -21.115  0.00  0.00    +0.382 N 
ATOM     31  H   UNL     1      30.292 -11.573 -21.681  0.00  0.00    -0.089 HD
ATOM     32  H   UNL     1      30.331  -9.968 -21.238  0.00  0.00    -0.089 HD
ATOM     33  H   UNL     1      30.733 -11.147 -20.132  0.00  0.00    -0.089 HD
ENDBRANCH   4  30
TORSDOF 4
ENDMDL
MODEL 6
REMARK VINA RESULT:     -10.2      6.876     10.905
REMARK  Name = 11538992
REMARK  4 active torsions:
REMARK  status: ('A' for Active; 'I' for Inactive)
REMARK    1  A    between atoms: C_1  and  N_7
REMARK    2  A    between atoms: C_3  and  C_24
REMARK    3  A    between atoms: C_4  and  N_30
REMARK    4  A    between atoms: C_15  and  C_20
REMARK                            x       y       z     vdW  Elec       q    Type
REMARK                         _______ _______ _______ _____ _____    ______ ____
ROOT
ATOM      1  C   UNL     1      32.641 -12.257 -22.920  0.00  0.00    -0.059 C 
ATOM      2  C   UNL     1      33.867 -11.410 -23.276  0.00  0.00    -0.042 C 
ATOM      3  C   UNL     1      32.832  -9.412 -22.084  0.00  0.00    +0.005 C 
ATOM      4  C   UNL     1      33.506  -9.918 -23.386  0.00  0.00    -0.064 C 
ATOM      5  C   UNL     1      31.991 -11.765 -21.624  0.00  0.00    -0.021 C 
ATOM      6  C   UNL     1      31.617 -10.287 -21.719  0.00  0.00    +0.000 C 
ENDROOT
BRANCH   1   7
ATOM      7  N   UNL     1      33.033 -13.659 -22.775  0.00  0.00    +0.394 N 
ATOM      8  N   UNL     1      34.500 -16.008 -22.490  0.00  0.00    -0.299 N 
ATOM      9  N   UNL     1      34.658 -15.921 -20.315  0.00  0.00    -0.136 NA
ATOM     10  N   UNL     1      35.135 -17.147 -20.750  0.00  0.00    -0.125 NA
ATOM     11  C   UNL     1      33.882 -14.085 -23.903  0.00  0.00    -0.052 C 
ATOM     12  C   UNL     1      33.721 -13.871 -21.485  0.00  0.00    -0.009 C 
ATOM     13  C   UNL     1      34.155 -15.595 -23.830  0.00  0.00    +0.086 C 
ATOM     14  C   UNL     1      34.274 -15.247 -21.379  0.00  0.00    +0.122 A 
ATOM     15  C   UNL     1      35.029 -17.178 -22.062  0.00  0.00    +0.238 A 
ATOM     16  H   UNL     1      32.188 -14.232 -22.785  0.00  0.00    -0.079 HD
BRANCH  15  20
ATOM     17  F   UNL     1      35.209 -18.022 -24.293  0.00  0.00    -0.163 F 
ATOM     18  F   UNL     1      36.720 -18.662 -22.874  0.00  0.00    -0.163 F 
ATOM     19  F   UNL     1      34.693 -19.436 -22.725  0.00  0.00    -0.163 F 
ATOM     20  C   UNL     1      35.401 -18.285 -22.959  0.00  0.00    +0.452 C 
ENDBRANCH  15  20
ENDBRANCH   1   7
BRANCH   3  24
ATOM     21  F   UNL     1      32.114  -7.893 -19.797  0.00  0.00    -0.204 F 
ATOM     22  F   UNL     1      31.996  -5.320 -24.622  0.00  0.00    -0.202 F 
ATOM     23  F   UNL     1      31.328  -3.978 -22.337  0.00  0.00    -0.202 F 
ATOM     24  C   UNL     1      32.426  -7.946 -22.149  0.00  0.00    +0.005 C 
ATOM     25  C   UNL     1      32.087  -7.269 -20.982  0.00  0.00    +0.138 C 
ATOM     26  C   UNL     1      32.397  -7.295 -23.378  0.00  0.00    +0.030 C 
ATOM     27  C   UNL     1      32.025  -5.952 -23.442  0.00  0.00    +0.167 C 
ATOM     28  C   UNL     1      31.715  -5.926 -21.046  0.00  0.00    +0.061 C 
ATOM     29  C   UNL     1      31.684  -5.268 -22.275  0.00  0.00    +0.170 C 
ENDBRANCH   3  24
BRANCH   4  30
ATOM     30  N   UNL     1      34.717  -9.145 -23.679  0.00  0.00    +0.382 N 
ATOM     31  H   UNL     1      35.534  -9.750 -23.601  0.00  0.00    -0.089 HD
ATOM     32  H   UNL     1      34.799  -8.376 -23.014  0.00  0.00    -0.089 HD
ATOM     33  H   UNL     1      34.660  -8.771 -24.626  0.00  0.00    -0.089 HD
ENDBRANCH   4  30
TORSDOF 4
ENDMDL
MODEL 7
REMARK VINA RESULT:     -10.1      7.089     12.914
REMARK  Name = 11538992
REMARK  4 active torsions:
REMARK  status: ('A' for Active; 'I' for Inactive)
REMARK    1  A    between atoms: C_1  and  N_7
REMARK    2  A    between atoms: C_3  and  C_24
REMARK    3  A    between atoms: C_4  and  N_30
REMARK    4  A    between atoms: C_15  and  C_20
REMARK                            x       y       z     vdW  Elec       q    Type
REMARK                         _______ _______ _______ _____ _____    ______ ____
ROOT
ATOM      1  C   UNL     1      32.834 -12.107 -23.136  0.00  0.00    -0.059 C 
ATOM      2  C   UNL     1      32.574 -12.711 -21.752  0.00  0.00    -0.042 C 
ATOM      3  C   UNL     1      34.291 -14.531 -22.224  0.00  0.00    +0.005 C 
ATOM      4  C   UNL     1      32.850 -14.224 -21.738  0.00  0.00    -0.064 C 
ATOM      5  C   UNL     1      34.263 -12.397 -23.602  0.00  0.00    -0.021 C 
ATOM      6  C   UNL     1      34.551 -13.896 -23.604  0.00  0.00    +0.000 C 
ENDROOT
BRANCH   1   7
ATOM      7  N   UNL     1      32.610 -10.662 -23.097  0.00  0.00    +0.394 N 
ATOM      8  N   UNL     1      32.710  -7.960 -22.434  0.00  0.00    -0.299 N 
ATOM      9  N   UNL     1      34.442  -7.481 -23.670  0.00  0.00    -0.136 NA
ATOM     10  N   UNL     1      33.903  -6.303 -23.179  0.00  0.00    -0.125 NA
ATOM     11  C   UNL     1      32.071 -10.251 -21.787  0.00  0.00    -0.052 C 
ATOM     12  C   UNL     1      33.861  -9.939 -23.405  0.00  0.00    -0.009 C 
ATOM     13  C   UNL     1      31.687  -8.764 -21.807  0.00  0.00    +0.086 C 
ATOM     14  C   UNL     1      33.706  -8.473 -23.214  0.00  0.00    +0.122 A 
ATOM     15  C   UNL     1      32.861  -6.615 -22.440  0.00  0.00    +0.238 A 
ATOM     16  H   UNL     1      31.918 -10.424 -23.808  0.00  0.00    -0.079 HD
BRANCH  15  20
ATOM     17  F   UNL     1      30.630  -5.945 -21.894  0.00  0.00    -0.163 F 
ATOM     18  F   UNL     1      32.140  -5.677 -20.361  0.00  0.00    -0.163 F 
ATOM     19  F   UNL     1      32.123  -4.380 -22.106  0.00  0.00    -0.163 F 
ATOM     20  C   UNL     1      31.968  -5.688 -21.724  0.00  0.00    +0.452 C 
ENDBRANCH  15  20
ENDBRANCH   1   7
BRANCH   3  24
ATOM     21  F   UNL     1      34.979 -16.031 -19.915  0.00  0.00    -0.204 F 
ATOM     22  F   UNL     1      34.815 -18.730 -24.669  0.00  0.00    -0.202 F 
ATOM     23  F   UNL     1      35.463 -20.050 -22.366  0.00  0.00    -0.202 F 
ATOM     24  C   UNL     1      34.608 -16.020 -22.259  0.00  0.00    +0.005 C 
ATOM     25  C   UNL     1      34.937 -16.687 -21.083  0.00  0.00    +0.138 C 
ATOM     26  C   UNL     1      34.565 -16.703 -23.470  0.00  0.00    +0.030 C 
ATOM     27  C   UNL     1      34.855 -18.067 -23.507  0.00  0.00    +0.167 C 
ATOM     28  C   UNL     1      35.227 -18.050 -21.120  0.00  0.00    +0.061 C 
ATOM     29  C   UNL     1      35.186 -18.740 -22.331  0.00  0.00    +0.170 C 
ENDBRANCH   3  24
BRANCH   4  30
ATOM     30  N   UNL     1      32.636 -14.746 -20.385  0.00  0.00    +0.382 N 
ATOM     31  H   UNL     1      33.100 -14.139 -19.709  0.00  0.00    -0.089 HD
ATOM     32  H   UNL     1      33.023 -15.687 -20.318  0.00  0.00    -0.089 HD
ATOM     33  H   UNL     1      31.636 -14.774 -20.185  0.00  0.00    -0.089 HD
ENDBRANCH   4  30
TORSDOF 4
ENDMDL
MODEL 8
REMARK VINA RESULT:     -10.1      6.614      8.226
REMARK  Name = 11538992
REMARK  4 active torsions:
REMARK  status: ('A' for Active; 'I' for Inactive)
REMARK    1  A    between atoms: C_1  and  N_7
REMARK    2  A    between atoms: C_3  and  C_24
REMARK    3  A    between atoms: C_4  and  N_30
REMARK    4  A    between atoms: C_15  and  C_20
REMARK                            x       y       z     vdW  Elec       q    Type
REMARK                         _______ _______ _______ _____ _____    ______ ____
ROOT
ATOM      1  C   UNL     1      34.041 -23.642 -14.944  0.00  0.00    -0.059 C 
ATOM      2  C   UNL     1      33.106 -24.676 -14.310  0.00  0.00    -0.042 C 
ATOM      3  C   UNL     1      31.180 -23.807 -15.730  0.00  0.00    +0.005 C 
ATOM      4  C   UNL     1      31.648 -24.186 -14.301  0.00  0.00    -0.064 C 
ATOM      5  C   UNL     1      33.585 -23.285 -16.362  0.00  0.00    -0.021 C 
ATOM      6  C   UNL     1      32.142 -22.787 -16.370  0.00  0.00    +0.000 C 
ENDROOT
BRANCH   1   7
ATOM      7  N   UNL     1      35.407 -24.164 -14.980  0.00  0.00    +0.394 N 
ATOM      8  N   UNL     1      37.838 -25.337 -14.299  0.00  0.00    -0.299 N 
ATOM      9  N   UNL     1      37.229 -27.390 -14.712  0.00  0.00    -0.136 NA
ATOM     10  N   UNL     1      38.593 -27.368 -14.468  0.00  0.00    -0.125 NA
ATOM     11  C   UNL     1      36.260 -23.467 -14.000  0.00  0.00    -0.052 C 
ATOM     12  C   UNL     1      35.408 -25.622 -14.740  0.00  0.00    -0.009 C 
ATOM     13  C   UNL     1      37.724 -23.904 -14.155  0.00  0.00    +0.086 C 
ATOM     14  C   UNL     1      36.789 -26.154 -14.610  0.00  0.00    +0.122 A 
ATOM     15  C   UNL     1      38.938 -26.122 -14.224  0.00  0.00    +0.238 A 
ATOM     16  H   UNL     1      35.793 -23.992 -15.909  0.00  0.00    -0.079 HD
BRANCH  15  20
ATOM     17  F   UNL     1      40.861 -24.894 -14.942  0.00  0.00    -0.163 F 
ATOM     18  F   UNL     1      40.346 -24.773 -12.838  0.00  0.00    -0.163 F 
ATOM     19  F   UNL     1      41.192 -26.608 -13.645  0.00  0.00    -0.163 F 
ATOM     20  C   UNL     1      40.287 -25.615 -13.923  0.00  0.00    +0.452 C 
ENDBRANCH  15  20
ENDBRANCH   1   7
BRANCH   3  24
ATOM     21  F   UNL     1      29.970 -22.398 -13.584  0.00  0.00    -0.204 F 
ATOM     22  F   UNL     1      26.919 -23.214 -18.050  0.00  0.00    -0.202 F 
ATOM     23  F   UNL     1      25.881 -21.872 -15.908  0.00  0.00    -0.202 F 
ATOM     24  C   UNL     1      29.751 -23.284 -15.775  0.00  0.00    +0.005 C 
ATOM     25  C   UNL     1      29.228 -22.602 -14.681  0.00  0.00    +0.138 C 
ATOM     26  C   UNL     1      28.978 -23.494 -16.913  0.00  0.00    +0.030 C 
ATOM     27  C   UNL     1      27.668 -23.016 -16.958  0.00  0.00    +0.167 C 
ATOM     28  C   UNL     1      27.918 -22.124 -14.726  0.00  0.00    +0.061 C 
ATOM     29  C   UNL     1      27.139 -22.332 -15.864  0.00  0.00    +0.170 C 
ENDBRANCH   3  24
BRANCH   4  30
ATOM     30  N   UNL     1      30.787 -25.228 -13.731  0.00  0.00    +0.382 N 
ATOM     31  H   UNL     1      30.156 -24.810 -13.048  0.00  0.00    -0.089 HD
ATOM     32  H   UNL     1      31.364 -25.933 -13.274  0.00  0.00    -0.089 HD
ATOM     33  H   UNL     1      30.242 -25.663 -14.476  0.00  0.00    -0.089 HD
ENDBRANCH   4  30
TORSDOF 4
ENDMDL
MODEL 9
REMARK VINA RESULT:      -9.9      9.563     15.364
REMARK  Name = 11538992
REMARK  4 active torsions:
REMARK  status: ('A' for Active; 'I' for Inactive)
REMARK    1  A    between atoms: C_1  and  N_7
REMARK    2  A    between atoms: C_3  and  C_24
REMARK    3  A    between atoms: C_4  and  N_30
REMARK    4  A    between atoms: C_15  and  C_20
REMARK                            x       y       z     vdW  Elec       q    Type
REMARK                         _______ _______ _______ _____ _____    ______ ____
ROOT
ATOM      1  C   UNL     1      33.399  -8.712 -22.485  0.00  0.00    -0.059 C 
ATOM      2  C   UNL     1      34.196  -9.054 -23.748  0.00  0.00    -0.042 C 
ATOM      3  C   UNL     1      33.373 -11.459 -23.618  0.00  0.00    +0.005 C 
ATOM      4  C   UNL     1      34.609 -10.536 -23.768  0.00  0.00    -0.064 C 
ATOM      5  C   UNL     1      32.169  -9.615 -22.351  0.00  0.00    -0.021 C 
ATOM      6  C   UNL     1      32.563 -11.091 -22.360  0.00  0.00    +0.000 C 
ENDROOT
BRANCH   1   7
ATOM      7  N   UNL     1      32.981  -7.311 -22.526  0.00  0.00    +0.394 N 
ATOM      8  N   UNL     1      31.604  -4.947 -23.043  0.00  0.00    -0.299 N 
ATOM      9  N   UNL     1      30.184  -5.141 -21.399  0.00  0.00    -0.136 NA
ATOM     10  N   UNL     1      30.044  -3.884 -21.965  0.00  0.00    -0.125 NA
ATOM     11  C   UNL     1      32.966  -6.809 -23.912  0.00  0.00    -0.052 C 
ATOM     12  C   UNL     1      31.657  -7.150 -21.890  0.00  0.00    -0.009 C 
ATOM     13  C   UNL     1      32.685  -5.299 -23.934  0.00  0.00    +0.086 C 
ATOM     14  C   UNL     1      31.133  -5.769 -22.060  0.00  0.00    +0.122 A 
ATOM     15  C   UNL     1      30.910  -3.789 -22.952  0.00  0.00    +0.238 A 
ATOM     16  H   UNL     1      33.658  -6.758 -22.000  0.00  0.00    -0.079 HD
BRANCH  15  20
ATOM     17  F   UNL     1      32.180  -1.825 -23.456  0.00  0.00    -0.163 F 
ATOM     18  F   UNL     1      31.407  -2.956 -25.138  0.00  0.00    -0.163 F 
ATOM     19  F   UNL     1      30.053  -1.786 -23.903  0.00  0.00    -0.163 F 
ATOM     20  C   UNL     1      31.132  -2.630 -23.832  0.00  0.00    +0.452 C 
ENDBRANCH  15  20
ENDBRANCH   1   7
BRANCH   3  24
ATOM     21  F   UNL     1      33.121 -13.147 -25.885  0.00  0.00    -0.204 F 
ATOM     22  F   UNL     1      34.990 -15.438 -21.284  0.00  0.00    -0.202 F 
ATOM     23  F   UNL     1      34.697 -16.946 -23.544  0.00  0.00    -0.202 F 
ATOM     24  C   UNL     1      33.729 -12.940 -23.600  0.00  0.00    +0.005 C 
ATOM     25  C   UNL     1      33.578 -13.703 -24.754  0.00  0.00    +0.138 C 
ATOM     26  C   UNL     1      34.205 -13.519 -22.428  0.00  0.00    +0.030 C 
ATOM     27  C   UNL     1      34.532 -14.874 -22.408  0.00  0.00    +0.167 C 
ATOM     28  C   UNL     1      33.905 -15.058 -24.734  0.00  0.00    +0.061 C 
ATOM     29  C   UNL     1      34.381 -15.644 -23.562  0.00  0.00    +0.170 C 
ENDBRANCH   3  24
BRANCH   4  30
ATOM     30  N   UNL     1      35.325 -10.824 -25.015  0.00  0.00    +0.382 N 
ATOM     31  H   UNL     1      35.520  -9.951 -25.505  0.00  0.00    -0.089 HD
ATOM     32  H   UNL     1      34.750 -11.424 -25.606  0.00  0.00    -0.089 HD
ATOM     33  H   UNL     1      36.203 -11.298 -24.802  0.00  0.00    -0.089 HD
ENDBRANCH   4  30
TORSDOF 4
ENDMDL
