MODEL 1
REMARK VINA RESULT:     -12.3      0.000      0.000
REMARK  Name = 24808489
REMARK  4 active torsions:
REMARK  status: ('A' for Active; 'I' for Inactive)
REMARK    1  A    between atoms: N_1  and  C_10
REMARK    2  A    between atoms: N_1  and  C_21
REMARK    3  A    between atoms: C_18  and  C_24
REMARK    4  A    between atoms: C_24  and  N_25
REMARK                            x       y       z     vdW  Elec       q    Type
REMARK                         _______ _______ _______ _____ _____    ______ ____
ROOT
ATOM      1  N   UNL     1      34.786 -22.580 -18.368  0.00  0.00    -0.311 N 
ATOM      2  H   UNL     1      35.482 -23.268 -18.261  0.00  0.00    +0.152 HD
ENDROOT
BRANCH   1  10
ATOM      3 BR   UNL     1      28.204 -23.007 -16.256  0.00  0.00    -0.049 Br
ATOM      4  O   UNL     1      35.988 -23.227 -16.227  0.00  0.00    -0.270 OA
ATOM      5  O   UNL     1      33.703 -24.259 -12.383  0.00  0.00    -0.270 OA
ATOM      6  N   UNL     1      34.808 -23.735 -14.328  0.00  0.00    -0.248 N 
ATOM      7  C   UNL     1      33.592 -23.128 -16.337  0.00  0.00    +0.068 C 
ATOM      8  C   UNL     1      32.325 -23.306 -15.594  0.00  0.00    +0.010 C 
ATOM      9  C   UNL     1      32.370 -23.693 -14.244  0.00  0.00    +0.054 C 
ATOM     10  C   UNL     1      33.670 -22.761 -17.629  0.00  0.00    +0.066 C 
ATOM     11  C   UNL     1      34.906 -23.358 -15.660  0.00  0.00    +0.253 C 
ATOM     12  C   UNL     1      31.060 -23.106 -16.175  0.00  0.00    +0.007 C 
ATOM     13  C   UNL     1      33.663 -23.922 -13.563  0.00  0.00    +0.252 C 
ATOM     14  C   UNL     1      31.189 -23.873 -13.505  0.00  0.00    +0.005 C 
ATOM     15  C   UNL     1      29.885 -23.286 -15.437  0.00  0.00    +0.035 C 
ATOM     16  C   UNL     1      29.950 -23.668 -14.104  0.00  0.00    +0.007 C 
ATOM     17  H   UNL     1      35.662 -23.893 -13.865  0.00  0.00    +0.158 HD
ENDBRANCH   1  10
BRANCH   1  21
ATOM     18  C   UNL     1      35.688 -19.486 -21.058  0.00  0.00    -0.043 C 
ATOM     19  C   UNL     1      36.717 -20.158 -20.397  0.00  0.00    -0.005 C 
ATOM     20  C   UNL     1      34.360 -19.842 -20.825  0.00  0.00    -0.005 C 
ATOM     21  C   UNL     1      35.089 -21.542 -19.270  0.00  0.00    +0.048 C 
ATOM     22  C   UNL     1      36.417 -21.186 -19.503  0.00  0.00    +0.014 C 
ATOM     23  C   UNL     1      34.060 -20.870 -19.931  0.00  0.00    +0.014 C 
BRANCH  18  24
ATOM     24  C   UNL     1      36.010 -18.387 -22.013  0.00  0.00    -0.050 C 
BRANCH  24  25
ATOM     25  N   UNL     1      34.948 -17.395 -22.096  0.00  0.00    +0.390 N 
ATOM     26  C   UNL     1      34.979 -16.449 -20.980  0.00  0.00    -0.077 C 
ATOM     27  C   UNL     1      35.048 -16.569 -23.298  0.00  0.00    -0.077 C 
ATOM     28  C   UNL     1      34.078 -15.322 -21.463  0.00  0.00    -0.025 C 
ATOM     29  C   UNL     1      34.122 -15.402 -22.987  0.00  0.00    -0.025 C 
ATOM     30  H   UNL     1      34.091 -17.950 -22.092  0.00  0.00    -0.079 HD
ENDBRANCH  24  25
ENDBRANCH  18  24
ENDBRANCH   1  21
TORSDOF 4
ENDMDL
MODEL 2
REMARK VINA RESULT:     -12.3      3.972      9.762
REMARK  Name = 24808489
REMARK  4 active torsions:
REMARK  status: ('A' for Active; 'I' for Inactive)
REMARK    1  A    between atoms: N_1  and  C_10
REMARK    2  A    between atoms: N_1  and  C_21
REMARK    3  A    between atoms: C_18  and  C_24
REMARK    4  A    between atoms: C_24  and  N_25
REMARK                            x       y       z     vdW  Elec       q    Type
REMARK                         _______ _______ _______ _____ _____    ______ ____
ROOT
ATOM      1  N   UNL     1      35.630 -18.782 -21.088  0.00  0.00    -0.311 N 
ATOM      2  H   UNL     1      36.515 -18.885 -21.504  0.00  0.00    +0.152 HD
ENDROOT
BRANCH   1  10
ATOM      3 BR   UNL     1      32.439 -12.702 -20.186  0.00  0.00    -0.049 Br
ATOM      4  O   UNL     1      35.800 -18.828 -23.620  0.00  0.00    -0.270 OA
ATOM      5  O   UNL     1      34.179 -15.412 -26.221  0.00  0.00    -0.270 OA
ATOM      6  N   UNL     1      34.977 -17.100 -24.883  0.00  0.00    -0.248 N 
ATOM      7  C   UNL     1      34.781 -16.986 -22.468  0.00  0.00    +0.068 C 
ATOM      8  C   UNL     1      34.111 -15.674 -22.609  0.00  0.00    +0.010 C 
ATOM      9  C   UNL     1      33.909 -15.142 -23.894  0.00  0.00    +0.054 C 
ATOM     10  C   UNL     1      35.026 -17.591 -21.292  0.00  0.00    +0.066 C 
ATOM     11  C   UNL     1      35.238 -17.737 -23.679  0.00  0.00    +0.253 C 
ATOM     12  C   UNL     1      33.659 -14.921 -21.512  0.00  0.00    +0.007 C 
ATOM     13  C   UNL     1      34.356 -15.876 -25.099  0.00  0.00    +0.252 C 
ATOM     14  C   UNL     1      33.277 -13.900 -24.070  0.00  0.00    +0.005 C 
ATOM     15  C   UNL     1      33.031 -13.684 -21.689  0.00  0.00    +0.035 C 
ATOM     16  C   UNL     1      32.840 -13.174 -22.967  0.00  0.00    +0.007 C 
ATOM     17  H   UNL     1      35.272 -17.578 -25.692  0.00  0.00    +0.158 HD
ENDBRANCH   1  10
BRANCH   1  21
ATOM     18  C   UNL     1      34.241 -22.098 -18.921  0.00  0.00    -0.043 C 
ATOM     19  C   UNL     1      35.611 -21.855 -19.023  0.00  0.00    -0.005 C 
ATOM     20  C   UNL     1      33.333 -21.239 -19.540  0.00  0.00    -0.005 C 
ATOM     21  C   UNL     1      35.164 -19.895 -20.362  0.00  0.00    +0.048 C 
ATOM     22  C   UNL     1      36.072 -20.754 -19.744  0.00  0.00    +0.014 C 
ATOM     23  C   UNL     1      33.794 -20.138 -20.260  0.00  0.00    +0.014 C 
BRANCH  18  24
ATOM     24  C   UNL     1      33.748 -23.276 -18.152  0.00  0.00    -0.050 C 
BRANCH  24  25
ATOM     25  N   UNL     1      33.423 -22.943 -16.773  0.00  0.00    +0.390 N 
ATOM     26  C   UNL     1      32.003 -23.128 -16.474  0.00  0.00    -0.077 C 
ATOM     27  C   UNL     1      34.127 -23.790 -15.812  0.00  0.00    -0.077 C 
ATOM     28  C   UNL     1      31.969 -23.109 -14.953  0.00  0.00    -0.025 C 
ATOM     29  C   UNL     1      33.366 -23.542 -14.518  0.00  0.00    -0.025 C 
ATOM     30  H   UNL     1      33.699 -21.965 -16.684  0.00  0.00    -0.079 HD
ENDBRANCH  24  25
ENDBRANCH  18  24
ENDBRANCH   1  21
TORSDOF 4
ENDMDL
MODEL 3
REMARK VINA RESULT:     -12.2      2.508      3.235
REMARK  Name = 24808489
REMARK  4 active torsions:
REMARK  status: ('A' for Active; 'I' for Inactive)
REMARK    1  A    between atoms: N_1  and  C_10
REMARK    2  A    between atoms: N_1  and  C_21
REMARK    3  A    between atoms: C_18  and  C_24
REMARK    4  A    between atoms: C_24  and  N_25
REMARK                            x       y       z     vdW  Elec       q    Type
REMARK                         _______ _______ _______ _____ _____    ______ ____
ROOT
ATOM      1  N   UNL     1      33.696 -22.546 -18.339  0.00  0.00    -0.311 N 
ATOM      2  H   UNL     1      32.830 -22.943 -18.584  0.00  0.00    +0.152 HD
ENDROOT
BRANCH   1  10
ATOM      3 BR   UNL     1      38.080 -24.756 -13.454  0.00  0.00    -0.049 Br
ATOM      4  O   UNL     1      31.517 -22.581 -17.036  0.00  0.00    -0.270 OA
ATOM      5  O   UNL     1      31.341 -23.894 -12.642  0.00  0.00    -0.270 OA
ATOM      6  N   UNL     1      31.474 -23.244 -14.842  0.00  0.00    -0.248 N 
ATOM      7  C   UNL     1      33.593 -23.234 -16.022  0.00  0.00    +0.068 C 
ATOM      8  C   UNL     1      34.253 -23.718 -14.790  0.00  0.00    +0.010 C 
ATOM      9  C   UNL     1      33.478 -23.942 -13.639  0.00  0.00    +0.054 C 
ATOM     10  C   UNL     1      34.231 -22.987 -17.180  0.00  0.00    +0.066 C 
ATOM     11  C   UNL     1      32.117 -22.984 -16.043  0.00  0.00    +0.253 C 
ATOM     12  C   UNL     1      35.633 -23.971 -14.708  0.00  0.00    +0.007 C 
ATOM     13  C   UNL     1      32.019 -23.699 -13.647  0.00  0.00    +0.252 C 
ATOM     14  C   UNL     1      34.068 -24.401 -12.450  0.00  0.00    +0.005 C 
ATOM     15  C   UNL     1      36.219 -24.428 -13.523  0.00  0.00    +0.035 C 
ATOM     16  C   UNL     1      35.437 -24.643 -12.395  0.00  0.00    +0.007 C 
ATOM     17  H   UNL     1      30.502 -23.084 -14.835  0.00  0.00    +0.158 HD
ENDBRANCH   1  10
BRANCH   1  21
ATOM     18  C   UNL     1      35.227 -19.714 -21.033  0.00  0.00    -0.043 C 
ATOM     19  C   UNL     1      36.096 -20.529 -20.308  0.00  0.00    -0.005 C 
ATOM     20  C   UNL     1      33.848 -19.840 -20.863  0.00  0.00    -0.005 C 
ATOM     21  C   UNL     1      34.209 -21.595 -19.242  0.00  0.00    +0.048 C 
ATOM     22  C   UNL     1      35.587 -21.470 -19.413  0.00  0.00    +0.014 C 
ATOM     23  C   UNL     1      33.339 -20.780 -19.967  0.00  0.00    +0.014 C 
BRANCH  18  24
ATOM     24  C   UNL     1      35.771 -18.709 -21.990  0.00  0.00    -0.050 C 
BRANCH  24  25
ATOM     25  N   UNL     1      34.850 -17.606 -22.221  0.00  0.00    +0.390 N 
ATOM     26  C   UNL     1      35.021 -16.523 -21.253  0.00  0.00    -0.077 C 
ATOM     27  C   UNL     1      35.043 -16.981 -23.529  0.00  0.00    -0.077 C 
ATOM     28  C   UNL     1      34.272 -15.366 -21.899  0.00  0.00    -0.025 C 
ATOM     29  C   UNL     1      34.284 -15.669 -23.395  0.00  0.00    -0.025 C 
ATOM     30  H   UNL     1      33.927 -18.035 -22.144  0.00  0.00    -0.079 HD
ENDBRANCH  24  25
ENDBRANCH  18  24
ENDBRANCH   1  21
TORSDOF 4
ENDMDL
MODEL 4
REMARK VINA RESULT:     -11.2      1.314      2.017
REMARK  Name = 24808489
REMARK  4 active torsions:
REMARK  status: ('A' for Active; 'I' for Inactive)
REMARK    1  A    between atoms: N_1  and  C_10
REMARK    2  A    between atoms: N_1  and  C_21
REMARK    3  A    between atoms: C_18  and  C_24
REMARK    4  A    between atoms: C_24  and  N_25
REMARK                            x       y       z     vdW  Elec       q    Type
REMARK                         _______ _______ _______ _____ _____    ______ ____
ROOT
ATOM      1  N   UNL     1      35.999 -21.931 -18.416  0.00  0.00    -0.311 N 
ATOM      2  H   UNL     1      36.914 -22.276 -18.302  0.00  0.00    +0.152 HD
ENDROOT
BRANCH   1  10
ATOM      3 BR   UNL     1      30.109 -23.949 -15.384  0.00  0.00    -0.049 Br
ATOM      4  O   UNL     1      37.649 -22.391 -16.543  0.00  0.00    -0.270 OA
ATOM      5  O   UNL     1      36.311 -24.103 -12.500  0.00  0.00    -0.270 OA
ATOM      6  N   UNL     1      36.939 -23.247 -14.538  0.00  0.00    -0.248 N 
ATOM      7  C   UNL     1      35.305 -22.836 -16.283  0.00  0.00    +0.068 C 
ATOM      8  C   UNL     1      34.248 -23.334 -15.376  0.00  0.00    +0.010 C 
ATOM      9  C   UNL     1      34.598 -23.765 -14.086  0.00  0.00    +0.054 C 
ATOM     10  C   UNL     1      35.087 -22.398 -17.536  0.00  0.00    +0.066 C 
ATOM     11  C   UNL     1      36.731 -22.793 -15.832  0.00  0.00    +0.253 C 
ATOM     12  C   UNL     1      32.891 -23.399 -15.741  0.00  0.00    +0.007 C 
ATOM     13  C   UNL     1      36.005 -23.727 -13.628  0.00  0.00    +0.252 C 
ATOM     14  C   UNL     1      33.623 -24.245 -13.195  0.00  0.00    +0.005 C 
ATOM     15  C   UNL     1      31.922 -23.877 -14.853  0.00  0.00    +0.035 C 
ATOM     16  C   UNL     1      32.288 -24.300 -13.582  0.00  0.00    +0.007 C 
ATOM     17  H   UNL     1      37.872 -23.228 -14.223  0.00  0.00    +0.158 HD
ENDBRANCH   1  10
BRANCH   1  21
ATOM     18  C   UNL     1      35.460 -19.210 -21.567  0.00  0.00    -0.043 C 
ATOM     19  C   UNL     1      34.375 -19.941 -21.082  0.00  0.00    -0.005 C 
ATOM     20  C   UNL     1      36.725 -19.384 -21.005  0.00  0.00    -0.005 C 
ATOM     21  C   UNL     1      35.819 -21.019 -19.474  0.00  0.00    +0.048 C 
ATOM     22  C   UNL     1      34.555 -20.845 -20.036  0.00  0.00    +0.014 C 
ATOM     23  C   UNL     1      36.904 -20.289 -19.959  0.00  0.00    +0.014 C 
BRANCH  18  24
ATOM     24  C   UNL     1      35.268 -18.244 -22.687  0.00  0.00    -0.050 C 
BRANCH  24  25
ATOM     25  N   UNL     1      35.346 -16.860 -22.245  0.00  0.00    +0.390 N 
ATOM     26  C   UNL     1      34.812 -15.926 -23.236  0.00  0.00    -0.077 C 
ATOM     27  C   UNL     1      34.564 -16.616 -21.033  0.00  0.00    -0.077 C 
ATOM     28  C   UNL     1      34.633 -14.644 -22.437  0.00  0.00    -0.025 C 
ATOM     29  C   UNL     1      34.472 -15.097 -20.988  0.00  0.00    -0.025 C 
ATOM     30  H   UNL     1      36.342 -16.708 -22.085  0.00  0.00    -0.079 HD
ENDBRANCH  24  25
ENDBRANCH  18  24
ENDBRANCH   1  21
TORSDOF 4
ENDMDL
MODEL 5
REMARK VINA RESULT:     -10.8      2.592      3.229
REMARK  Name = 24808489
REMARK  4 active torsions:
REMARK  status: ('A' for Active; 'I' for Inactive)
REMARK    1  A    between atoms: N_1  and  C_10
REMARK    2  A    between atoms: N_1  and  C_21
REMARK    3  A    between atoms: C_18  and  C_24
REMARK    4  A    between atoms: C_24  and  N_25
REMARK                            x       y       z     vdW  Elec       q    Type
REMARK                         _______ _______ _______ _____ _____    ______ ____
ROOT
ATOM      1  N   UNL     1      35.362 -22.137 -19.446  0.00  0.00    -0.311 N 
ATOM      2  H   UNL     1      35.208 -22.888 -20.063  0.00  0.00    +0.152 HD
ENDROOT
BRANCH   1  10
ATOM      3 BR   UNL     1      37.446 -23.583 -13.001  0.00  0.00    -0.049 Br
ATOM      4  O   UNL     1      32.849 -22.375 -19.169  0.00  0.00    -0.270 OA
ATOM      5  O   UNL     1      30.950 -23.502 -15.146  0.00  0.00    -0.270 OA
ATOM      6  N   UNL     1      31.941 -22.940 -17.141  0.00  0.00    -0.248 N 
ATOM      7  C   UNL     1      34.350 -22.729 -17.329  0.00  0.00    +0.068 C 
ATOM      8  C   UNL     1      34.468 -23.074 -15.896  0.00  0.00    +0.010 C 
ATOM      9  C   UNL     1      33.303 -23.337 -15.156  0.00  0.00    +0.054 C 
ATOM     10  C   UNL     1      35.394 -22.459 -18.134  0.00  0.00    +0.066 C 
ATOM     11  C   UNL     1      33.006 -22.658 -17.984  0.00  0.00    +0.253 C 
ATOM     12  C   UNL     1      35.700 -23.155 -15.224  0.00  0.00    +0.007 C 
ATOM     13  C   UNL     1      31.968 -23.271 -15.792  0.00  0.00    +0.252 C 
ATOM     14  C   UNL     1      33.372 -23.668 -13.792  0.00  0.00    +0.005 C 
ATOM     15  C   UNL     1      35.768 -23.485 -13.867  0.00  0.00    +0.035 C 
ATOM     16  C   UNL     1      34.605 -23.741 -13.152  0.00  0.00    +0.007 C 
ATOM     17  H   UNL     1      31.048 -22.897 -17.553  0.00  0.00    +0.158 HD
ENDBRANCH   1  10
BRANCH   1  21
ATOM     18  C   UNL     1      35.833 -18.374 -21.245  0.00  0.00    -0.043 C 
ATOM     19  C   UNL     1      36.929 -19.011 -20.661  0.00  0.00    -0.005 C 
ATOM     20  C   UNL     1      34.581 -18.988 -21.231  0.00  0.00    -0.005 C 
ATOM     21  C   UNL     1      35.519 -20.875 -20.049  0.00  0.00    +0.048 C 
ATOM     22  C   UNL     1      36.772 -20.261 -20.063  0.00  0.00    +0.014 C 
ATOM     23  C   UNL     1      34.424 -20.238 -20.633  0.00  0.00    +0.014 C 
BRANCH  18  24
ATOM     24  C   UNL     1      36.002 -17.037 -21.884  0.00  0.00    -0.050 C 
BRANCH  24  25
ATOM     25  N   UNL     1      34.745 -16.311 -21.991  0.00  0.00    +0.390 N 
ATOM     26  C   UNL     1      34.473 -15.488 -20.813  0.00  0.00    -0.077 C 
ATOM     27  C   UNL     1      34.734 -15.378 -23.117  0.00  0.00    -0.077 C 
ATOM     28  C   UNL     1      33.370 -14.557 -21.293  0.00  0.00    -0.025 C 
ATOM     29  C   UNL     1      33.539 -14.487 -22.808  0.00  0.00    -0.025 C 
ATOM     30  H   UNL     1      34.045 -17.045 -22.104  0.00  0.00    -0.079 HD
ENDBRANCH  24  25
ENDBRANCH  18  24
ENDBRANCH   1  21
TORSDOF 4
ENDMDL
MODEL 6
REMARK VINA RESULT:     -10.6      3.389      4.851
REMARK  Name = 24808489
REMARK  4 active torsions:
REMARK  status: ('A' for Active; 'I' for Inactive)
REMARK    1  A    between atoms: N_1  and  C_10
REMARK    2  A    between atoms: N_1  and  C_21
REMARK    3  A    between atoms: C_18  and  C_24
REMARK    4  A    between atoms: C_24  and  N_25
REMARK                            x       y       z     vdW  Elec       q    Type
REMARK                         _______ _______ _______ _____ _____    ______ ____
ROOT
ATOM      1  N   UNL     1      34.113 -23.780 -16.644  0.00  0.00    -0.311 N 
ATOM      2  H   UNL     1      33.288 -24.275 -16.439  0.00  0.00    +0.152 HD
ENDROOT
BRANCH   1  10
ATOM      3 BR   UNL     1      40.465 -25.667 -14.629  0.00  0.00    -0.049 Br
ATOM      4  O   UNL     1      32.976 -23.548 -14.386  0.00  0.00    -0.270 OA
ATOM      5  O   UNL     1      35.207 -24.349 -10.456  0.00  0.00    -0.270 OA
ATOM      6  N   UNL     1      34.128 -23.957 -12.446  0.00  0.00    -0.248 N 
ATOM      7  C   UNL     1      35.280 -24.198 -14.567  0.00  0.00    +0.068 C 
ATOM      8  C   UNL     1      36.506 -24.576 -13.829  0.00  0.00    +0.010 C 
ATOM      9  C   UNL     1      36.474 -24.626 -12.426  0.00  0.00    +0.054 C 
ATOM     10  C   UNL     1      35.194 -24.118 -15.906  0.00  0.00    +0.066 C 
ATOM     11  C   UNL     1      34.022 -23.870 -13.826  0.00  0.00    +0.253 C 
ATOM     12  C   UNL     1      37.718 -24.894 -14.467  0.00  0.00    +0.007 C 
ATOM     13  C   UNL     1      35.235 -24.305 -11.682  0.00  0.00    +0.252 C 
ATOM     14  C   UNL     1      37.616 -24.980 -11.689  0.00  0.00    +0.005 C 
ATOM     15  C   UNL     1      38.854 -25.247 -13.733  0.00  0.00    +0.035 C 
ATOM     16  C   UNL     1      38.804 -25.290 -12.345  0.00  0.00    +0.007 C 
ATOM     17  H   UNL     1      33.310 -23.744 -11.940  0.00  0.00    +0.158 HD
ENDBRANCH   1  10
BRANCH   1  21
ATOM     18  C   UNL     1      33.802 -20.910 -19.692  0.00  0.00    -0.043 C 
ATOM     19  C   UNL     1      35.047 -21.448 -19.364  0.00  0.00    -0.005 C 
ATOM     20  C   UNL     1      32.661 -21.326 -19.007  0.00  0.00    -0.005 C 
ATOM     21  C   UNL     1      34.009 -22.817 -17.666  0.00  0.00    +0.048 C 
ATOM     22  C   UNL     1      35.150 -22.401 -18.351  0.00  0.00    +0.014 C 
ATOM     23  C   UNL     1      32.764 -22.279 -17.994  0.00  0.00    +0.014 C 
BRANCH  18  24
ATOM     24  C   UNL     1      33.693 -19.891 -20.775  0.00  0.00    -0.050 C 
BRANCH  24  25
ATOM     25  N   UNL     1      34.948 -19.699 -21.485  0.00  0.00    +0.390 N 
ATOM     26  C   UNL     1      34.751 -19.482 -22.918  0.00  0.00    -0.077 C 
ATOM     27  C   UNL     1      35.678 -18.520 -21.019  0.00  0.00    -0.077 C 
ATOM     28  C   UNL     1      36.096 -18.931 -23.368  0.00  0.00    -0.025 C 
ATOM     29  C   UNL     1      36.707 -18.301 -22.119  0.00  0.00    -0.025 C 
ATOM     30  H   UNL     1      35.468 -20.558 -21.304  0.00  0.00    -0.079 HD
ENDBRANCH  24  25
ENDBRANCH  18  24
ENDBRANCH   1  21
TORSDOF 4
ENDMDL
MODEL 7
REMARK VINA RESULT:     -10.4      6.963     12.157
REMARK  Name = 24808489
REMARK  4 active torsions:
REMARK  status: ('A' for Active; 'I' for Inactive)
REMARK    1  A    between atoms: N_1  and  C_10
REMARK    2  A    between atoms: N_1  and  C_21
REMARK    3  A    between atoms: C_18  and  C_24
REMARK    4  A    between atoms: C_24  and  N_25
REMARK                            x       y       z     vdW  Elec       q    Type
REMARK                         _______ _______ _______ _____ _____    ______ ____
ROOT
ATOM      1  N   UNL     1      32.401 -13.203 -22.385  0.00  0.00    -0.311 N 
ATOM      2  H   UNL     1      31.444 -13.425 -22.331  0.00  0.00    +0.152 HD
ENDROOT
BRANCH   1  10
ATOM      3 BR   UNL     1      34.603  -7.033 -24.631  0.00  0.00    -0.049 Br
ATOM      4  O   UNL     1      31.429 -12.542 -20.136  0.00  0.00    -0.270 OA
ATOM      5  O   UNL     1      31.498  -8.201 -18.648  0.00  0.00    -0.270 OA
ATOM      6  N   UNL     1      31.484 -10.360 -19.430  0.00  0.00    -0.248 N 
ATOM      7  C   UNL     1      32.431 -10.918 -21.593  0.00  0.00    +0.068 C 
ATOM      8  C   UNL     1      32.779  -9.492 -21.780  0.00  0.00    +0.010 C 
ATOM      9  C   UNL     1      32.458  -8.569 -20.770  0.00  0.00    +0.054 C 
ATOM     10  C   UNL     1      32.689 -11.887 -22.488  0.00  0.00    +0.066 C 
ATOM     11  C   UNL     1      31.743 -11.372 -20.344  0.00  0.00    +0.253 C 
ATOM     12  C   UNL     1      33.424  -9.004 -22.930  0.00  0.00    +0.007 C 
ATOM     13  C   UNL     1      31.778  -9.006 -19.530  0.00  0.00    +0.252 C 
ATOM     14  C   UNL     1      32.771  -7.207 -20.910  0.00  0.00    +0.005 C 
ATOM     15  C   UNL     1      33.736  -7.648 -23.068  0.00  0.00    +0.035 C 
ATOM     16  C   UNL     1      33.410  -6.751 -22.059  0.00  0.00    +0.007 C 
ATOM     17  H   UNL     1      31.030 -10.639 -18.601  0.00  0.00    +0.158 HD
ENDBRANCH   1  10
BRANCH   1  21
ATOM     18  C   UNL     1      35.036 -16.469 -22.266  0.00  0.00    -0.043 C 
ATOM     19  C   UNL     1      34.624 -15.949 -23.493  0.00  0.00    -0.005 C 
ATOM     20  C   UNL     1      34.572 -15.904 -21.078  0.00  0.00    -0.005 C 
ATOM     21  C   UNL     1      33.284 -14.299 -22.345  0.00  0.00    +0.048 C 
ATOM     22  C   UNL     1      33.748 -14.864 -23.533  0.00  0.00    +0.014 C 
ATOM     23  C   UNL     1      33.696 -14.819 -21.118  0.00  0.00    +0.014 C 
BRANCH  18  24
ATOM     24  C   UNL     1      35.971 -17.629 -22.224  0.00  0.00    -0.050 C 
BRANCH  24  25
ATOM     25  N   UNL     1      35.688 -18.531 -21.117  0.00  0.00    +0.390 N 
ATOM     26  C   UNL     1      34.596 -19.457 -21.416  0.00  0.00    -0.077 C 
ATOM     27  C   UNL     1      36.829 -19.384 -20.787  0.00  0.00    -0.077 C 
ATOM     28  C   UNL     1      34.738 -20.514 -20.331  0.00  0.00    -0.025 C 
ATOM     29  C   UNL     1      36.205 -20.464 -19.915  0.00  0.00    -0.025 C 
ATOM     30  H   UNL     1      35.450 -17.907 -20.346  0.00  0.00    -0.079 HD
ENDBRANCH  24  25
ENDBRANCH  18  24
ENDBRANCH   1  21
TORSDOF 4
ENDMDL
MODEL 8
REMARK VINA RESULT:     -10.2     10.891     16.677
REMARK  Name = 24808489
REMARK  4 active torsions:
REMARK  status: ('A' for Active; 'I' for Inactive)
REMARK    1  A    between atoms: N_1  and  C_10
REMARK    2  A    between atoms: N_1  and  C_21
REMARK    3  A    between atoms: C_18  and  C_24
REMARK    4  A    between atoms: C_24  and  N_25
REMARK                            x       y       z     vdW  Elec       q    Type
REMARK                         _______ _______ _______ _____ _____    ______ ____
ROOT
ATOM      1  N   UNL     1      31.966  -7.433 -21.058  0.00  0.00    -0.311 N 
ATOM      2  H   UNL     1      31.633  -6.905 -20.297  0.00  0.00    +0.152 HD
ENDROOT
BRANCH   1  10
ATOM      3 BR   UNL     1      35.367  -5.226 -26.673  0.00  0.00    -0.049 Br
ATOM      4  O   UNL     1      30.248  -5.580 -20.816  0.00  0.00    -0.270 OA
ATOM      5  O   UNL     1      30.083  -2.034 -23.725  0.00  0.00    -0.270 OA
ATOM      6  N   UNL     1      30.200  -3.825 -22.292  0.00  0.00    -0.248 N 
ATOM      7  C   UNL     1      31.869  -5.561 -22.586  0.00  0.00    +0.068 C 
ATOM      8  C   UNL     1      32.378  -4.836 -23.771  0.00  0.00    +0.010 C 
ATOM      9  C   UNL     1      31.763  -3.632 -24.155  0.00  0.00    +0.054 C 
ATOM     10  C   UNL     1      32.378  -6.718 -22.127  0.00  0.00    +0.066 C 
ATOM     11  C   UNL     1      30.712  -5.020 -21.806  0.00  0.00    +0.253 C 
ATOM     12  C   UNL     1      33.459  -5.292 -24.545  0.00  0.00    +0.007 C 
ATOM     13  C   UNL     1      30.619  -3.086 -23.391  0.00  0.00    +0.252 C 
ATOM     14  C   UNL     1      32.217  -2.914 -25.274  0.00  0.00    +0.005 C 
ATOM     15  C   UNL     1      33.910  -4.577 -25.659  0.00  0.00    +0.035 C 
ATOM     16  C   UNL     1      33.289  -3.389 -26.023  0.00  0.00    +0.007 C 
ATOM     17  H   UNL     1      29.437  -3.453 -21.792  0.00  0.00    +0.158 HD
ENDBRANCH   1  10
BRANCH   1  21
ATOM     18  C   UNL     1      31.919 -11.598 -20.539  0.00  0.00    -0.043 C 
ATOM     19  C   UNL     1      31.936 -11.055 -21.824  0.00  0.00    -0.005 C 
ATOM     20  C   UNL     1      31.917 -10.757 -19.426  0.00  0.00    -0.005 C 
ATOM     21  C   UNL     1      31.949  -8.830 -20.883  0.00  0.00    +0.048 C 
ATOM     22  C   UNL     1      31.951  -9.671 -21.996  0.00  0.00    +0.014 C 
ATOM     23  C   UNL     1      31.932  -9.373 -19.598  0.00  0.00    +0.014 C 
BRANCH  18  24
ATOM     24  C   UNL     1      31.902 -13.078 -20.355  0.00  0.00    -0.050 C 
BRANCH  24  25
ATOM     25  N   UNL     1      33.125 -13.710 -20.827  0.00  0.00    +0.390 N 
ATOM     26  C   UNL     1      33.370 -15.001 -20.185  0.00  0.00    -0.077 C 
ATOM     27  C   UNL     1      33.088 -13.999 -22.260  0.00  0.00    -0.077 C 
ATOM     28  C   UNL     1      34.429 -15.631 -21.078  0.00  0.00    -0.025 C 
ATOM     29  C   UNL     1      34.246 -14.970 -22.441  0.00  0.00    -0.025 C 
ATOM     30  H   UNL     1      33.855 -13.034 -20.599  0.00  0.00    -0.079 HD
ENDBRANCH  24  25
ENDBRANCH  18  24
ENDBRANCH   1  21
TORSDOF 4
ENDMDL
MODEL 9
REMARK VINA RESULT:     -10.1     10.881     16.540
REMARK  Name = 24808489
REMARK  4 active torsions:
REMARK  status: ('A' for Active; 'I' for Inactive)
REMARK    1  A    between atoms: N_1  and  C_10
REMARK    2  A    between atoms: N_1  and  C_21
REMARK    3  A    between atoms: C_18  and  C_24
REMARK    4  A    between atoms: C_24  and  N_25
REMARK                            x       y       z     vdW  Elec       q    Type
REMARK                         _______ _______ _______ _____ _____    ______ ____
ROOT
ATOM      1  N   UNL     1      32.414  -8.229 -22.399  0.00  0.00    -0.311 N 
ATOM      2  H   UNL     1      31.917  -7.881 -21.625  0.00  0.00    +0.152 HD
ENDROOT
BRANCH   1  10
ATOM      3 BR   UNL     1      35.973  -4.813 -27.261  0.00  0.00    -0.049 Br
ATOM      4  O   UNL     1      30.585  -6.538 -21.910  0.00  0.00    -0.270 OA
ATOM      5  O   UNL     1      30.373  -2.501 -24.082  0.00  0.00    -0.270 OA
ATOM      6  N   UNL     1      30.516  -4.532 -23.019  0.00  0.00    -0.248 N 
ATOM      7  C   UNL     1      32.292  -6.100 -23.540  0.00  0.00    +0.068 C 
ATOM      8  C   UNL     1      32.820  -5.134 -24.528  0.00  0.00    +0.010 C 
ATOM      9  C   UNL     1      32.160  -3.907 -24.709  0.00  0.00    +0.054 C 
ATOM     10  C   UNL     1      32.840  -7.301 -23.283  0.00  0.00    +0.066 C 
ATOM     11  C   UNL     1      31.068  -5.775 -22.743  0.00  0.00    +0.253 C 
ATOM     12  C   UNL     1      33.964  -5.381 -25.308  0.00  0.00    +0.007 C 
ATOM     13  C   UNL     1      30.949  -3.573 -23.926  0.00  0.00    +0.252 C 
ATOM     14  C   UNL     1      32.630  -2.964 -25.638  0.00  0.00    +0.005 C 
ATOM     15  C   UNL     1      34.431  -4.441 -26.232  0.00  0.00    +0.035 C 
ATOM     16  C   UNL     1      33.765  -3.234 -26.396  0.00  0.00    +0.007 C 
ATOM     17  H   UNL     1      29.708  -4.300 -22.505  0.00  0.00    +0.158 HD
ENDBRANCH   1  10
BRANCH   1  21
ATOM     18  C   UNL     1      32.928 -12.394 -22.508  0.00  0.00    -0.043 C 
ATOM     19  C   UNL     1      33.682 -11.576 -23.350  0.00  0.00    -0.005 C 
ATOM     20  C   UNL     1      32.003 -11.829 -21.631  0.00  0.00    -0.005 C 
ATOM     21  C   UNL     1      32.586  -9.627 -22.436  0.00  0.00    +0.048 C 
ATOM     22  C   UNL     1      33.510 -10.192 -23.314  0.00  0.00    +0.014 C 
ATOM     23  C   UNL     1      31.832 -10.445 -21.594  0.00  0.00    +0.014 C 
BRANCH  18  24
ATOM     24  C   UNL     1      33.110 -13.874 -22.547  0.00  0.00    -0.050 C 
BRANCH  24  25
ATOM     25  N   UNL     1      33.851 -14.310 -23.722  0.00  0.00    +0.390 N 
ATOM     26  C   UNL     1      34.369 -15.671 -23.582  0.00  0.00    -0.077 C 
ATOM     27  C   UNL     1      33.020 -14.342 -24.925  0.00  0.00    -0.077 C 
ATOM     28  C   UNL     1      34.739 -16.044 -25.009  0.00  0.00    -0.025 C 
ATOM     29  C   UNL     1      33.855 -15.169 -25.892  0.00  0.00    -0.025 C 
ATOM     30  H   UNL     1      34.606 -13.629 -23.805  0.00  0.00    -0.079 HD
ENDBRANCH  24  25
ENDBRANCH  18  24
ENDBRANCH   1  21
TORSDOF 4
ENDMDL
