MODEL 1
REMARK VINA RESULT:     -13.3      0.000      0.000
REMARK  Name = 11952989
REMARK  5 active torsions:
REMARK  status: ('A' for Active; 'I' for Inactive)
REMARK    1  A    between atoms: C_4  and  C_21
REMARK    2  A    between atoms: C_6  and  C_11
REMARK    3  A    between atoms: C_24  and  C_27
REMARK    4  A    between atoms: C_27  and  C_29
REMARK    5  A    between atoms: C_29  and  O_30
REMARK                            x       y       z     vdW  Elec       q    Type
REMARK                         _______ _______ _______ _____ _____    ______ ____
ROOT
ATOM      1  N   UNL     1      33.823 -14.603 -25.707  0.00  0.00    -0.297 N 
ATOM      2  N   UNL     1      34.871 -16.744 -25.359  0.00  0.00    -0.229 NA
ATOM      3  C   UNL     1      33.958 -15.310 -23.593  0.00  0.00    +0.033 C 
ATOM      4  C   UNL     1      33.316 -14.042 -23.614  0.00  0.00    +0.017 C 
ATOM      5  C   UNL     1      34.260 -15.631 -24.913  0.00  0.00    +0.132 C 
ATOM      6  C   UNL     1      34.958 -17.406 -23.011  0.00  0.00    +0.019 C 
ATOM      7  C   UNL     1      34.322 -16.236 -22.603  0.00  0.00    +0.004 C 
ATOM      8  C   UNL     1      33.248 -13.633 -24.929  0.00  0.00    +0.063 C 
ATOM      9  C   UNL     1      35.199 -17.600 -24.364  0.00  0.00    +0.100 C 
ATOM     10  H   UNL     1      33.908 -14.568 -26.688  0.00  0.00    +0.154 HD
ENDROOT
BRANCH   6  11
ATOM     11  C   UNL     1      35.360 -18.401 -22.040  0.00  0.00    +0.001 C 
ATOM     12  C   UNL     1      34.771 -20.179 -20.488  0.00  0.00    +0.000 C 
ATOM     13  C   UNL     1      34.398 -19.209 -21.433  0.00  0.00    +0.000 C 
ATOM     14  C   UNL     1      36.138 -20.332 -20.156  0.00  0.00    +0.000 C 
ATOM     15  C   UNL     1      36.704 -18.550 -21.713  0.00  0.00    +0.000 C 
ATOM     16  C   UNL     1      37.092 -19.509 -20.778  0.00  0.00    +0.000 C 
ATOM     17  C   UNL     1      33.817 -21.001 -19.866  0.00  0.00    +0.000 C 
ATOM     18  C   UNL     1      36.511 -21.302 -19.211  0.00  0.00    +0.000 C 
ATOM     19  C   UNL     1      34.206 -21.960 -18.930  0.00  0.00    +0.000 C 
ATOM     20  C   UNL     1      35.550 -22.110 -18.603  0.00  0.00    +0.000 C 
ENDBRANCH   6  11
BRANCH   4  21
ATOM     21  C   UNL     1      32.802 -13.251 -22.534  0.00  0.00    +0.001 C 
ATOM     22  C   UNL     1      32.592 -11.882 -22.708  0.00  0.00    -0.000 C 
ATOM     23  C   UNL     1      32.510 -13.849 -21.307  0.00  0.00    -0.000 C 
ATOM     24  C   UNL     1      31.800 -11.712 -20.432  0.00  0.00    -0.011 C 
ATOM     25  C   UNL     1      32.092 -11.114 -21.658  0.00  0.00    -0.004 C 
ATOM     26  C   UNL     1      32.010 -13.080 -20.257  0.00  0.00    -0.004 C 
BRANCH  24  27
ATOM     27  C   UNL     1      31.263 -10.889 -19.310  0.00  0.00    +0.136 C 
BRANCH  27  29
ATOM     28  O   UNL     1      31.571  -8.482 -19.516  0.00  0.00    -0.250 OA
ATOM     29  C   UNL     1      31.983  -9.568 -19.130  0.00  0.00    +0.318 C 
BRANCH  29  30
ATOM     30  O   UNL     1      33.166  -9.721 -18.478  0.00  0.00    -0.480 OA
ATOM     31  H   UNL     1      33.369 -10.536 -18.060  0.00  0.00    +0.295 HD
ENDBRANCH  29  30
ENDBRANCH  27  29
ENDBRANCH  24  27
ENDBRANCH   4  21
TORSDOF 5
ENDMDL
MODEL 2
REMARK VINA RESULT:     -12.2      7.143     10.764
REMARK  Name = 11952989
REMARK  5 active torsions:
REMARK  status: ('A' for Active; 'I' for Inactive)
REMARK    1  A    between atoms: C_4  and  C_21
REMARK    2  A    between atoms: C_6  and  C_11
REMARK    3  A    between atoms: C_24  and  C_27
REMARK    4  A    between atoms: C_27  and  C_29
REMARK    5  A    between atoms: C_29  and  O_30
REMARK                            x       y       z     vdW  Elec       q    Type
REMARK                         _______ _______ _______ _____ _____    ______ ____
ROOT
ATOM      1  N   UNL     1      33.087 -25.245 -13.411  0.00  0.00    -0.297 N 
ATOM      2  N   UNL     1      35.077 -24.578 -14.593  0.00  0.00    -0.229 NA
ATOM      3  C   UNL     1      32.798 -23.848 -15.129  0.00  0.00    +0.033 C 
ATOM      4  C   UNL     1      31.533 -24.134 -14.551  0.00  0.00    +0.017 C 
ATOM      5  C   UNL     1      33.746 -24.556 -14.395  0.00  0.00    +0.132 C 
ATOM      6  C   UNL     1      34.632 -23.052 -16.447  0.00  0.00    +0.019 C 
ATOM      7  C   UNL     1      33.262 -23.065 -16.198  0.00  0.00    +0.004 C 
ATOM      8  C   UNL     1      31.742 -24.996 -13.496  0.00  0.00    +0.063 C 
ATOM      9  C   UNL     1      35.468 -23.806 -15.635  0.00  0.00    +0.100 C 
ATOM     10  H   UNL     1      33.515 -25.830 -12.744  0.00  0.00    +0.154 HD
ENDROOT
BRANCH   6  11
ATOM     11  C   UNL     1      35.174 -22.266 -17.534  0.00  0.00    +0.001 C 
ATOM     12  C   UNL     1      34.835 -20.996 -19.581  0.00  0.00    +0.000 C 
ATOM     13  C   UNL     1      34.325 -21.761 -18.519  0.00  0.00    +0.000 C 
ATOM     14  C   UNL     1      36.226 -20.741 -19.645  0.00  0.00    +0.000 C 
ATOM     15  C   UNL     1      36.542 -22.015 -17.596  0.00  0.00    +0.000 C 
ATOM     16  C   UNL     1      37.065 -21.257 -18.644  0.00  0.00    +0.000 C 
ATOM     17  C   UNL     1      33.995 -20.480 -20.582  0.00  0.00    +0.000 C 
ATOM     18  C   UNL     1      36.735 -19.976 -20.707  0.00  0.00    +0.000 C 
ATOM     19  C   UNL     1      34.520 -19.723 -21.629  0.00  0.00    +0.000 C 
ATOM     20  C   UNL     1      35.887 -19.471 -21.692  0.00  0.00    +0.000 C 
ENDBRANCH   6  11
BRANCH   4  21
ATOM     21  C   UNL     1      30.226 -23.670 -14.917  0.00  0.00    +0.001 C 
ATOM     22  C   UNL     1      29.744 -22.465 -14.406  0.00  0.00    -0.000 C 
ATOM     23  C   UNL     1      29.435 -24.422 -15.787  0.00  0.00    -0.000 C 
ATOM     24  C   UNL     1      27.684 -22.766 -15.632  0.00  0.00    -0.011 C 
ATOM     25  C   UNL     1      28.473 -22.014 -14.763  0.00  0.00    -0.004 C 
ATOM     26  C   UNL     1      28.165 -23.971 -16.144  0.00  0.00    -0.004 C 
BRANCH  24  27
ATOM     27  C   UNL     1      26.326 -22.281 -16.015  0.00  0.00    +0.136 C 
BRANCH  27  29
ATOM     28  O   UNL     1      26.242 -20.337 -17.478  0.00  0.00    -0.250 OA
ATOM     29  C   UNL     1      26.297 -21.552 -17.343  0.00  0.00    +0.318 C 
BRANCH  29  30
ATOM     30  O   UNL     1      26.341 -22.412 -18.395  0.00  0.00    -0.480 OA
ATOM     31  H   UNL     1      26.248 -22.087 -19.269  0.00  0.00    +0.295 HD
ENDBRANCH  29  30
ENDBRANCH  27  29
ENDBRANCH  24  27
ENDBRANCH   4  21
TORSDOF 5
ENDMDL
MODEL 3
REMARK VINA RESULT:     -11.8      7.624     12.259
REMARK  Name = 11952989
REMARK  5 active torsions:
REMARK  status: ('A' for Active; 'I' for Inactive)
REMARK    1  A    between atoms: C_4  and  C_21
REMARK    2  A    between atoms: C_6  and  C_11
REMARK    3  A    between atoms: C_24  and  C_27
REMARK    4  A    between atoms: C_27  and  C_29
REMARK    5  A    between atoms: C_29  and  O_30
REMARK                            x       y       z     vdW  Elec       q    Type
REMARK                         _______ _______ _______ _____ _____    ______ ____
ROOT
ATOM      1  N   UNL     1      31.975 -24.561 -14.240  0.00  0.00    -0.297 N 
ATOM      2  N   UNL     1      31.293 -23.156 -16.074  0.00  0.00    -0.229 NA
ATOM      3  C   UNL     1      33.602 -23.810 -15.571  0.00  0.00    +0.033 C 
ATOM      4  C   UNL     1      34.177 -24.616 -14.553  0.00  0.00    +0.017 C 
ATOM      5  C   UNL     1      32.229 -23.796 -15.348  0.00  0.00    +0.132 C 
ATOM      6  C   UNL     1      33.159 -22.400 -17.455  0.00  0.00    +0.019 C 
ATOM      7  C   UNL     1      34.086 -23.082 -16.670  0.00  0.00    +0.004 C 
ATOM      8  C   UNL     1      33.152 -25.064 -13.748  0.00  0.00    +0.063 C 
ATOM      9  C   UNL     1      31.815 -22.472 -17.119  0.00  0.00    +0.100 C 
ATOM     10  H   UNL     1      31.083 -24.725 -13.855  0.00  0.00    +0.154 HD
ENDROOT
BRANCH   6  11
ATOM     11  C   UNL     1      33.592 -21.631 -18.601  0.00  0.00    +0.001 C 
ATOM     12  C   UNL     1      35.387 -20.633 -19.905  0.00  0.00    +0.000 C 
ATOM     13  C   UNL     1      34.950 -21.379 -18.798  0.00  0.00    +0.000 C 
ATOM     14  C   UNL     1      34.433 -20.137 -20.826  0.00  0.00    +0.000 C 
ATOM     15  C   UNL     1      32.654 -21.142 -19.506  0.00  0.00    +0.000 C 
ATOM     16  C   UNL     1      33.070 -20.400 -20.611  0.00  0.00    +0.000 C 
ATOM     17  C   UNL     1      36.750 -20.370 -20.120  0.00  0.00    +0.000 C 
ATOM     18  C   UNL     1      34.870 -19.391 -21.933  0.00  0.00    +0.000 C 
ATOM     19  C   UNL     1      37.165 -19.627 -21.226  0.00  0.00    +0.000 C 
ATOM     20  C   UNL     1      36.228 -19.139 -22.130  0.00  0.00    +0.000 C 
ENDBRANCH   6  11
BRANCH   4  21
ATOM     21  C   UNL     1      35.549 -24.961 -14.314  0.00  0.00    +0.001 C 
ATOM     22  C   UNL     1      36.074 -26.143 -14.839  0.00  0.00    -0.000 C 
ATOM     23  C   UNL     1      36.361 -24.115 -13.558  0.00  0.00    -0.000 C 
ATOM     24  C   UNL     1      38.218 -25.631 -13.851  0.00  0.00    -0.011 C 
ATOM     25  C   UNL     1      37.407 -26.478 -14.607  0.00  0.00    -0.004 C 
ATOM     26  C   UNL     1      37.695 -24.449 -13.326  0.00  0.00    -0.004 C 
BRANCH  24  27
ATOM     27  C   UNL     1      39.646 -25.989 -13.606  0.00  0.00    +0.136 C 
BRANCH  27  29
ATOM     28  O   UNL     1      41.318 -24.449 -14.478  0.00  0.00    -0.250 OA
ATOM     29  C   UNL     1      40.597 -25.424 -14.641  0.00  0.00    +0.318 C 
BRANCH  29  30
ATOM     30  O   UNL     1      40.563 -26.134 -15.800  0.00  0.00    -0.480 OA
ATOM     31  H   UNL     1      40.393 -25.696 -16.612  0.00  0.00    +0.295 HD
ENDBRANCH  29  30
ENDBRANCH  27  29
ENDBRANCH  24  27
ENDBRANCH   4  21
TORSDOF 5
ENDMDL
MODEL 4
REMARK VINA RESULT:     -11.6      1.436      2.404
REMARK  Name = 11952989
REMARK  5 active torsions:
REMARK  status: ('A' for Active; 'I' for Inactive)
REMARK    1  A    between atoms: C_4  and  C_21
REMARK    2  A    between atoms: C_6  and  C_11
REMARK    3  A    between atoms: C_24  and  C_27
REMARK    4  A    between atoms: C_27  and  C_29
REMARK    5  A    between atoms: C_29  and  O_30
REMARK                            x       y       z     vdW  Elec       q    Type
REMARK                         _______ _______ _______ _____ _____    ______ ____
ROOT
ATOM      1  N   UNL     1      35.155 -16.820 -24.750  0.00  0.00    -0.297 N 
ATOM      2  N   UNL     1      35.738 -19.014 -23.945  0.00  0.00    -0.229 NA
ATOM      3  C   UNL     1      34.701 -17.242 -22.605  0.00  0.00    +0.033 C 
ATOM      4  C   UNL     1      34.296 -15.914 -22.908  0.00  0.00    +0.017 C 
ATOM      5  C   UNL     1      35.232 -17.778 -23.774  0.00  0.00    +0.132 C 
ATOM      6  C   UNL     1      35.193 -19.354 -21.590  0.00  0.00    +0.019 C 
ATOM      7  C   UNL     1      34.681 -18.064 -21.467  0.00  0.00    +0.004 C 
ATOM      8  C   UNL     1      34.588 -15.683 -24.235  0.00  0.00    +0.063 C 
ATOM      9  C   UNL     1      35.693 -19.762 -22.818  0.00  0.00    +0.100 C 
ATOM     10  H   UNL     1      35.460 -16.930 -25.680  0.00  0.00    +0.154 HD
ENDROOT
BRANCH   6  11
ATOM     11  C   UNL     1      35.203 -20.251 -20.455  0.00  0.00    +0.001 C 
ATOM     12  C   UNL     1      33.990 -21.600 -18.834  0.00  0.00    +0.000 C 
ATOM     13  C   UNL     1      33.999 -20.729 -19.935  0.00  0.00    +0.000 C 
ATOM     14  C   UNL     1      35.220 -21.993 -18.252  0.00  0.00    +0.000 C 
ATOM     15  C   UNL     1      36.411 -20.637 -19.883  0.00  0.00    +0.000 C 
ATOM     16  C   UNL     1      36.421 -21.502 -18.789  0.00  0.00    +0.000 C 
ATOM     17  C   UNL     1      32.788 -22.091 -18.297  0.00  0.00    +0.000 C 
ATOM     18  C   UNL     1      35.210 -22.865 -17.151  0.00  0.00    +0.000 C 
ATOM     19  C   UNL     1      32.800 -22.956 -17.202  0.00  0.00    +0.000 C 
ATOM     20  C   UNL     1      34.007 -23.342 -16.630  0.00  0.00    +0.000 C 
ENDBRANCH   6  11
BRANCH   4  21
ATOM     21  C   UNL     1      33.690 -14.921 -22.069  0.00  0.00    +0.001 C 
ATOM     22  C   UNL     1      33.454 -13.638 -22.564  0.00  0.00    -0.000 C 
ATOM     23  C   UNL     1      33.336 -15.236 -20.756  0.00  0.00    -0.000 C 
ATOM     24  C   UNL     1      32.511 -12.989 -20.436  0.00  0.00    -0.011 C 
ATOM     25  C   UNL     1      32.865 -12.673 -21.748  0.00  0.00    -0.004 C 
ATOM     26  C   UNL     1      32.747 -14.271 -19.940  0.00  0.00    -0.004 C 
BRANCH  24  27
ATOM     27  C   UNL     1      31.879 -11.956 -19.565  0.00  0.00    +0.136 C 
BRANCH  27  29
ATOM     28  O   UNL     1      31.487  -9.716 -20.435  0.00  0.00    -0.250 OA
ATOM     29  C   UNL     1      31.137 -10.884 -20.339  0.00  0.00    +0.318 C 
BRANCH  29  30
ATOM     30  O   UNL     1      30.014 -11.372 -20.929  0.00  0.00    -0.480 OA
ATOM     31  H   UNL     1      29.202 -11.372 -20.462  0.00  0.00    +0.295 HD
ENDBRANCH  29  30
ENDBRANCH  27  29
ENDBRANCH  24  27
ENDBRANCH   4  21
TORSDOF 5
ENDMDL
MODEL 5
REMARK VINA RESULT:     -11.6      5.211     10.737
REMARK  Name = 11952989
REMARK  5 active torsions:
REMARK  status: ('A' for Active; 'I' for Inactive)
REMARK    1  A    between atoms: C_4  and  C_21
REMARK    2  A    between atoms: C_6  and  C_11
REMARK    3  A    between atoms: C_24  and  C_27
REMARK    4  A    between atoms: C_27  and  C_29
REMARK    5  A    between atoms: C_29  and  O_30
REMARK                            x       y       z     vdW  Elec       q    Type
REMARK                         _______ _______ _______ _____ _____    ______ ____
ROOT
ATOM      1  N   UNL     1      31.171 -11.420 -19.797  0.00  0.00    -0.297 N 
ATOM      2  N   UNL     1      31.436  -9.103 -20.399  0.00  0.00    -0.229 NA
ATOM      3  C   UNL     1      32.459 -10.998 -21.571  0.00  0.00    +0.033 C 
ATOM      4  C   UNL     1      32.412 -12.402 -21.361  0.00  0.00    +0.017 C 
ATOM      5  C   UNL     1      31.675 -10.415 -20.580  0.00  0.00    +0.132 C 
ATOM      6  C   UNL     1      32.863  -8.771 -22.352  0.00  0.00    +0.019 C 
ATOM      7  C   UNL     1      33.077 -10.140 -22.494  0.00  0.00    +0.004 C 
ATOM      8  C   UNL     1      31.612 -12.631 -20.262  0.00  0.00    +0.063 C 
ATOM      9  C   UNL     1      32.056  -8.323 -21.315  0.00  0.00    +0.100 C 
ATOM     10  H   UNL     1      30.581 -11.292 -19.018  0.00  0.00    +0.154 HD
ENDROOT
BRANCH   6  11
ATOM     11  C   UNL     1      33.472  -7.832 -23.269  0.00  0.00    +0.001 C 
ATOM     12  C   UNL     1      33.302  -5.844 -24.661  0.00  0.00    +0.000 C 
ATOM     13  C   UNL     1      32.727  -6.764 -23.769  0.00  0.00    +0.000 C 
ATOM     14  C   UNL     1      34.653  -6.011 -25.051  0.00  0.00    +0.000 C 
ATOM     15  C   UNL     1      34.800  -7.996 -23.653  0.00  0.00    +0.000 C 
ATOM     16  C   UNL     1      35.388  -7.092 -24.537  0.00  0.00    +0.000 C 
ATOM     17  C   UNL     1      32.567  -4.763 -25.175  0.00  0.00    +0.000 C 
ATOM     18  C   UNL     1      35.228  -5.091 -25.943  0.00  0.00    +0.000 C 
ATOM     19  C   UNL     1      33.156  -3.860 -26.060  0.00  0.00    +0.000 C 
ATOM     20  C   UNL     1      34.483  -4.023 -26.443  0.00  0.00    +0.000 C 
ENDBRANCH   6  11
BRANCH   4  21
ATOM     21  C   UNL     1      33.040 -13.465 -22.090  0.00  0.00    +0.001 C 
ATOM     22  C   UNL     1      32.990 -13.480 -23.485  0.00  0.00    -0.000 C 
ATOM     23  C   UNL     1      33.703 -14.486 -21.407  0.00  0.00    -0.000 C 
ATOM     24  C   UNL     1      34.264 -15.533 -23.510  0.00  0.00    -0.011 C 
ATOM     25  C   UNL     1      33.602 -14.513 -24.194  0.00  0.00    -0.004 C 
ATOM     26  C   UNL     1      34.314 -15.519 -22.116  0.00  0.00    -0.004 C 
BRANCH  24  27
ATOM     27  C   UNL     1      34.920 -16.637 -24.270  0.00  0.00    +0.136 C 
BRANCH  27  29
ATOM     28  O   UNL     1      34.532 -18.851 -23.334  0.00  0.00    -0.250 OA
ATOM     29  C   UNL     1      35.233 -17.852 -23.421  0.00  0.00    +0.318 C 
BRANCH  29  30
ATOM     30  O   UNL     1      36.406 -17.711 -22.748  0.00  0.00    -0.480 OA
ATOM     31  H   UNL     1      36.605 -16.902 -22.318  0.00  0.00    +0.295 HD
ENDBRANCH  29  30
ENDBRANCH  27  29
ENDBRANCH  24  27
ENDBRANCH   4  21
TORSDOF 5
ENDMDL
MODEL 6
REMARK VINA RESULT:     -11.1      5.262     11.028
REMARK  Name = 11952989
REMARK  5 active torsions:
REMARK  status: ('A' for Active; 'I' for Inactive)
REMARK    1  A    between atoms: C_4  and  C_21
REMARK    2  A    between atoms: C_6  and  C_11
REMARK    3  A    between atoms: C_24  and  C_27
REMARK    4  A    between atoms: C_27  and  C_29
REMARK    5  A    between atoms: C_29  and  O_30
REMARK                            x       y       z     vdW  Elec       q    Type
REMARK                         _______ _______ _______ _____ _____    ______ ____
ROOT
ATOM      1  N   UNL     1      31.495 -10.700 -18.844  0.00  0.00    -0.297 N 
ATOM      2  N   UNL     1      31.454  -8.358 -19.409  0.00  0.00    -0.229 NA
ATOM      3  C   UNL     1      32.208 -10.161 -20.890  0.00  0.00    +0.033 C 
ATOM      4  C   UNL     1      32.298 -11.569 -20.728  0.00  0.00    +0.017 C 
ATOM      5  C   UNL     1      31.703  -9.649 -19.698  0.00  0.00    +0.132 C 
ATOM      6  C   UNL     1      32.255  -7.897 -21.668  0.00  0.00    +0.019 C 
ATOM      7  C   UNL     1      32.494  -9.246 -21.917  0.00  0.00    +0.004 C 
ATOM      8  C   UNL     1      31.853 -11.871 -19.459  0.00  0.00    +0.063 C 
ATOM      9  C   UNL     1      31.748  -7.522 -20.432  0.00  0.00    +0.100 C 
ATOM     10  H   UNL     1      31.142 -10.625 -17.927  0.00  0.00    +0.154 HD
ENDROOT
BRANCH   6  11
ATOM     11  C   UNL     1      32.529  -6.903 -22.683  0.00  0.00    +0.001 C 
ATOM     12  C   UNL     1      33.980  -6.031 -24.431  0.00  0.00    +0.000 C 
ATOM     13  C   UNL     1      33.697  -6.987 -23.442  0.00  0.00    +0.000 C 
ATOM     14  C   UNL     1      33.064  -4.974 -24.654  0.00  0.00    +0.000 C 
ATOM     15  C   UNL     1      31.629  -5.864 -22.902  0.00  0.00    +0.000 C 
ATOM     16  C   UNL     1      31.893  -4.906 -23.880  0.00  0.00    +0.000 C 
ATOM     17  C   UNL     1      35.150  -6.099 -25.205  0.00  0.00    +0.000 C 
ATOM     18  C   UNL     1      33.346  -4.018 -25.642  0.00  0.00    +0.000 C 
ATOM     19  C   UNL     1      35.414  -5.139 -26.182  0.00  0.00    +0.000 C 
ATOM     20  C   UNL     1      34.514  -4.101 -26.401  0.00  0.00    +0.000 C 
ENDBRANCH   6  11
BRANCH   4  21
ATOM     21  C   UNL     1      32.753 -12.575 -21.644  0.00  0.00    +0.001 C 
ATOM     22  C   UNL     1      33.054 -12.234 -22.963  0.00  0.00    -0.000 C 
ATOM     23  C   UNL     1      32.895 -13.896 -21.217  0.00  0.00    -0.000 C 
ATOM     24  C   UNL     1      33.638 -14.533 -23.425  0.00  0.00    -0.011 C 
ATOM     25  C   UNL     1      33.496 -13.213 -23.853  0.00  0.00    -0.004 C 
ATOM     26  C   UNL     1      33.337 -14.874 -22.107  0.00  0.00    -0.004 C 
BRANCH  24  27
ATOM     27  C   UNL     1      34.114 -15.578 -24.378  0.00  0.00    +0.136 C 
BRANCH  27  29
ATOM     28  O   UNL     1      34.690 -17.861 -23.758  0.00  0.00    -0.250 OA
ATOM     29  C   UNL     1      34.941 -16.664 -23.719  0.00  0.00    +0.318 C 
BRANCH  29  30
ATOM     30  O   UNL     1      36.018 -16.154 -23.065  0.00  0.00    -0.480 OA
ATOM     31  H   UNL     1      36.214 -15.240 -23.127  0.00  0.00    +0.295 HD
ENDBRANCH  29  30
ENDBRANCH  27  29
ENDBRANCH  24  27
ENDBRANCH   4  21
TORSDOF 5
ENDMDL
MODEL 7
REMARK VINA RESULT:     -11.0      6.254     11.837
REMARK  Name = 11952989
REMARK  5 active torsions:
REMARK  status: ('A' for Active; 'I' for Inactive)
REMARK    1  A    between atoms: C_4  and  C_21
REMARK    2  A    between atoms: C_6  and  C_11
REMARK    3  A    between atoms: C_24  and  C_27
REMARK    4  A    between atoms: C_27  and  C_29
REMARK    5  A    between atoms: C_29  and  O_30
REMARK                            x       y       z     vdW  Elec       q    Type
REMARK                         _______ _______ _______ _____ _____    ______ ____
ROOT
ATOM      1  N   UNL     1      31.547  -8.780 -19.837  0.00  0.00    -0.297 N 
ATOM      2  N   UNL     1      31.948  -6.602 -20.784  0.00  0.00    -0.229 NA
ATOM      3  C   UNL     1      32.522  -8.737 -21.845  0.00  0.00    +0.033 C 
ATOM      4  C   UNL     1      32.362 -10.089 -21.441  0.00  0.00    +0.017 C 
ATOM      5  C   UNL     1      32.004  -7.946 -20.823  0.00  0.00    +0.132 C 
ATOM      6  C   UNL     1      33.017  -6.686 -22.978  0.00  0.00    +0.019 C 
ATOM      7  C   UNL     1      33.049  -8.078 -22.968  0.00  0.00    +0.004 C 
ATOM      8  C   UNL     1      31.759 -10.084 -20.201  0.00  0.00    +0.063 C 
ATOM      9  C   UNL     1      32.469  -6.021 -21.890  0.00  0.00    +0.100 C 
ATOM     10  H   UNL     1      31.129  -8.487 -18.994  0.00  0.00    +0.154 HD
ENDROOT
BRANCH   6  11
ATOM     11  C   UNL     1      33.544  -5.947 -24.104  0.00  0.00    +0.001 C 
ATOM     12  C   UNL     1      33.296  -4.183 -25.761  0.00  0.00    +0.000 C 
ATOM     13  C   UNL     1      32.799  -4.910 -24.667  0.00  0.00    +0.000 C 
ATOM     14  C   UNL     1      34.567  -4.512 -26.291  0.00  0.00    +0.000 C 
ATOM     15  C   UNL     1      34.793  -6.271 -24.625  0.00  0.00    +0.000 C 
ATOM     16  C   UNL     1      35.303  -5.559 -25.712  0.00  0.00    +0.000 C 
ATOM     17  C   UNL     1      32.560  -3.136 -26.341  0.00  0.00    +0.000 C 
ATOM     18  C   UNL     1      35.063  -3.785 -27.385  0.00  0.00    +0.000 C 
ATOM     19  C   UNL     1      33.071  -2.425 -27.427  0.00  0.00    +0.000 C 
ATOM     20  C   UNL     1      34.319  -2.748 -27.949  0.00  0.00    +0.000 C 
ENDBRANCH   6  11
BRANCH   4  21
ATOM     21  C   UNL     1      32.724 -11.302 -22.116  0.00  0.00    +0.001 C 
ATOM     22  C   UNL     1      33.601 -11.263 -23.200  0.00  0.00    -0.000 C 
ATOM     23  C   UNL     1      32.199 -12.523 -21.689  0.00  0.00    -0.000 C 
ATOM     24  C   UNL     1      33.428 -13.662 -23.428  0.00  0.00    -0.011 C 
ATOM     25  C   UNL     1      33.953 -12.443 -23.856  0.00  0.00    -0.004 C 
ATOM     26  C   UNL     1      32.551 -13.702 -22.344  0.00  0.00    -0.004 C 
BRANCH  24  27
ATOM     27  C   UNL     1      33.808 -14.924 -24.128  0.00  0.00    +0.136 C 
BRANCH  27  29
ATOM     28  O   UNL     1      34.212 -15.370 -26.488  0.00  0.00    -0.250 OA
ATOM     29  C   UNL     1      33.493 -14.910 -25.611  0.00  0.00    +0.318 C 
BRANCH  29  30
ATOM     30  O   UNL     1      32.297 -14.317 -25.869  0.00  0.00    -0.480 OA
ATOM     31  H   UNL     1      31.510 -14.827 -25.859  0.00  0.00    +0.295 HD
ENDBRANCH  29  30
ENDBRANCH  27  29
ENDBRANCH  24  27
ENDBRANCH   4  21
TORSDOF 5
ENDMDL
MODEL 8
REMARK VINA RESULT:     -11.0      5.735     11.428
REMARK  Name = 11952989
REMARK  5 active torsions:
REMARK  status: ('A' for Active; 'I' for Inactive)
REMARK    1  A    between atoms: C_4  and  C_21
REMARK    2  A    between atoms: C_6  and  C_11
REMARK    3  A    between atoms: C_24  and  C_27
REMARK    4  A    between atoms: C_27  and  C_29
REMARK    5  A    between atoms: C_29  and  O_30
REMARK                            x       y       z     vdW  Elec       q    Type
REMARK                         _______ _______ _______ _____ _____    ______ ____
ROOT
ATOM      1  N   UNL     1      31.502  -9.912 -19.625  0.00  0.00    -0.297 N 
ATOM      2  N   UNL     1      31.789  -7.632 -20.347  0.00  0.00    -0.229 NA
ATOM      3  C   UNL     1      32.474  -9.616 -21.613  0.00  0.00    +0.033 C 
ATOM      4  C   UNL     1      32.384 -11.009 -21.348  0.00  0.00    +0.017 C 
ATOM      5  C   UNL     1      31.915  -8.961 -20.520  0.00  0.00    +0.132 C 
ATOM      6  C   UNL     1      32.861  -7.439 -22.532  0.00  0.00    +0.019 C 
ATOM      7  C   UNL     1      32.966  -8.822 -22.661  0.00  0.00    +0.004 C 
ATOM      8  C   UNL     1      31.781 -11.160 -20.118  0.00  0.00    +0.063 C 
ATOM      9  C   UNL     1      32.280  -6.916 -21.386  0.00  0.00    +0.100 C 
ATOM     10  H   UNL     1      31.069  -9.727 -18.760  0.00  0.00    +0.154 HD
ENDROOT
BRANCH   6  11
ATOM     11  C   UNL     1      33.350  -6.565 -23.575  0.00  0.00    +0.001 C 
ATOM     12  C   UNL     1      33.018  -4.647 -25.036  0.00  0.00    +0.000 C 
ATOM     13  C   UNL     1      32.560  -5.506 -24.023  0.00  0.00    +0.000 C 
ATOM     14  C   UNL     1      34.298  -4.866 -25.602  0.00  0.00    +0.000 C 
ATOM     15  C   UNL     1      34.607  -6.780 -24.132  0.00  0.00    +0.000 C 
ATOM     16  C   UNL     1      35.079  -5.937 -25.138  0.00  0.00    +0.000 C 
ATOM     17  C   UNL     1      32.236  -3.576 -25.499  0.00  0.00    +0.000 C 
ATOM     18  C   UNL     1      34.756  -4.008 -26.614  0.00  0.00    +0.000 C 
ATOM     19  C   UNL     1      32.709  -2.734 -26.506  0.00  0.00    +0.000 C 
ATOM     20  C   UNL     1      33.966  -2.949 -27.063  0.00  0.00    +0.000 C 
ENDBRANCH   6  11
BRANCH   4  21
ATOM     21  C   UNL     1      32.808 -12.128 -22.139  0.00  0.00    +0.001 C 
ATOM     22  C   UNL     1      33.368 -11.919 -23.400  0.00  0.00    -0.000 C 
ATOM     23  C   UNL     1      32.663 -13.426 -21.649  0.00  0.00    -0.000 C 
ATOM     24  C   UNL     1      33.636 -14.304 -23.678  0.00  0.00    -0.011 C 
ATOM     25  C   UNL     1      33.781 -13.007 -24.169  0.00  0.00    -0.004 C 
ATOM     26  C   UNL     1      33.076 -14.514 -22.417  0.00  0.00    -0.004 C 
BRANCH  24  27
ATOM     27  C   UNL     1      34.080 -15.467 -24.500  0.00  0.00    +0.136 C 
BRANCH  27  29
ATOM     28  O   UNL     1      34.670 -17.656 -23.611  0.00  0.00    -0.250 OA
ATOM     29  C   UNL     1      34.922 -16.465 -23.730  0.00  0.00    +0.318 C 
BRANCH  29  30
ATOM     30  O   UNL     1      36.016 -15.881 -23.172  0.00  0.00    -0.480 OA
ATOM     31  H   UNL     1      36.821 -15.841 -23.651  0.00  0.00    +0.295 HD
ENDBRANCH  29  30
ENDBRANCH  27  29
ENDBRANCH  24  27
ENDBRANCH   4  21
TORSDOF 5
ENDMDL
MODEL 9
REMARK VINA RESULT:     -10.9      6.757     10.548
REMARK  Name = 11952989
REMARK  5 active torsions:
REMARK  status: ('A' for Active; 'I' for Inactive)
REMARK    1  A    between atoms: C_4  and  C_21
REMARK    2  A    between atoms: C_6  and  C_11
REMARK    3  A    between atoms: C_24  and  C_27
REMARK    4  A    between atoms: C_27  and  C_29
REMARK    5  A    between atoms: C_29  and  O_30
REMARK                            x       y       z     vdW  Elec       q    Type
REMARK                         _______ _______ _______ _____ _____    ______ ____
ROOT
ATOM      1  N   UNL     1      36.248 -24.274 -14.179  0.00  0.00    -0.297 N 
ATOM      2  N   UNL     1      37.664 -23.130 -15.756  0.00  0.00    -0.229 NA
ATOM      3  C   UNL     1      35.213 -23.097 -15.768  0.00  0.00    +0.033 C 
ATOM      4  C   UNL     1      34.235 -23.701 -14.932  0.00  0.00    +0.017 C 
ATOM      5  C   UNL     1      36.457 -23.474 -15.271  0.00  0.00    +0.132 C 
ATOM      6  C   UNL     1      36.417 -21.880 -17.442  0.00  0.00    +0.019 C 
ATOM      7  C   UNL     1      35.193 -22.266 -16.900  0.00  0.00    +0.004 C 
ATOM      8  C   UNL     1      34.902 -24.418 -13.963  0.00  0.00    +0.063 C 
ATOM      9  C   UNL     1      37.586 -22.330 -16.844  0.00  0.00    +0.100 C 
ATOM     10  H   UNL     1      36.958 -24.683 -13.630  0.00  0.00    +0.154 HD
ENDROOT
BRANCH   6  11
ATOM     11  C   UNL     1      36.467 -21.025 -18.608  0.00  0.00    +0.001 C 
ATOM     12  C   UNL     1      35.458 -20.229 -20.674  0.00  0.00    +0.000 C 
ATOM     13  C   UNL     1      35.426 -21.052 -19.536  0.00  0.00    +0.000 C 
ATOM     14  C   UNL     1      36.563 -19.366 -20.872  0.00  0.00    +0.000 C 
ATOM     15  C   UNL     1      37.552 -20.176 -18.802  0.00  0.00    +0.000 C 
ATOM     16  C   UNL     1      37.601 -19.351 -19.926  0.00  0.00    +0.000 C 
ATOM     17  C   UNL     1      34.420 -20.244 -21.620  0.00  0.00    +0.000 C 
ATOM     18  C   UNL     1      36.595 -18.543 -22.009  0.00  0.00    +0.000 C 
ATOM     19  C   UNL     1      34.470 -19.419 -22.744  0.00  0.00    +0.000 C 
ATOM     20  C   UNL     1      35.555 -18.570 -22.939  0.00  0.00    +0.000 C 
ENDBRANCH   6  11
BRANCH   4  21
ATOM     21  C   UNL     1      32.803 -23.640 -14.996  0.00  0.00    +0.001 C 
ATOM     22  C   UNL     1      32.035 -24.136 -13.942  0.00  0.00    -0.000 C 
ATOM     23  C   UNL     1      32.176 -23.086 -16.113  0.00  0.00    -0.000 C 
ATOM     24  C   UNL     1      30.018 -23.522 -15.121  0.00  0.00    -0.011 C 
ATOM     25  C   UNL     1      30.644 -24.077 -14.005  0.00  0.00    -0.004 C 
ATOM     26  C   UNL     1      30.785 -23.027 -16.176  0.00  0.00    -0.004 C 
BRANCH  24  27
ATOM     27  C   UNL     1      28.529 -23.457 -15.186  0.00  0.00    +0.136 C 
BRANCH  27  29
ATOM     28  O   UNL     1      27.801 -21.806 -16.821  0.00  0.00    -0.250 OA
ATOM     29  C   UNL     1      28.002 -22.976 -16.523  0.00  0.00    +0.318 C 
BRANCH  29  30
ATOM     30  O   UNL     1      27.772 -24.007 -17.378  0.00  0.00    -0.480 OA
ATOM     31  H   UNL     1      26.943 -24.446 -17.370  0.00  0.00    +0.295 HD
ENDBRANCH  29  30
ENDBRANCH  27  29
ENDBRANCH  24  27
ENDBRANCH   4  21
TORSDOF 5
ENDMDL
