MODEL 1
REMARK VINA RESULT:     -11.7      0.000      0.000
REMARK  Name = 10050566
REMARK  9 active torsions:
REMARK  status: ('A' for Active; 'I' for Inactive)
REMARK    1  A    between atoms: C_2  and  N_11
REMARK    2  A    between atoms: C_3  and  O_22
REMARK    3  A    between atoms: C_12  and  C_14
REMARK    4  A    between atoms: C_19  and  O_20
REMARK    5  A    between atoms: O_22  and  C_24
REMARK    6  A    between atoms: C_24  and  C_25
REMARK    7  A    between atoms: C_30  and  C_32
REMARK    8  A    between atoms: C_32  and  C_33
REMARK    9  A    between atoms: C_34  and  O_39
REMARK                            x       y       z     vdW  Elec       q    Type
REMARK                         _______ _______ _______ _____ _____    ______ ____
ROOT
ATOM      1  N   UNL     1      32.579 -22.057 -14.313  0.00  0.00    +0.385 N 
ATOM      2  C   UNL     1      34.725 -22.945 -15.242  0.00  0.00    +0.091 C 
ATOM      3  C   UNL     1      34.078 -23.519 -16.515  0.00  0.00    +0.185 C 
ATOM      4  C   UNL     1      32.823 -24.376 -16.315  0.00  0.00    +0.043 C 
ATOM      5  C   UNL     1      33.813 -22.786 -14.022  0.00  0.00    -0.058 C 
ATOM      6  C   UNL     1      31.540 -23.601 -16.005  0.00  0.00    -0.020 C 
ATOM      7  C   UNL     1      31.477 -22.970 -14.619  0.00  0.00    -0.082 C 
ATOM      8  H   UNL     1      32.736 -21.446 -15.115  0.00  0.00    -0.084 HD
ATOM      9  H   UNL     1      32.325 -21.513 -13.488  0.00  0.00    -0.084 HD
ENDROOT
BRANCH   2  11
ATOM     10  O   UNL     1      37.482 -22.154 -15.328  0.00  0.00    -0.270 OA
ATOM     11  N   UNL     1      35.869 -23.754 -14.868  0.00  0.00    -0.301 N 
ATOM     12  C   UNL     1      37.163 -23.277 -14.946  0.00  0.00    +0.246 C 
ATOM     13  H   UNL     1      35.718 -24.673 -14.548  0.00  0.00    +0.150 HD
BRANCH  12  14
ATOM     14  C   UNL     1      38.226 -24.239 -14.551  0.00  0.00    +0.054 C 
ATOM     15  C   UNL     1      39.378 -24.303 -15.307  0.00  0.00    +0.008 C 
ATOM     16  C   UNL     1      38.026 -25.036 -13.444  0.00  0.00    +0.008 C 
ATOM     17  C   UNL     1      40.376 -25.205 -14.938  0.00  0.00    +0.037 C 
ATOM     18  C   UNL     1      39.024 -25.938 -13.074  0.00  0.00    +0.037 C 
ATOM     19  C   UNL     1      40.199 -26.022 -13.821  0.00  0.00    +0.134 C 
BRANCH  19  20
ATOM     20  O   UNL     1      41.173 -26.901 -13.459  0.00  0.00    -0.506 OA
ATOM     21  H   UNL     1      42.070 -26.629 -13.453  0.00  0.00    +0.292 HD
ENDBRANCH  19  20
ENDBRANCH  12  14
ENDBRANCH   2  11
BRANCH   3  22
ATOM     22  O   UNL     1      33.800 -22.453 -17.428  0.00  0.00    -0.448 OA
BRANCH  22  24
ATOM     23  O   UNL     1      33.690 -23.825 -19.272  0.00  0.00    -0.245 OA
ATOM     24  C   UNL     1      33.944 -22.754 -18.742  0.00  0.00    +0.341 C 
BRANCH  24  25
ATOM     25  C   UNL     1      34.471 -21.583 -19.486  0.00  0.00    +0.076 C 
ATOM     26  C   UNL     1      33.581 -20.751 -20.137  0.00  0.00    +0.007 C 
ATOM     27  C   UNL     1      35.832 -21.361 -19.505  0.00  0.00    +0.007 C 
ATOM     28  C   UNL     1      34.076 -19.651 -20.837  0.00  0.00    +0.003 C 
ATOM     29  C   UNL     1      36.327 -20.261 -20.204  0.00  0.00    +0.003 C 
ATOM     30  C   UNL     1      35.449 -19.405 -20.871  0.00  0.00    +0.039 C 
BRANCH  30  32
ATOM     31  O   UNL     1      37.099 -18.293 -22.099  0.00  0.00    -0.286 OA
ATOM     32  C   UNL     1      35.965 -18.258 -21.600  0.00  0.00    +0.198 C 
BRANCH  32  33
ATOM     33  C   UNL     1      35.173 -17.003 -21.782  0.00  0.00    +0.073 C 
ATOM     34  C   UNL     1      34.932 -16.531 -23.052  0.00  0.00    +0.137 C 
ATOM     35  C   UNL     1      34.713 -16.367 -20.652  0.00  0.00    +0.006 C 
ATOM     36  C   UNL     1      34.192 -15.359 -23.199  0.00  0.00    +0.037 C 
ATOM     37  C   UNL     1      33.972 -15.195 -20.799  0.00  0.00    +0.000 C 
ATOM     38  C   UNL     1      33.712 -14.690 -22.073  0.00  0.00    +0.003 C 
BRANCH  34  39
ATOM     39  O   UNL     1      35.393 -17.169 -24.164  0.00  0.00    -0.505 OA
ATOM     40  H   UNL     1      35.117 -16.888 -25.015  0.00  0.00    +0.292 HD
ENDBRANCH  34  39
ENDBRANCH  32  33
ENDBRANCH  30  32
ENDBRANCH  24  25
ENDBRANCH  22  24
ENDBRANCH   3  22
TORSDOF 9
ENDMDL
MODEL 2
REMARK VINA RESULT:     -10.6      2.105      5.720
REMARK  Name = 10050566
REMARK  9 active torsions:
REMARK  status: ('A' for Active; 'I' for Inactive)
REMARK    1  A    between atoms: C_2  and  N_11
REMARK    2  A    between atoms: C_3  and  O_22
REMARK    3  A    between atoms: C_12  and  C_14
REMARK    4  A    between atoms: C_19  and  O_20
REMARK    5  A    between atoms: O_22  and  C_24
REMARK    6  A    between atoms: C_24  and  C_25
REMARK    7  A    between atoms: C_30  and  C_32
REMARK    8  A    between atoms: C_32  and  C_33
REMARK    9  A    between atoms: C_34  and  O_39
REMARK                            x       y       z     vdW  Elec       q    Type
REMARK                         _______ _______ _______ _____ _____    ______ ____
ROOT
ATOM      1  N   UNL     1      35.861 -25.147 -15.159  0.00  0.00    +0.385 N 
ATOM      2  C   UNL     1      33.815 -24.019 -16.052  0.00  0.00    +0.091 C 
ATOM      3  C   UNL     1      34.519 -22.674 -16.307  0.00  0.00    +0.185 C 
ATOM      4  C   UNL     1      35.359 -22.115 -15.154  0.00  0.00    +0.043 C 
ATOM      5  C   UNL     1      34.428 -24.920 -14.976  0.00  0.00    -0.058 C 
ATOM      6  C   UNL     1      36.715 -22.791 -14.940  0.00  0.00    -0.020 C 
ATOM      7  C   UNL     1      36.657 -24.205 -14.372  0.00  0.00    -0.082 C 
ATOM      8  H   UNL     1      36.092 -25.032 -16.146  0.00  0.00    -0.084 HD
ATOM      9  H   UNL     1      36.079 -26.093 -14.843  0.00  0.00    -0.084 HD
ENDROOT
BRANCH   2  11
ATOM     10  O   UNL     1      31.963 -22.394 -17.524  0.00  0.00    -0.270 OA
ATOM     11  N   UNL     1      32.420 -23.786 -15.727  0.00  0.00    -0.301 N 
ATOM     12  C   UNL     1      31.609 -22.983 -16.506  0.00  0.00    +0.246 C 
ATOM     13  H   UNL     1      32.039 -24.215 -14.927  0.00  0.00    +0.150 HD
BRANCH  12  14
ATOM     14  C   UNL     1      30.213 -22.824 -16.023  0.00  0.00    +0.054 C 
ATOM     15  C   UNL     1      30.000 -22.421 -14.721  0.00  0.00    +0.008 C 
ATOM     16  C   UNL     1      29.173 -23.084 -16.892  0.00  0.00    +0.008 C 
ATOM     17  C   UNL     1      28.690 -22.271 -14.268  0.00  0.00    +0.037 C 
ATOM     18  C   UNL     1      27.863 -22.934 -16.439  0.00  0.00    +0.037 C 
ATOM     19  C   UNL     1      27.621 -22.527 -15.126  0.00  0.00    +0.134 C 
BRANCH  19  20
ATOM     20  O   UNL     1      26.342 -22.379 -14.685  0.00  0.00    -0.506 OA
ATOM     21  H   UNL     1      25.978 -23.004 -14.090  0.00  0.00    +0.292 HD
ENDBRANCH  19  20
ENDBRANCH  12  14
ENDBRANCH   2  11
BRANCH   3  22
ATOM     22  O   UNL     1      35.319 -22.775 -17.490  0.00  0.00    -0.448 OA
BRANCH  22  24
ATOM     23  O   UNL     1      33.828 -23.609 -19.032  0.00  0.00    -0.245 OA
ATOM     24  C   UNL     1      34.635 -22.771 -18.661  0.00  0.00    +0.341 C 
BRANCH  24  25
ATOM     25  C   UNL     1      35.003 -21.581 -19.468  0.00  0.00    +0.076 C 
ATOM     26  C   UNL     1      34.012 -20.911 -20.158  0.00  0.00    +0.007 C 
ATOM     27  C   UNL     1      36.323 -21.182 -19.506  0.00  0.00    +0.007 C 
ATOM     28  C   UNL     1      34.358 -19.793 -20.918  0.00  0.00    +0.003 C 
ATOM     29  C   UNL     1      36.668 -20.064 -20.265  0.00  0.00    +0.003 C 
ATOM     30  C   UNL     1      35.685 -19.369 -20.972  0.00  0.00    +0.039 C 
BRANCH  30  32
ATOM     31  O   UNL     1      37.091 -18.201 -22.430  0.00  0.00    -0.286 OA
ATOM     32  C   UNL     1      36.045 -18.205 -21.764  0.00  0.00    +0.198 C 
BRANCH  32  33
ATOM     33  C   UNL     1      35.194 -16.977 -21.815  0.00  0.00    +0.073 C 
ATOM     34  C   UNL     1      34.864 -16.431 -23.034  0.00  0.00    +0.137 C 
ATOM     35  C   UNL     1      34.771 -16.441 -20.620  0.00  0.00    +0.006 C 
ATOM     36  C   UNL     1      34.069 -15.286 -23.059  0.00  0.00    +0.037 C 
ATOM     37  C   UNL     1      33.975 -15.296 -20.645  0.00  0.00    +0.000 C 
ATOM     38  C   UNL     1      33.624 -14.718 -21.865  0.00  0.00    +0.003 C 
BRANCH  34  39
ATOM     39  O   UNL     1      35.289 -16.970 -24.211  0.00  0.00    -0.505 OA
ATOM     40  H   UNL     1      36.197 -17.165 -24.337  0.00  0.00    +0.292 HD
ENDBRANCH  34  39
ENDBRANCH  32  33
ENDBRANCH  30  32
ENDBRANCH  24  25
ENDBRANCH  22  24
ENDBRANCH   3  22
TORSDOF 9
ENDMDL
MODEL 3
REMARK VINA RESULT:     -10.2      6.042     13.404
REMARK  Name = 10050566
REMARK  9 active torsions:
REMARK  status: ('A' for Active; 'I' for Inactive)
REMARK    1  A    between atoms: C_2  and  N_11
REMARK    2  A    between atoms: C_3  and  O_22
REMARK    3  A    between atoms: C_12  and  C_14
REMARK    4  A    between atoms: C_19  and  O_20
REMARK    5  A    between atoms: O_22  and  C_24
REMARK    6  A    between atoms: C_24  and  C_25
REMARK    7  A    between atoms: C_30  and  C_32
REMARK    8  A    between atoms: C_32  and  C_33
REMARK    9  A    between atoms: C_34  and  O_39
REMARK                            x       y       z     vdW  Elec       q    Type
REMARK                         _______ _______ _______ _____ _____    ______ ____
ROOT
ATOM      1  N   UNL     1      34.615 -12.498 -26.116  0.00  0.00    +0.385 N 
ATOM      2  C   UNL     1      34.121 -11.367 -23.940  0.00  0.00    +0.091 C 
ATOM      3  C   UNL     1      33.568 -12.636 -23.267  0.00  0.00    +0.185 C 
ATOM      4  C   UNL     1      32.527 -13.431 -24.062  0.00  0.00    +0.043 C 
ATOM      5  C   UNL     1      34.047 -11.316 -25.470  0.00  0.00    -0.058 C 
ATOM      6  C   UNL     1      33.083 -14.276 -25.211  0.00  0.00    -0.020 C 
ATOM      7  C   UNL     1      33.583 -13.491 -26.418  0.00  0.00    -0.082 C 
ATOM      8  H   UNL     1      35.306 -12.918 -25.494  0.00  0.00    -0.084 HD
ATOM      9  H   UNL     1      35.046 -12.208 -26.994  0.00  0.00    -0.084 HD
ENDROOT
BRANCH   2  11
ATOM     10  O   UNL     1      35.274  -8.769 -23.549  0.00  0.00    -0.270 OA
ATOM     11  N   UNL     1      33.454 -10.197 -23.401  0.00  0.00    -0.301 N 
ATOM     12  C   UNL     1      34.102  -8.985 -23.253  0.00  0.00    +0.246 C 
ATOM     13  H   UNL     1      32.510 -10.268 -23.132  0.00  0.00    +0.150 HD
BRANCH  12  14
ATOM     14  C   UNL     1      33.289  -7.892 -22.661  0.00  0.00    +0.054 C 
ATOM     15  C   UNL     1      33.155  -6.710 -23.359  0.00  0.00    +0.008 C 
ATOM     16  C   UNL     1      32.694  -8.092 -21.433  0.00  0.00    +0.008 C 
ATOM     17  C   UNL     1      32.392  -5.682 -22.805  0.00  0.00    +0.037 C 
ATOM     18  C   UNL     1      31.930  -7.066 -20.878  0.00  0.00    +0.037 C 
ATOM     19  C   UNL     1      31.779  -5.860 -21.565  0.00  0.00    +0.134 C 
BRANCH  19  20
ATOM     20  O   UNL     1      31.032  -4.860 -21.024  0.00  0.00    -0.506 OA
ATOM     21  H   UNL     1      31.412  -4.014 -20.888  0.00  0.00    +0.292 HD
ENDBRANCH  19  20
ENDBRANCH  12  14
ENDBRANCH   2  11
BRANCH   3  22
ATOM     22  O   UNL     1      34.656 -13.488 -22.896  0.00  0.00    -0.448 OA
BRANCH  22  24
ATOM     23  O   UNL     1      34.456 -13.383 -20.606  0.00  0.00    -0.245 OA
ATOM     24  C   UNL     1      34.592 -14.009 -21.645  0.00  0.00    +0.341 C 
BRANCH  24  25
ATOM     25  C   UNL     1      34.714 -15.487 -21.696  0.00  0.00    +0.076 C 
ATOM     26  C   UNL     1      34.555 -16.209 -20.530  0.00  0.00    +0.007 C 
ATOM     27  C   UNL     1      34.983 -16.094 -22.905  0.00  0.00    +0.007 C 
ATOM     28  C   UNL     1      34.671 -17.599 -20.577  0.00  0.00    +0.003 C 
ATOM     29  C   UNL     1      35.098 -17.483 -22.953  0.00  0.00    +0.003 C 
ATOM     30  C   UNL     1      34.942 -18.236 -21.788  0.00  0.00    +0.039 C 
BRANCH  30  32
ATOM     31  O   UNL     1      35.188 -20.265 -22.925  0.00  0.00    -0.286 OA
ATOM     32  C   UNL     1      35.063 -19.684 -21.837  0.00  0.00    +0.198 C 
BRANCH  32  33
ATOM     33  C   UNL     1      35.042 -20.531 -20.606  0.00  0.00    +0.073 C 
ATOM     34  C   UNL     1      33.836 -20.933 -20.079  0.00  0.00    +0.137 C 
ATOM     35  C   UNL     1      36.251 -20.878 -20.046  0.00  0.00    +0.006 C 
ATOM     36  C   UNL     1      33.839 -21.723 -18.930  0.00  0.00    +0.037 C 
ATOM     37  C   UNL     1      36.254 -21.669 -18.898  0.00  0.00    +0.000 C 
ATOM     38  C   UNL     1      35.048 -22.091 -18.339  0.00  0.00    +0.003 C 
BRANCH  34  39
ATOM     39  O   UNL     1      32.645 -20.583 -20.641  0.00  0.00    -0.505 OA
ATOM     40  H   UNL     1      32.595 -19.839 -21.208  0.00  0.00    +0.292 HD
ENDBRANCH  34  39
ENDBRANCH  32  33
ENDBRANCH  30  32
ENDBRANCH  24  25
ENDBRANCH  22  24
ENDBRANCH   3  22
TORSDOF 9
ENDMDL
MODEL 4
REMARK VINA RESULT:     -10.1      5.954     13.331
REMARK  Name = 10050566
REMARK  9 active torsions:
REMARK  status: ('A' for Active; 'I' for Inactive)
REMARK    1  A    between atoms: C_2  and  N_11
REMARK    2  A    between atoms: C_3  and  O_22
REMARK    3  A    between atoms: C_12  and  C_14
REMARK    4  A    between atoms: C_19  and  O_20
REMARK    5  A    between atoms: O_22  and  C_24
REMARK    6  A    between atoms: C_24  and  C_25
REMARK    7  A    between atoms: C_30  and  C_32
REMARK    8  A    between atoms: C_32  and  C_33
REMARK    9  A    between atoms: C_34  and  O_39
REMARK                            x       y       z     vdW  Elec       q    Type
REMARK                         _______ _______ _______ _____ _____    ______ ____
ROOT
ATOM      1  N   UNL     1      30.360 -11.527 -20.762  0.00  0.00    +0.385 N 
ATOM      2  C   UNL     1      31.983 -11.026 -22.598  0.00  0.00    +0.091 C 
ATOM      3  C   UNL     1      33.039 -12.030 -22.104  0.00  0.00    +0.185 C 
ATOM      4  C   UNL     1      33.399 -11.965 -20.615  0.00  0.00    +0.043 C 
ATOM      5  C   UNL     1      31.012 -10.479 -21.546  0.00  0.00    -0.058 C 
ATOM      6  C   UNL     1      32.367 -12.573 -19.663  0.00  0.00    -0.020 C 
ATOM      7  C   UNL     1      31.073 -11.781 -19.509  0.00  0.00    -0.082 C 
ATOM      8  H   UNL     1      30.337 -12.387 -21.310  0.00  0.00    -0.084 HD
ATOM      9  H   UNL     1      29.415 -11.217 -20.535  0.00  0.00    -0.084 HD
ENDROOT
BRANCH   2  11
ATOM     10  O   UNL     1      32.698  -8.519 -21.399  0.00  0.00    -0.270 OA
ATOM     11  N   UNL     1      32.638  -9.910 -23.253  0.00  0.00    -0.301 N 
ATOM     12  C   UNL     1      32.941  -8.740 -22.582  0.00  0.00    +0.246 C 
ATOM     13  H   UNL     1      32.875  -9.988 -24.205  0.00  0.00    +0.150 HD
BRANCH  12  14
ATOM     14  C   UNL     1      33.588  -7.681 -23.401  0.00  0.00    +0.054 C 
ATOM     15  C   UNL     1      34.957  -7.714 -23.570  0.00  0.00    +0.008 C 
ATOM     16  C   UNL     1      32.800  -6.700 -23.965  0.00  0.00    +0.008 C 
ATOM     17  C   UNL     1      35.565  -6.721 -24.338  0.00  0.00    +0.037 C 
ATOM     18  C   UNL     1      33.408  -5.707 -24.733  0.00  0.00    +0.037 C 
ATOM     19  C   UNL     1      34.791  -5.718 -24.920  0.00  0.00    +0.134 C 
BRANCH  19  20
ATOM     20  O   UNL     1      35.383  -4.750 -25.671  0.00  0.00    -0.506 OA
ATOM     21  H   UNL     1      34.949  -3.930 -25.804  0.00  0.00    +0.292 HD
ENDBRANCH  19  20
ENDBRANCH  12  14
ENDBRANCH   2  11
BRANCH   3  22
ATOM     22  O   UNL     1      32.630 -13.357 -22.450  0.00  0.00    -0.448 OA
BRANCH  22  24
ATOM     23  O   UNL     1      33.451 -13.573 -24.589  0.00  0.00    -0.245 OA
ATOM     24  C   UNL     1      33.348 -13.954 -23.433  0.00  0.00    +0.341 C 
BRANCH  24  25
ATOM     25  C   UNL     1      34.018 -15.173 -22.915  0.00  0.00    +0.076 C 
ATOM     26  C   UNL     1      34.471 -16.118 -23.814  0.00  0.00    +0.007 C 
ATOM     27  C   UNL     1      34.164 -15.327 -21.552  0.00  0.00    +0.007 C 
ATOM     28  C   UNL     1      35.099 -17.264 -23.327  0.00  0.00    +0.003 C 
ATOM     29  C   UNL     1      34.792 -16.473 -21.065  0.00  0.00    +0.003 C 
ATOM     30  C   UNL     1      35.260 -17.442 -21.953  0.00  0.00    +0.039 C 
BRANCH  30  32
ATOM     31  O   UNL     1      37.128 -18.811 -21.628  0.00  0.00    -0.286 OA
ATOM     32  C   UNL     1      35.914 -18.638 -21.446  0.00  0.00    +0.198 C 
BRANCH  32  33
ATOM     33  C   UNL     1      35.174 -19.698 -20.697  0.00  0.00    +0.073 C 
ATOM     34  C   UNL     1      35.866 -20.553 -19.870  0.00  0.00    +0.137 C 
ATOM     35  C   UNL     1      33.810 -19.771 -20.868  0.00  0.00    +0.006 C 
ATOM     36  C   UNL     1      35.157 -21.535 -19.180  0.00  0.00    +0.037 C 
ATOM     37  C   UNL     1      33.100 -20.752 -20.177  0.00  0.00    +0.000 C 
ATOM     38  C   UNL     1      33.774 -21.635 -19.334  0.00  0.00    +0.003 C 
BRANCH  34  39
ATOM     39  O   UNL     1      37.217 -20.472 -19.707  0.00  0.00    -0.505 OA
ATOM     40  H   UNL     1      37.611 -19.659 -19.457  0.00  0.00    +0.292 HD
ENDBRANCH  34  39
ENDBRANCH  32  33
ENDBRANCH  30  32
ENDBRANCH  24  25
ENDBRANCH  22  24
ENDBRANCH   3  22
TORSDOF 9
ENDMDL
MODEL 5
REMARK VINA RESULT:      -9.9      1.252      2.078
REMARK  Name = 10050566
REMARK  9 active torsions:
REMARK  status: ('A' for Active; 'I' for Inactive)
REMARK    1  A    between atoms: C_2  and  N_11
REMARK    2  A    between atoms: C_3  and  O_22
REMARK    3  A    between atoms: C_12  and  C_14
REMARK    4  A    between atoms: C_19  and  O_20
REMARK    5  A    between atoms: O_22  and  C_24
REMARK    6  A    between atoms: C_24  and  C_25
REMARK    7  A    between atoms: C_30  and  C_32
REMARK    8  A    between atoms: C_32  and  C_33
REMARK    9  A    between atoms: C_34  and  O_39
REMARK                            x       y       z     vdW  Elec       q    Type
REMARK                         _______ _______ _______ _____ _____    ______ ____
ROOT
ATOM      1  N   UNL     1      32.343 -22.812 -13.127  0.00  0.00    +0.385 N 
ATOM      2  C   UNL     1      34.500 -23.316 -14.288  0.00  0.00    +0.091 C 
ATOM      3  C   UNL     1      33.829 -23.790 -15.590  0.00  0.00    +0.185 C 
ATOM      4  C   UNL     1      32.691 -24.806 -15.440  0.00  0.00    +0.043 C 
ATOM      5  C   UNL     1      33.665 -23.425 -13.008  0.00  0.00    -0.058 C 
ATOM      6  C   UNL     1      31.358 -24.232 -14.954  0.00  0.00    -0.020 C 
ATOM      7  C   UNL     1      31.326 -23.798 -13.493  0.00  0.00    -0.082 C 
ATOM      8  H   UNL     1      32.376 -22.087 -13.845  0.00  0.00    -0.084 HD
ATOM      9  H   UNL     1      32.092 -22.414 -12.221  0.00  0.00    -0.084 HD
ENDROOT
BRANCH   2  11
ATOM     10  O   UNL     1      37.040 -22.673 -15.460  0.00  0.00    -0.270 OA
ATOM     11  N   UNL     1      35.748 -24.030 -14.094  0.00  0.00    -0.301 N 
ATOM     12  C   UNL     1      36.922 -23.637 -14.707  0.00  0.00    +0.246 C 
ATOM     13  H   UNL     1      35.759 -24.820 -13.506  0.00  0.00    +0.150 HD
BRANCH  12  14
ATOM     14  C   UNL     1      38.108 -24.488 -14.427  0.00  0.00    +0.054 C 
ATOM     15  C   UNL     1      38.062 -25.363 -13.361  0.00  0.00    +0.008 C 
ATOM     16  C   UNL     1      39.216 -24.377 -15.240  0.00  0.00    +0.008 C 
ATOM     17  C   UNL     1      39.173 -26.163 -13.098  0.00  0.00    +0.037 C 
ATOM     18  C   UNL     1      40.328 -25.177 -14.978  0.00  0.00    +0.037 C 
ATOM     19  C   UNL     1      40.306 -26.070 -13.906  0.00  0.00    +0.134 C 
BRANCH  19  20
ATOM     20  O   UNL     1      41.391 -26.852 -13.651  0.00  0.00    -0.506 OA
ATOM     21  H   UNL     1      41.280 -27.771 -13.503  0.00  0.00    +0.292 HD
ENDBRANCH  19  20
ENDBRANCH  12  14
ENDBRANCH   2  11
BRANCH   3  22
ATOM     22  O   UNL     1      33.375 -22.653 -16.330  0.00  0.00    -0.448 OA
BRANCH  22  24
ATOM     23  O   UNL     1      32.271 -23.682 -18.067  0.00  0.00    -0.245 OA
ATOM     24  C   UNL     1      33.085 -22.881 -17.635  0.00  0.00    +0.341 C 
BRANCH  24  25
ATOM     25  C   UNL     1      33.910 -22.008 -18.507  0.00  0.00    +0.076 C 
ATOM     26  C   UNL     1      35.286 -22.088 -18.420  0.00  0.00    +0.007 C 
ATOM     27  C   UNL     1      33.278 -21.144 -19.377  0.00  0.00    +0.007 C 
ATOM     28  C   UNL     1      36.061 -21.266 -19.239  0.00  0.00    +0.003 C 
ATOM     29  C   UNL     1      34.053 -20.323 -20.195  0.00  0.00    +0.003 C 
ATOM     30  C   UNL     1      35.446 -20.384 -20.126  0.00  0.00    +0.039 C 
BRANCH  30  32
ATOM     31  O   UNL     1      37.482 -19.465 -20.819  0.00  0.00    -0.286 OA
ATOM     32  C   UNL     1      36.254 -19.528 -20.979  0.00  0.00    +0.198 C 
BRANCH  32  33
ATOM     33  C   UNL     1      35.661 -18.696 -22.070  0.00  0.00    +0.073 C 
ATOM     34  C   UNL     1      35.303 -17.393 -21.811  0.00  0.00    +0.137 C 
ATOM     35  C   UNL     1      35.498 -19.280 -23.306  0.00  0.00    +0.006 C 
ATOM     36  C   UNL     1      34.752 -16.633 -22.842  0.00  0.00    +0.037 C 
ATOM     37  C   UNL     1      34.948 -18.520 -24.337  0.00  0.00    +0.000 C 
ATOM     38  C   UNL     1      34.574 -17.197 -24.105  0.00  0.00    +0.003 C 
BRANCH  34  39
ATOM     39  O   UNL     1      35.469 -16.824 -20.583  0.00  0.00    -0.505 OA
ATOM     40  H   UNL     1      34.800 -16.910 -19.932  0.00  0.00    +0.292 HD
ENDBRANCH  34  39
ENDBRANCH  32  33
ENDBRANCH  30  32
ENDBRANCH  24  25
ENDBRANCH  22  24
ENDBRANCH   3  22
TORSDOF 9
ENDMDL
MODEL 6
REMARK VINA RESULT:      -9.8      6.754     11.550
REMARK  Name = 10050566
REMARK  9 active torsions:
REMARK  status: ('A' for Active; 'I' for Inactive)
REMARK    1  A    between atoms: C_2  and  N_11
REMARK    2  A    between atoms: C_3  and  O_22
REMARK    3  A    between atoms: C_12  and  C_14
REMARK    4  A    between atoms: C_19  and  O_20
REMARK    5  A    between atoms: O_22  and  C_24
REMARK    6  A    between atoms: C_24  and  C_25
REMARK    7  A    between atoms: C_30  and  C_32
REMARK    8  A    between atoms: C_32  and  C_33
REMARK    9  A    between atoms: C_34  and  O_39
REMARK                            x       y       z     vdW  Elec       q    Type
REMARK                         _______ _______ _______ _____ _____    ______ ____
ROOT
ATOM      1  N   UNL     1      33.296 -13.796 -25.190  0.00  0.00    +0.385 N 
ATOM      2  C   UNL     1      33.400 -14.881 -22.938  0.00  0.00    +0.091 C 
ATOM      3  C   UNL     1      33.525 -13.553 -22.170  0.00  0.00    +0.185 C 
ATOM      4  C   UNL     1      34.578 -12.564 -22.683  0.00  0.00    +0.043 C 
ATOM      5  C   UNL     1      33.877 -14.877 -24.394  0.00  0.00    -0.058 C 
ATOM      6  C   UNL     1      34.198 -11.800 -23.953  0.00  0.00    -0.020 C 
ATOM      7  C   UNL     1      34.177 -12.629 -25.233  0.00  0.00    -0.082 C 
ATOM      8  H   UNL     1      32.404 -13.523 -24.777  0.00  0.00    -0.084 HD
ATOM      9  H   UNL     1      33.166 -14.134 -26.144  0.00  0.00    -0.084 HD
ENDROOT
BRANCH   2  11
ATOM     10  O   UNL     1      34.614 -17.218 -24.078  0.00  0.00    -0.270 OA
ATOM     11  N   UNL     1      34.101 -15.929 -22.221  0.00  0.00    -0.301 N 
ATOM     12  C   UNL     1      34.653 -17.019 -22.867  0.00  0.00    +0.246 C 
ATOM     13  H   UNL     1      34.186 -15.861 -21.242  0.00  0.00    +0.150 HD
BRANCH  12  14
ATOM     14  C   UNL     1      35.314 -18.018 -21.987  0.00  0.00    +0.054 C 
ATOM     15  C   UNL     1      34.562 -19.055 -21.476  0.00  0.00    +0.008 C 
ATOM     16  C   UNL     1      36.657 -17.876 -21.709  0.00  0.00    +0.008 C 
ATOM     17  C   UNL     1      35.181 -19.993 -20.651  0.00  0.00    +0.037 C 
ATOM     18  C   UNL     1      37.277 -18.814 -20.884  0.00  0.00    +0.037 C 
ATOM     19  C   UNL     1      36.539 -19.873 -20.355  0.00  0.00    +0.134 C 
BRANCH  19  20
ATOM     20  O   UNL     1      37.144 -20.789 -19.551  0.00  0.00    -0.506 OA
ATOM     21  H   UNL     1      37.427 -21.609 -19.907  0.00  0.00    +0.292 HD
ENDBRANCH  19  20
ENDBRANCH  12  14
ENDBRANCH   2  11
BRANCH   3  22
ATOM     22  O   UNL     1      32.245 -12.917 -22.112  0.00  0.00    -0.448 OA
BRANCH  22  24
ATOM     23  O   UNL     1      31.717 -12.863 -19.872  0.00  0.00    -0.245 OA
ATOM     24  C   UNL     1      31.945 -12.310 -20.937  0.00  0.00    +0.341 C 
BRANCH  24  25
ATOM     25  C   UNL     1      31.923 -10.836 -21.109  0.00  0.00    +0.076 C 
ATOM     26  C   UNL     1      31.577 -10.313 -22.339  0.00  0.00    +0.007 C 
ATOM     27  C   UNL     1      32.251 -10.033 -20.035  0.00  0.00    +0.007 C 
ATOM     28  C   UNL     1      31.558  -8.927 -22.501  0.00  0.00    +0.003 C 
ATOM     29  C   UNL     1      32.232  -8.649 -20.197  0.00  0.00    +0.003 C 
ATOM     30  C   UNL     1      31.885  -8.095 -21.430  0.00  0.00    +0.039 C 
BRANCH  30  32
ATOM     31  O   UNL     1      31.384  -5.925 -20.717  0.00  0.00    -0.286 OA
ATOM     32  C   UNL     1      31.865  -6.651 -21.599  0.00  0.00    +0.198 C 
BRANCH  32  33
ATOM     33  C   UNL     1      32.409  -5.980 -22.819  0.00  0.00    +0.073 C 
ATOM     34  C   UNL     1      31.695  -4.965 -23.411  0.00  0.00    +0.137 C 
ATOM     35  C   UNL     1      33.623  -6.415 -23.302  0.00  0.00    +0.006 C 
ATOM     36  C   UNL     1      32.220  -4.352 -24.548  0.00  0.00    +0.037 C 
ATOM     37  C   UNL     1      34.149  -5.802 -24.438  0.00  0.00    +0.000 C 
ATOM     38  C   UNL     1      33.448  -4.771 -25.062  0.00  0.00    +0.003 C 
BRANCH  34  39
ATOM     39  O   UNL     1      30.494  -4.542 -22.925  0.00  0.00    -0.505 OA
ATOM     40  H   UNL     1      30.016  -3.871 -23.373  0.00  0.00    +0.292 HD
ENDBRANCH  34  39
ENDBRANCH  32  33
ENDBRANCH  30  32
ENDBRANCH  24  25
ENDBRANCH  22  24
ENDBRANCH   3  22
TORSDOF 9
ENDMDL
MODEL 7
REMARK VINA RESULT:      -9.6      2.707      8.670
REMARK  Name = 10050566
REMARK  9 active torsions:
REMARK  status: ('A' for Active; 'I' for Inactive)
REMARK    1  A    between atoms: C_2  and  N_11
REMARK    2  A    between atoms: C_3  and  O_22
REMARK    3  A    between atoms: C_12  and  C_14
REMARK    4  A    between atoms: C_19  and  O_20
REMARK    5  A    between atoms: O_22  and  C_24
REMARK    6  A    between atoms: C_24  and  C_25
REMARK    7  A    between atoms: C_30  and  C_32
REMARK    8  A    between atoms: C_32  and  C_33
REMARK    9  A    between atoms: C_34  and  O_39
REMARK                            x       y       z     vdW  Elec       q    Type
REMARK                         _______ _______ _______ _____ _____    ______ ____
ROOT
ATOM      1  N   UNL     1      28.775 -23.338 -16.046  0.00  0.00    +0.385 N 
ATOM      2  C   UNL     1      31.190 -23.222 -16.688  0.00  0.00    +0.091 C 
ATOM      3  C   UNL     1      31.705 -23.337 -15.242  0.00  0.00    +0.185 C 
ATOM      4  C   UNL     1      31.058 -22.406 -14.211  0.00  0.00    +0.043 C 
ATOM      5  C   UNL     1      29.776 -22.660 -16.868  0.00  0.00    -0.058 C 
ATOM      6  C   UNL     1      29.656 -22.810 -13.750  0.00  0.00    -0.020 C 
ATOM      7  C   UNL     1      28.550 -22.631 -14.785  0.00  0.00    -0.082 C 
ATOM      8  H   UNL     1      29.098 -24.285 -15.843  0.00  0.00    -0.084 HD
ATOM      9  H   UNL     1      27.896 -23.358 -16.563  0.00  0.00    -0.084 HD
ENDROOT
BRANCH   2  11
ATOM     10  O   UNL     1      33.560 -24.156 -18.009  0.00  0.00    -0.270 OA
ATOM     11  N   UNL     1      32.113 -22.426 -17.474  0.00  0.00    -0.301 N 
ATOM     12  C   UNL     1      33.231 -22.975 -18.073  0.00  0.00    +0.246 C 
ATOM     13  H   UNL     1      31.937 -21.463 -17.585  0.00  0.00    +0.150 HD
BRANCH  12  14
ATOM     14  C   UNL     1      34.090 -22.021 -18.821  0.00  0.00    +0.054 C 
ATOM     15  C   UNL     1      33.492 -21.106 -19.663  0.00  0.00    +0.008 C 
ATOM     16  C   UNL     1      35.458 -22.080 -18.652  0.00  0.00    +0.008 C 
ATOM     17  C   UNL     1      34.298 -20.210 -20.365  0.00  0.00    +0.037 C 
ATOM     18  C   UNL     1      36.264 -21.185 -19.353  0.00  0.00    +0.037 C 
ATOM     19  C   UNL     1      35.683 -20.249 -20.211  0.00  0.00    +0.134 C 
BRANCH  19  20
ATOM     20  O   UNL     1      36.470 -19.374 -20.894  0.00  0.00    -0.506 OA
ATOM     21  H   UNL     1      37.383 -19.554 -21.005  0.00  0.00    +0.292 HD
ENDBRANCH  19  20
ENDBRANCH  12  14
ENDBRANCH   2  11
BRANCH   3  22
ATOM     22  O   UNL     1      31.599 -24.697 -14.808  0.00  0.00    -0.448 OA
BRANCH  22  24
ATOM     23  O   UNL     1      31.381 -25.379 -12.621  0.00  0.00    -0.245 OA
ATOM     24  C   UNL     1      32.043 -24.946 -13.551  0.00  0.00    +0.341 C 
BRANCH  24  25
ATOM     25  C   UNL     1      33.486 -24.615 -13.439  0.00  0.00    +0.076 C 
ATOM     26  C   UNL     1      33.993 -24.254 -12.207  0.00  0.00    +0.007 C 
ATOM     27  C   UNL     1      34.275 -24.678 -14.569  0.00  0.00    +0.007 C 
ATOM     28  C   UNL     1      35.349 -23.941 -12.102  0.00  0.00    +0.003 C 
ATOM     29  C   UNL     1      35.630 -24.366 -14.464  0.00  0.00    +0.003 C 
ATOM     30  C   UNL     1      36.168 -23.997 -13.230  0.00  0.00    +0.039 C 
BRANCH  30  32
ATOM     31  O   UNL     1      37.938 -22.614 -12.582  0.00  0.00    -0.286 OA
ATOM     32  C   UNL     1      37.580 -23.672 -13.121  0.00  0.00    +0.198 C 
BRANCH  32  33
ATOM     33  C   UNL     1      38.652 -24.573 -13.641  0.00  0.00    +0.073 C 
ATOM     34  C   UNL     1      39.193 -24.338 -14.885  0.00  0.00    +0.137 C 
ATOM     35  C   UNL     1      39.058 -25.616 -12.839  0.00  0.00    +0.006 C 
ATOM     36  C   UNL     1      40.192 -25.190 -15.351  0.00  0.00    +0.037 C 
ATOM     37  C   UNL     1      40.058 -26.469 -13.306  0.00  0.00    +0.000 C 
ATOM     38  C   UNL     1      40.625 -26.256 -14.562  0.00  0.00    +0.003 C 
BRANCH  34  39
ATOM     39  O   UNL     1      38.784 -23.302 -15.670  0.00  0.00    -0.505 OA
ATOM     40  H   UNL     1      39.397 -22.647 -15.940  0.00  0.00    +0.292 HD
ENDBRANCH  34  39
ENDBRANCH  32  33
ENDBRANCH  30  32
ENDBRANCH  24  25
ENDBRANCH  22  24
ENDBRANCH   3  22
TORSDOF 9
ENDMDL
MODEL 8
REMARK VINA RESULT:      -9.1      3.162     10.731
REMARK  Name = 10050566
REMARK  9 active torsions:
REMARK  status: ('A' for Active; 'I' for Inactive)
REMARK    1  A    between atoms: C_2  and  N_11
REMARK    2  A    between atoms: C_3  and  O_22
REMARK    3  A    between atoms: C_12  and  C_14
REMARK    4  A    between atoms: C_19  and  O_20
REMARK    5  A    between atoms: O_22  and  C_24
REMARK    6  A    between atoms: C_24  and  C_25
REMARK    7  A    between atoms: C_30  and  C_32
REMARK    8  A    between atoms: C_32  and  C_33
REMARK    9  A    between atoms: C_34  and  O_39
REMARK                            x       y       z     vdW  Elec       q    Type
REMARK                         _______ _______ _______ _____ _____    ______ ____
ROOT
ATOM      1  N   UNL     1      37.301 -18.677 -21.993  0.00  0.00    +0.385 N 
ATOM      2  C   UNL     1      35.297 -17.738 -20.826  0.00  0.00    +0.091 C 
ATOM      3  C   UNL     1      34.383 -18.924 -21.181  0.00  0.00    +0.185 C 
ATOM      4  C   UNL     1      34.378 -19.366 -22.649  0.00  0.00    +0.043 C 
ATOM      5  C   UNL     1      36.486 -17.485 -21.760  0.00  0.00    -0.058 C 
ATOM      6  C   UNL     1      35.603 -20.167 -23.098  0.00  0.00    -0.020 C 
ATOM      7  C   UNL     1      36.898 -19.371 -23.216  0.00  0.00    -0.082 C 
ATOM      8  H   UNL     1      37.195 -19.312 -21.201  0.00  0.00    -0.084 HD
ATOM      9  H   UNL     1      38.273 -18.385 -22.096  0.00  0.00    -0.084 HD
ENDROOT
BRANCH   2  11
ATOM     10  O   UNL     1      34.557 -16.013 -22.996  0.00  0.00    -0.270 OA
ATOM     11  N   UNL     1      34.509 -16.524 -20.736  0.00  0.00    -0.301 N 
ATOM     12  C   UNL     1      34.206 -15.760 -21.847  0.00  0.00    +0.246 C 
ATOM     13  H   UNL     1      34.179 -16.234 -19.855  0.00  0.00    +0.150 HD
BRANCH  12  14
ATOM     14  C   UNL     1      33.412 -14.531 -21.583  0.00  0.00    +0.054 C 
ATOM     15  C   UNL     1      32.765 -14.405 -20.372  0.00  0.00    +0.008 C 
ATOM     16  C   UNL     1      33.348 -13.557 -22.558  0.00  0.00    +0.008 C 
ATOM     17  C   UNL     1      32.020 -13.252 -20.123  0.00  0.00    +0.037 C 
ATOM     18  C   UNL     1      32.604 -12.404 -22.309  0.00  0.00    +0.037 C 
ATOM     19  C   UNL     1      31.940 -12.252 -21.091  0.00  0.00    +0.134 C 
BRANCH  19  20
ATOM     20  O   UNL     1      31.215 -11.126 -20.849  0.00  0.00    -0.506 OA
ATOM     21  H   UNL     1      30.413 -10.977 -21.310  0.00  0.00    +0.292 HD
ENDBRANCH  19  20
ENDBRANCH  12  14
ENDBRANCH   2  11
BRANCH   3  22
ATOM     22  O   UNL     1      34.700 -20.035 -20.337  0.00  0.00    -0.448 OA
BRANCH  22  24
ATOM     23  O   UNL     1      32.562 -20.866 -20.524  0.00  0.00    -0.245 OA
ATOM     24  C   UNL     1      33.649 -20.811 -19.971  0.00  0.00    +0.341 C 
BRANCH  24  25
ATOM     25  C   UNL     1      33.994 -21.612 -18.770  0.00  0.00    +0.076 C 
ATOM     26  C   UNL     1      32.980 -22.234 -18.070  0.00  0.00    +0.007 C 
ATOM     27  C   UNL     1      35.316 -21.710 -18.389  0.00  0.00    +0.007 C 
ATOM     28  C   UNL     1      33.303 -22.986 -16.940  0.00  0.00    +0.003 C 
ATOM     29  C   UNL     1      35.640 -22.461 -17.260  0.00  0.00    +0.003 C 
ATOM     30  C   UNL     1      34.633 -23.100 -16.535  0.00  0.00    +0.039 C 
BRANCH  30  32
ATOM     31  O   UNL     1      34.097 -24.169 -14.525  0.00  0.00    -0.286 OA
ATOM     32  C   UNL     1      34.970 -23.884 -15.358  0.00  0.00    +0.198 C 
BRANCH  32  33
ATOM     33  C   UNL     1      36.357 -24.375 -15.093  0.00  0.00    +0.073 C 
ATOM     34  C   UNL     1      36.565 -25.707 -14.821  0.00  0.00    +0.137 C 
ATOM     35  C   UNL     1      37.381 -23.456 -15.137  0.00  0.00    +0.006 C 
ATOM     36  C   UNL     1      37.865 -26.145 -14.577  0.00  0.00    +0.037 C 
ATOM     37  C   UNL     1      38.683 -23.893 -14.894  0.00  0.00    +0.000 C 
ATOM     38  C   UNL     1      38.925 -25.238 -14.613  0.00  0.00    +0.003 C 
BRANCH  34  39
ATOM     39  O   UNL     1      35.543 -26.608 -14.780  0.00  0.00    -0.505 OA
ATOM     40  H   UNL     1      34.880 -26.537 -14.121  0.00  0.00    +0.292 HD
ENDBRANCH  34  39
ENDBRANCH  32  33
ENDBRANCH  30  32
ENDBRANCH  24  25
ENDBRANCH  22  24
ENDBRANCH   3  22
TORSDOF 9
ENDMDL
MODEL 9
REMARK VINA RESULT:      -9.0      4.959     12.352
REMARK  Name = 10050566
REMARK  9 active torsions:
REMARK  status: ('A' for Active; 'I' for Inactive)
REMARK    1  A    between atoms: C_2  and  N_11
REMARK    2  A    between atoms: C_3  and  O_22
REMARK    3  A    between atoms: C_12  and  C_14
REMARK    4  A    between atoms: C_19  and  O_20
REMARK    5  A    between atoms: O_22  and  C_24
REMARK    6  A    between atoms: C_24  and  C_25
REMARK    7  A    between atoms: C_30  and  C_32
REMARK    8  A    between atoms: C_32  and  C_33
REMARK    9  A    between atoms: C_34  and  O_39
REMARK                            x       y       z     vdW  Elec       q    Type
REMARK                         _______ _______ _______ _____ _____    ______ ____
ROOT
ATOM      1  N   UNL     1      31.590 -13.960 -20.957  0.00  0.00    +0.385 N 
ATOM      2  C   UNL     1      33.000 -12.941 -22.755  0.00  0.00    +0.091 C 
ATOM      3  C   UNL     1      34.151 -13.950 -22.593  0.00  0.00    +0.185 C 
ATOM      4  C   UNL     1      34.648 -14.194 -21.163  0.00  0.00    +0.043 C 
ATOM      5  C   UNL     1      32.107 -12.718 -21.530  0.00  0.00    -0.058 C 
ATOM      6  C   UNL     1      33.746 -15.074 -20.295  0.00  0.00    -0.020 C 
ATOM      7  C   UNL     1      32.433 -14.435 -19.859  0.00  0.00    -0.082 C 
ATOM      8  H   UNL     1      31.561 -14.675 -21.685  0.00  0.00    -0.084 HD
ATOM      9  H   UNL     1      30.656 -13.779 -20.589  0.00  0.00    -0.084 HD
ENDROOT
BRANCH   2  11
ATOM     10  O   UNL     1      32.144 -10.350 -21.869  0.00  0.00    -0.270 OA
ATOM     11  N   UNL     1      33.529 -11.661 -23.186  0.00  0.00    -0.301 N 
ATOM     12  C   UNL     1      33.045 -10.463 -22.695  0.00  0.00    +0.246 C 
ATOM     13  H   UNL     1      34.256 -11.645 -23.850  0.00  0.00    +0.150 HD
BRANCH  12  14
ATOM     14  C   UNL     1      33.673  -9.240 -23.257  0.00  0.00    +0.054 C 
ATOM     15  C   UNL     1      34.934  -9.333 -23.810  0.00  0.00    +0.008 C 
ATOM     16  C   UNL     1      32.978  -8.049 -23.208  0.00  0.00    +0.008 C 
ATOM     17  C   UNL     1      35.525  -8.185 -24.338  0.00  0.00    +0.037 C 
ATOM     18  C   UNL     1      33.568  -6.902 -23.736  0.00  0.00    +0.037 C 
ATOM     19  C   UNL     1      34.842  -6.970 -24.301  0.00  0.00    +0.134 C 
BRANCH  19  20
ATOM     20  O   UNL     1      35.417  -5.850 -24.818  0.00  0.00    -0.506 OA
ATOM     21  H   UNL     1      35.468  -5.736 -25.747  0.00  0.00    +0.292 HD
ENDBRANCH  19  20
ENDBRANCH  12  14
ENDBRANCH   2  11
BRANCH   3  22
ATOM     22  O   UNL     1      33.782 -15.191 -23.200  0.00  0.00    -0.448 OA
BRANCH  22  24
ATOM     23  O   UNL     1      35.394 -15.635 -24.782  0.00  0.00    -0.245 OA
ATOM     24  C   UNL     1      34.800 -15.900 -23.749  0.00  0.00    +0.341 C 
BRANCH  24  25
ATOM     25  C   UNL     1      35.115 -17.084 -22.910  0.00  0.00    +0.076 C 
ATOM     26  C   UNL     1      35.780 -16.897 -21.715  0.00  0.00    +0.007 C 
ATOM     27  C   UNL     1      34.734 -18.335 -23.351  0.00  0.00    +0.007 C 
ATOM     28  C   UNL     1      36.077 -18.010 -20.927  0.00  0.00    +0.003 C 
ATOM     29  C   UNL     1      35.030 -19.447 -22.564  0.00  0.00    +0.003 C 
ATOM     30  C   UNL     1      35.702 -19.284 -21.351  0.00  0.00    +0.039 C 
BRANCH  30  32
ATOM     31  O   UNL     1      37.152 -20.929 -20.539  0.00  0.00    -0.286 OA
ATOM     32  C   UNL     1      36.011 -20.444 -20.530  0.00  0.00    +0.198 C 
BRANCH  32  33
ATOM     33  C   UNL     1      34.993 -21.099 -19.654  0.00  0.00    +0.073 C 
ATOM     34  C   UNL     1      35.407 -21.900 -18.615  0.00  0.00    +0.137 C 
ATOM     35  C   UNL     1      33.665 -20.865 -19.929  0.00  0.00    +0.006 C 
ATOM     36  C   UNL     1      34.441 -22.501 -17.809  0.00  0.00    +0.037 C 
ATOM     37  C   UNL     1      32.698 -21.466 -19.123  0.00  0.00    +0.000 C 
ATOM     38  C   UNL     1      33.087 -22.284 -18.063  0.00  0.00    +0.003 C 
BRANCH  34  39
ATOM     39  O   UNL     1      36.725 -22.125 -18.351  0.00  0.00    -0.505 OA
ATOM     40  H   UNL     1      37.030 -22.139 -17.464  0.00  0.00    +0.292 HD
ENDBRANCH  34  39
ENDBRANCH  32  33
ENDBRANCH  30  32
ENDBRANCH  24  25
ENDBRANCH  22  24
ENDBRANCH   3  22
TORSDOF 9
ENDMDL
