MODEL 1
REMARK VINA RESULT:     -11.9      0.000      0.000
REMARK  Name = 5287739
REMARK  3 active torsions:
REMARK  status: ('A' for Active; 'I' for Inactive)
REMARK    1  A    between atoms: C_2  and  O_21
REMARK    2  A    between atoms: C_3  and  O_23
REMARK    3  A    between atoms: C_4  and  O_25
REMARK                            x       y       z     vdW  Elec       q    Type
REMARK                         _______ _______ _______ _____ _____    ______ ____
ROOT
ATOM      1  C   UNL     1      35.699 -23.860 -13.328  0.00  0.00    -0.021 C 
ATOM      2  C   UNL     1      37.252 -24.954 -11.111  0.00  0.00    +0.168 C 
ATOM      3  C   UNL     1      37.945 -24.009 -12.094  0.00  0.00    +0.162 C 
ATOM      4  C   UNL     1      35.827 -24.476 -10.846  0.00  0.00    +0.144 C 
ATOM      5  C   UNL     1      34.997 -24.470 -12.129  0.00  0.00    +0.058 C 
ATOM      6  C   UNL     1      37.095 -23.659 -13.298  0.00  0.00    +0.003 C 
ATOM      7  C   UNL     1      34.959 -23.533 -14.505  0.00  0.00    -0.004 C 
ATOM      8  C   UNL     1      35.635 -22.966 -15.617  0.00  0.00    -0.000 C 
ATOM      9  C   UNL     1      37.028 -22.742 -15.562  0.00  0.00    -0.000 C 
ATOM     10  C   UNL     1      37.737 -23.093 -14.410  0.00  0.00    -0.002 C 
ATOM     11  C   UNL     1      34.927 -22.619 -16.801  0.00  0.00    -0.000 C 
ATOM     12  C   UNL     1      33.570 -23.747 -14.636  0.00  0.00    -0.000 C 
ATOM     13  C   UNL     1      33.536 -22.843 -16.888  0.00  0.00    -0.000 C 
ATOM     14  C   UNL     1      35.609 -22.050 -17.903  0.00  0.00    -0.000 C 
ATOM     15  C   UNL     1      37.689 -22.179 -16.661  0.00  0.00    -0.000 C 
ATOM     16  C   UNL     1      32.872 -23.409 -15.798  0.00  0.00    -0.000 C 
ATOM     17  C   UNL     1      36.989 -21.834 -17.817  0.00  0.00    -0.000 C 
ATOM     18  C   UNL     1      32.847 -22.496 -18.059  0.00  0.00    -0.000 C 
ATOM     19  C   UNL     1      34.896 -21.712 -19.063  0.00  0.00    -0.000 C 
ATOM     20  C   UNL     1      33.523 -21.934 -19.138  0.00  0.00    +0.000 C 
ENDROOT
BRANCH   2  21
ATOM     21  O   UNL     1      37.223 -26.275 -11.651  0.00  0.00    -0.379 OA
ATOM     22  H   UNL     1      37.529 -26.254 -12.571  0.00  0.00    +0.211 HD
ENDBRANCH   2  21
BRANCH   3  23
ATOM     23  O   UNL     1      38.272 -22.789 -11.430  0.00  0.00    -0.377 OA
ATOM     24  H   UNL     1      37.925 -22.811 -10.525  0.00  0.00    +0.211 HD
ENDBRANCH   3  23
BRANCH   4  25
ATOM     25  O   UNL     1      35.192 -25.329  -9.898  0.00  0.00    -0.382 OA
ATOM     26  H   UNL     1      35.359 -24.998  -9.001  0.00  0.00    +0.210 HD
ENDBRANCH   4  25
TORSDOF 3
ENDMDL
MODEL 2
REMARK VINA RESULT:     -11.1      0.928      3.145
REMARK  Name = 5287739
REMARK  3 active torsions:
REMARK  status: ('A' for Active; 'I' for Inactive)
REMARK    1  A    between atoms: C_2  and  O_21
REMARK    2  A    between atoms: C_3  and  O_23
REMARK    3  A    between atoms: C_4  and  O_25
REMARK                            x       y       z     vdW  Elec       q    Type
REMARK                         _______ _______ _______ _____ _____    ______ ____
ROOT
ATOM      1  C   UNL     1      36.603 -23.268 -13.833  0.00  0.00    -0.021 C 
ATOM      2  C   UNL     1      36.882 -23.731 -10.963  0.00  0.00    +0.168 C 
ATOM      3  C   UNL     1      35.597 -24.188 -11.656  0.00  0.00    +0.162 C 
ATOM      4  C   UNL     1      38.083 -23.988 -11.870  0.00  0.00    +0.144 C 
ATOM      5  C   UNL     1      37.969 -23.201 -13.175  0.00  0.00    +0.058 C 
ATOM      6  C   UNL     1      35.490 -23.728 -13.096  0.00  0.00    +0.003 C 
ATOM      7  C   UNL     1      36.430 -22.823 -15.178  0.00  0.00    -0.004 C 
ATOM      8  C   UNL     1      35.143 -22.893 -15.773  0.00  0.00    -0.000 C 
ATOM      9  C   UNL     1      34.045 -23.383 -15.035  0.00  0.00    -0.000 C 
ATOM     10  C   UNL     1      34.231 -23.790 -13.711  0.00  0.00    -0.002 C 
ATOM     11  C   UNL     1      34.937 -22.468 -17.116  0.00  0.00    -0.000 C 
ATOM     12  C   UNL     1      37.479 -22.305 -15.968  0.00  0.00    -0.000 C 
ATOM     13  C   UNL     1      36.016 -21.962 -17.874  0.00  0.00    -0.000 C 
ATOM     14  C   UNL     1      33.651 -22.545 -17.703  0.00  0.00    -0.000 C 
ATOM     15  C   UNL     1      32.778 -23.453 -15.630  0.00  0.00    -0.000 C 
ATOM     16  C   UNL     1      37.279 -21.885 -17.285  0.00  0.00    -0.000 C 
ATOM     17  C   UNL     1      32.583 -23.041 -16.948  0.00  0.00    -0.000 C 
ATOM     18  C   UNL     1      35.803 -21.547 -19.196  0.00  0.00    -0.000 C 
ATOM     19  C   UNL     1      33.466 -22.123 -19.027  0.00  0.00    -0.000 C 
ATOM     20  C   UNL     1      34.536 -21.628 -19.768  0.00  0.00    +0.000 C 
ENDROOT
BRANCH   2  21
ATOM     21  O   UNL     1      36.797 -22.339 -10.660  0.00  0.00    -0.379 OA
ATOM     22  H   UNL     1      35.985 -21.974 -11.042  0.00  0.00    +0.211 HD
ENDBRANCH   2  21
BRANCH   3  23
ATOM     23  O   UNL     1      35.538 -25.614 -11.657  0.00  0.00    -0.377 OA
ATOM     24  H   UNL     1      35.823 -25.948 -12.521  0.00  0.00    +0.211 HD
ENDBRANCH   3  23
BRANCH   4  25
ATOM     25  O   UNL     1      39.286 -23.604 -11.211  0.00  0.00    -0.382 OA
ATOM     26  H   UNL     1      39.540 -22.712 -11.494  0.00  0.00    +0.210 HD
ENDBRANCH   4  25
TORSDOF 3
ENDMDL
MODEL 3
REMARK VINA RESULT:     -10.6      3.046      4.952
REMARK  Name = 5287739
REMARK  3 active torsions:
REMARK  status: ('A' for Active; 'I' for Inactive)
REMARK    1  A    between atoms: C_2  and  O_21
REMARK    2  A    between atoms: C_3  and  O_23
REMARK    3  A    between atoms: C_4  and  O_25
REMARK                            x       y       z     vdW  Elec       q    Type
REMARK                         _______ _______ _______ _____ _____    ______ ____
ROOT
ATOM      1  C   UNL     1      31.792 -23.685 -15.361  0.00  0.00    -0.021 C 
ATOM      2  C   UNL     1      29.833 -25.137 -13.754  0.00  0.00    +0.168 C 
ATOM      3  C   UNL     1      31.151 -24.719 -13.099  0.00  0.00    +0.162 C 
ATOM      4  C   UNL     1      29.345 -24.035 -14.691  0.00  0.00    +0.144 C 
ATOM      5  C   UNL     1      30.347 -23.780 -15.816  0.00  0.00    +0.058 C 
ATOM      6  C   UNL     1      32.156 -24.143 -14.077  0.00  0.00    +0.003 C 
ATOM      7  C   UNL     1      32.793 -23.177 -16.244  0.00  0.00    -0.004 C 
ATOM      8  C   UNL     1      34.138 -23.099 -15.799  0.00  0.00    -0.000 C 
ATOM      9  C   UNL     1      34.482 -23.532 -14.501  0.00  0.00    -0.000 C 
ATOM     10  C   UNL     1      33.493 -24.050 -13.661  0.00  0.00    -0.002 C 
ATOM     11  C   UNL     1      35.158 -22.589 -16.649  0.00  0.00    -0.000 C 
ATOM     12  C   UNL     1      32.522 -22.743 -17.560  0.00  0.00    -0.000 C 
ATOM     13  C   UNL     1      34.843 -22.158 -17.957  0.00  0.00    -0.000 C 
ATOM     14  C   UNL     1      36.497 -22.509 -16.195  0.00  0.00    -0.000 C 
ATOM     15  C   UNL     1      35.812 -23.448 -14.066  0.00  0.00    -0.000 C 
ATOM     16  C   UNL     1      33.522 -22.244 -18.398  0.00  0.00    -0.000 C 
ATOM     17  C   UNL     1      36.807 -22.942 -14.902  0.00  0.00    -0.000 C 
ATOM     18  C   UNL     1      35.855 -21.656 -18.787  0.00  0.00    -0.000 C 
ATOM     19  C   UNL     1      37.490 -22.003 -17.046  0.00  0.00    -0.000 C 
ATOM     20  C   UNL     1      37.170 -21.578 -18.333  0.00  0.00    +0.000 C 
ENDROOT
BRANCH   2  21
ATOM     21  O   UNL     1      30.022 -26.345 -14.490  0.00  0.00    -0.379 OA
ATOM     22  H   UNL     1      30.707 -26.880 -14.060  0.00  0.00    +0.211 HD
ENDBRANCH   2  21
BRANCH   3  23
ATOM     23  O   UNL     1      30.896 -23.723 -12.110  0.00  0.00    -0.377 OA
ATOM     24  H   UNL     1      30.309 -24.088 -11.429  0.00  0.00    +0.211 HD
ENDBRANCH   3  23
BRANCH   4  25
ATOM     25  O   UNL     1      28.096 -24.402 -15.270  0.00  0.00    -0.382 OA
ATOM     26  H   UNL     1      27.376 -24.168 -14.663  0.00  0.00    +0.210 HD
ENDBRANCH   4  25
TORSDOF 3
ENDMDL
MODEL 4
REMARK VINA RESULT:     -10.6      1.054      1.412
REMARK  Name = 5287739
REMARK  3 active torsions:
REMARK  status: ('A' for Active; 'I' for Inactive)
REMARK    1  A    between atoms: C_2  and  O_21
REMARK    2  A    between atoms: C_3  and  O_23
REMARK    3  A    between atoms: C_4  and  O_25
REMARK                            x       y       z     vdW  Elec       q    Type
REMARK                         _______ _______ _______ _____ _____    ______ ____
ROOT
ATOM      1  C   UNL     1      35.302 -23.658 -14.662  0.00  0.00    -0.021 C 
ATOM      2  C   UNL     1      36.722 -25.072 -12.538  0.00  0.00    +0.168 C 
ATOM      3  C   UNL     1      37.496 -24.065 -13.391  0.00  0.00    +0.162 C 
ATOM      4  C   UNL     1      35.315 -24.548 -12.261  0.00  0.00    +0.144 C 
ATOM      5  C   UNL     1      34.530 -24.356 -13.558  0.00  0.00    +0.058 C 
ATOM      6  C   UNL     1      36.705 -23.539 -14.572  0.00  0.00    +0.003 C 
ATOM      7  C   UNL     1      34.620 -23.165 -15.816  0.00  0.00    -0.004 C 
ATOM      8  C   UNL     1      35.362 -22.517 -16.838  0.00  0.00    -0.000 C 
ATOM      9  C   UNL     1      36.761 -22.378 -16.720  0.00  0.00    -0.000 C 
ATOM     10  C   UNL     1      37.413 -22.890 -15.595  0.00  0.00    -0.002 C 
ATOM     11  C   UNL     1      34.712 -22.005 -17.996  0.00  0.00    -0.000 C 
ATOM     12  C   UNL     1      33.227 -23.286 -16.007  0.00  0.00    -0.000 C 
ATOM     13  C   UNL     1      33.315 -22.140 -18.145  0.00  0.00    -0.000 C 
ATOM     14  C   UNL     1      35.459 -21.356 -19.009  0.00  0.00    -0.000 C 
ATOM     15  C   UNL     1      37.486 -21.734 -17.732  0.00  0.00    -0.000 C 
ATOM     16  C   UNL     1      32.587 -22.786 -17.144  0.00  0.00    -0.000 C 
ATOM     17  C   UNL     1      36.844 -21.228 -18.861  0.00  0.00    -0.000 C 
ATOM     18  C   UNL     1      32.684 -21.631 -19.289  0.00  0.00    -0.000 C 
ATOM     19  C   UNL     1      34.803 -20.855 -20.143  0.00  0.00    -0.000 C 
ATOM     20  C   UNL     1      33.424 -20.992 -20.280  0.00  0.00    +0.000 C 
ENDROOT
BRANCH   2  21
ATOM     21  O   UNL     1      36.643 -26.323 -13.223  0.00  0.00    -0.379 OA
ATOM     22  H   UNL     1      35.721 -26.502 -13.462  0.00  0.00    +0.211 HD
ENDBRANCH   2  21
BRANCH   3  23
ATOM     23  O   UNL     1      37.862 -22.944 -12.587  0.00  0.00    -0.377 OA
ATOM     24  H   UNL     1      37.867 -23.205 -11.653  0.00  0.00    +0.211 HD
ENDBRANCH   3  23
BRANCH   4  25
ATOM     25  O   UNL     1      34.606 -25.464 -11.431  0.00  0.00    -0.382 OA
ATOM     26  H   UNL     1      33.782 -25.052 -11.126  0.00  0.00    +0.210 HD
ENDBRANCH   4  25
TORSDOF 3
ENDMDL
MODEL 5
REMARK VINA RESULT:     -10.1      1.338      3.407
REMARK  Name = 5287739
REMARK  3 active torsions:
REMARK  status: ('A' for Active; 'I' for Inactive)
REMARK    1  A    between atoms: C_2  and  O_21
REMARK    2  A    between atoms: C_3  and  O_23
REMARK    3  A    between atoms: C_4  and  O_25
REMARK                            x       y       z     vdW  Elec       q    Type
REMARK                         _______ _______ _______ _____ _____    ______ ____
ROOT
ATOM      1  C   UNL     1      37.009 -23.826 -15.017  0.00  0.00    -0.021 C 
ATOM      2  C   UNL     1      37.971 -24.859 -12.461  0.00  0.00    +0.168 C 
ATOM      3  C   UNL     1      36.526 -25.150 -12.871  0.00  0.00    +0.162 C 
ATOM      4  C   UNL     1      38.885 -24.944 -13.680  0.00  0.00    +0.144 C 
ATOM      5  C   UNL     1      38.498 -23.910 -14.736  0.00  0.00    +0.058 C 
ATOM      6  C   UNL     1      36.090 -24.409 -14.119  0.00  0.00    +0.003 C 
ATOM      7  C   UNL     1      36.532 -23.118 -16.162  0.00  0.00    -0.004 C 
ATOM      8  C   UNL     1      35.135 -23.049 -16.404  0.00  0.00    -0.000 C 
ATOM      9  C   UNL     1      34.229 -23.663 -15.513  0.00  0.00    -0.000 C 
ATOM     10  C   UNL     1      34.715 -24.329 -14.385  0.00  0.00    -0.002 C 
ATOM     11  C   UNL     1      34.626 -22.361 -17.540  0.00  0.00    -0.000 C 
ATOM     12  C   UNL     1      37.379 -22.466 -17.083  0.00  0.00    -0.000 C 
ATOM     13  C   UNL     1      35.509 -21.728 -18.442  0.00  0.00    -0.000 C 
ATOM     14  C   UNL     1      33.231 -22.302 -17.777  0.00  0.00    -0.000 C 
ATOM     15  C   UNL     1      32.851 -23.595 -15.760  0.00  0.00    -0.000 C 
ATOM     16  C   UNL     1      36.882 -21.788 -18.198  0.00  0.00    -0.000 C 
ATOM     17  C   UNL     1      32.358 -22.924 -16.879  0.00  0.00    -0.000 C 
ATOM     18  C   UNL     1      34.998 -21.054 -19.560  0.00  0.00    -0.000 C 
ATOM     19  C   UNL     1      32.746 -21.620 -18.903  0.00  0.00    -0.000 C 
ATOM     20  C   UNL     1      33.625 -21.001 -19.788  0.00  0.00    +0.000 C 
ENDROOT
BRANCH   2  21
ATOM     21  O   UNL     1      38.056 -23.555 -11.887  0.00  0.00    -0.379 OA
ATOM     22  H   UNL     1      38.980 -23.262 -11.886  0.00  0.00    +0.211 HD
ENDBRANCH   2  21
BRANCH   3  23
ATOM     23  O   UNL     1      36.376 -26.546 -13.127  0.00  0.00    -0.377 OA
ATOM     24  H   UNL     1      35.464 -26.813 -12.933  0.00  0.00    +0.211 HD
ENDBRANCH   3  23
BRANCH   4  25
ATOM     25  O   UNL     1      40.238 -24.717 -13.295  0.00  0.00    -0.382 OA
ATOM     26  H   UNL     1      40.344 -23.794 -13.014  0.00  0.00    +0.210 HD
ENDBRANCH   4  25
TORSDOF 3
ENDMDL
MODEL 6
REMARK VINA RESULT:      -9.9      2.122      3.788
REMARK  Name = 5287739
REMARK  3 active torsions:
REMARK  status: ('A' for Active; 'I' for Inactive)
REMARK    1  A    between atoms: C_2  and  O_21
REMARK    2  A    between atoms: C_3  and  O_23
REMARK    3  A    between atoms: C_4  and  O_25
REMARK                            x       y       z     vdW  Elec       q    Type
REMARK                         _______ _______ _______ _____ _____    ______ ____
ROOT
ATOM      1  C   UNL     1      35.341 -24.373 -14.168  0.00  0.00    -0.021 C 
ATOM      2  C   UNL     1      38.229 -24.720 -14.418  0.00  0.00    +0.168 C 
ATOM      3  C   UNL     1      37.534 -23.702 -15.323  0.00  0.00    +0.162 C 
ATOM      4  C   UNL     1      37.610 -24.685 -13.023  0.00  0.00    +0.144 C 
ATOM      5  C   UNL     1      36.129 -25.056 -13.065  0.00  0.00    +0.058 C 
ATOM      6  C   UNL     1      36.022 -23.746 -15.233  0.00  0.00    +0.003 C 
ATOM      7  C   UNL     1      33.913 -24.402 -14.157  0.00  0.00    -0.004 C 
ATOM      8  C   UNL     1      33.196 -23.759 -15.199  0.00  0.00    -0.000 C 
ATOM      9  C   UNL     1      33.890 -23.110 -16.243  0.00  0.00    -0.000 C 
ATOM     10  C   UNL     1      35.288 -23.114 -16.248  0.00  0.00    -0.002 C 
ATOM     11  C   UNL     1      31.773 -23.760 -15.213  0.00  0.00    -0.000 C 
ATOM     12  C   UNL     1      33.156 -25.048 -13.156  0.00  0.00    -0.000 C 
ATOM     13  C   UNL     1      31.053 -24.412 -14.188  0.00  0.00    -0.000 C 
ATOM     14  C   UNL     1      31.066 -23.112 -16.254  0.00  0.00    -0.000 C 
ATOM     15  C   UNL     1      33.176 -22.473 -17.266  0.00  0.00    -0.000 C 
ATOM     16  C   UNL     1      31.759 -25.053 -13.168  0.00  0.00    -0.000 C 
ATOM     17  C   UNL     1      31.781 -22.472 -17.272  0.00  0.00    -0.000 C 
ATOM     18  C   UNL     1      29.651 -24.407 -14.210  0.00  0.00    -0.000 C 
ATOM     19  C   UNL     1      29.663 -23.122 -16.253  0.00  0.00    -0.000 C 
ATOM     20  C   UNL     1      28.962 -23.765 -15.236  0.00  0.00    +0.000 C 
ENDROOT
BRANCH   2  21
ATOM     21  O   UNL     1      38.094 -26.029 -14.971  0.00  0.00    -0.379 OA
ATOM     22  H   UNL     1      38.777 -26.166 -15.646  0.00  0.00    +0.211 HD
ENDBRANCH   2  21
BRANCH   3  23
ATOM     23  O   UNL     1      37.946 -22.385 -14.962  0.00  0.00    -0.377 OA
ATOM     24  H   UNL     1      38.334 -21.945 -15.735  0.00  0.00    +0.211 HD
ENDBRANCH   3  23
BRANCH   4  25
ATOM     25  O   UNL     1      38.284 -25.601 -12.165  0.00  0.00    -0.382 OA
ATOM     26  H   UNL     1      38.546 -26.386 -12.671  0.00  0.00    +0.210 HD
ENDBRANCH   4  25
TORSDOF 3
ENDMDL
MODEL 7
REMARK VINA RESULT:      -9.8      2.110      4.467
REMARK  Name = 5287739
REMARK  3 active torsions:
REMARK  status: ('A' for Active; 'I' for Inactive)
REMARK    1  A    between atoms: C_2  and  O_21
REMARK    2  A    between atoms: C_3  and  O_23
REMARK    3  A    between atoms: C_4  and  O_25
REMARK                            x       y       z     vdW  Elec       q    Type
REMARK                         _______ _______ _______ _____ _____    ______ ____
ROOT
ATOM      1  C   UNL     1      35.356 -24.047 -14.579  0.00  0.00    -0.021 C 
ATOM      2  C   UNL     1      37.882 -24.384 -13.154  0.00  0.00    +0.168 C 
ATOM      3  C   UNL     1      36.620 -25.016 -12.565  0.00  0.00    +0.162 C 
ATOM      4  C   UNL     1      37.872 -24.518 -14.674  0.00  0.00    +0.144 C 
ATOM      5  C   UNL     1      36.675 -23.792 -15.286  0.00  0.00    +0.058 C 
ATOM      6  C   UNL     1      35.349 -24.617 -13.289  0.00  0.00    +0.003 C 
ATOM      7  C   UNL     1      34.125 -23.668 -15.196  0.00  0.00    -0.004 C 
ATOM      8  C   UNL     1      32.903 -23.913 -14.516  0.00  0.00    -0.000 C 
ATOM      9  C   UNL     1      32.910 -24.512 -13.238  0.00  0.00    -0.000 C 
ATOM     10  C   UNL     1      34.127 -24.852 -12.642  0.00  0.00    -0.002 C 
ATOM     11  C   UNL     1      31.658 -23.558 -15.105  0.00  0.00    -0.000 C 
ATOM     12  C   UNL     1      34.046 -23.049 -16.462  0.00  0.00    -0.000 C 
ATOM     13  C   UNL     1      31.623 -22.947 -16.378  0.00  0.00    -0.000 C 
ATOM     14  C   UNL     1      30.443 -23.811 -14.423  0.00  0.00    -0.000 C 
ATOM     15  C   UNL     1      31.699 -24.755 -12.575  0.00  0.00    -0.000 C 
ATOM     16  C   UNL     1      32.825 -22.698 -17.042  0.00  0.00    -0.000 C 
ATOM     17  C   UNL     1      30.481 -24.411 -13.160  0.00  0.00    -0.000 C 
ATOM     18  C   UNL     1      30.390 -22.602 -16.951  0.00  0.00    -0.000 C 
ATOM     19  C   UNL     1      29.224 -23.455 -15.018  0.00  0.00    -0.000 C 
ATOM     20  C   UNL     1      29.200 -22.856 -16.275  0.00  0.00    +0.000 C 
ENDROOT
BRANCH   2  21
ATOM     21  O   UNL     1      37.943 -23.004 -12.793  0.00  0.00    -0.379 OA
ATOM     22  H   UNL     1      38.168 -22.476 -13.575  0.00  0.00    +0.211 HD
ENDBRANCH   2  21
BRANCH   3  23
ATOM     23  O   UNL     1      36.723 -26.437 -12.634  0.00  0.00    -0.377 OA
ATOM     24  H   UNL     1      37.571 -26.680 -13.037  0.00  0.00    +0.211 HD
ENDBRANCH   3  23
BRANCH   4  25
ATOM     25  O   UNL     1      39.066 -23.969 -15.223  0.00  0.00    -0.382 OA
ATOM     26  H   UNL     1      39.201 -24.317 -16.118  0.00  0.00    +0.210 HD
ENDBRANCH   4  25
TORSDOF 3
ENDMDL
MODEL 8
REMARK VINA RESULT:      -9.4     13.613     16.597
REMARK  Name = 5287739
REMARK  3 active torsions:
REMARK  status: ('A' for Active; 'I' for Inactive)
REMARK    1  A    between atoms: C_2  and  O_21
REMARK    2  A    between atoms: C_3  and  O_23
REMARK    3  A    between atoms: C_4  and  O_25
REMARK                            x       y       z     vdW  Elec       q    Type
REMARK                         _______ _______ _______ _____ _____    ______ ____
ROOT
ATOM      1  C   UNL     1      32.811  -8.582 -22.580  0.00  0.00    -0.021 C 
ATOM      2  C   UNL     1      31.732  -5.888 -22.256  0.00  0.00    +0.168 C 
ATOM      3  C   UNL     1      31.645  -6.858 -21.076  0.00  0.00    +0.162 C 
ATOM      4  C   UNL     1      33.065  -6.065 -22.978  0.00  0.00    +0.144 C 
ATOM      5  C   UNL     1      33.205  -7.478 -23.543  0.00  0.00    +0.058 C 
ATOM      6  C   UNL     1      32.064  -8.272 -21.423  0.00  0.00    +0.003 C 
ATOM      7  C   UNL     1      33.151  -9.940 -22.863  0.00  0.00    -0.004 C 
ATOM      8  C   UNL     1      32.770 -10.957 -21.950  0.00  0.00    -0.000 C 
ATOM      9  C   UNL     1      32.050 -10.629 -20.781  0.00  0.00    -0.000 C 
ATOM     10  C   UNL     1      31.705  -9.297 -20.535  0.00  0.00    -0.002 C 
ATOM     11  C   UNL     1      33.102 -12.319 -22.196  0.00  0.00    -0.000 C 
ATOM     12  C   UNL     1      33.853 -10.341 -24.020  0.00  0.00    -0.000 C 
ATOM     13  C   UNL     1      33.813 -12.677 -23.363  0.00  0.00    -0.000 C 
ATOM     14  C   UNL     1      32.722 -13.327 -21.277  0.00  0.00    -0.000 C 
ATOM     15  C   UNL     1      31.681 -11.638 -19.882  0.00  0.00    -0.000 C 
ATOM     16  C   UNL     1      34.178 -11.678 -24.266  0.00  0.00    -0.000 C 
ATOM     17  C   UNL     1      32.014 -12.970 -20.125  0.00  0.00    -0.000 C 
ATOM     18  C   UNL     1      34.136 -14.021 -23.596  0.00  0.00    -0.000 C 
ATOM     19  C   UNL     1      33.059 -14.664 -21.535  0.00  0.00    -0.000 C 
ATOM     20  C   UNL     1      33.762 -15.007 -22.687  0.00  0.00    +0.000 C 
ENDROOT
BRANCH   2  21
ATOM     21  O   UNL     1      30.657  -6.135 -23.162  0.00  0.00    -0.379 OA
ATOM     22  H   UNL     1      29.887  -6.456 -22.670  0.00  0.00    +0.211 HD
ENDBRANCH   2  21
BRANCH   3  23
ATOM     23  O   UNL     1      32.497  -6.405 -20.024  0.00  0.00    -0.377 OA
ATOM     24  H   UNL     1      32.570  -5.438 -20.063  0.00  0.00    +0.211 HD
ENDBRANCH   3  23
BRANCH   4  25
ATOM     25  O   UNL     1      33.168  -5.134 -24.052  0.00  0.00    -0.382 OA
ATOM     26  H   UNL     1      32.283  -4.827 -24.300  0.00  0.00    +0.210 HD
ENDBRANCH   4  25
TORSDOF 3
ENDMDL
MODEL 9
REMARK VINA RESULT:      -9.4      1.441      3.659
REMARK  Name = 5287739
REMARK  3 active torsions:
REMARK  status: ('A' for Active; 'I' for Inactive)
REMARK    1  A    between atoms: C_2  and  O_21
REMARK    2  A    between atoms: C_3  and  O_23
REMARK    3  A    between atoms: C_4  and  O_25
REMARK                            x       y       z     vdW  Elec       q    Type
REMARK                         _______ _______ _______ _____ _____    ______ ____
ROOT
ATOM      1  C   UNL     1      35.189 -23.643 -14.756  0.00  0.00    -0.021 C 
ATOM      2  C   UNL     1      34.175 -24.606 -12.193  0.00  0.00    +0.168 C 
ATOM      3  C   UNL     1      33.215 -24.543 -13.383  0.00  0.00    +0.162 C 
ATOM      4  C   UNL     1      35.553 -25.068 -12.659  0.00  0.00    +0.144 C 
ATOM      5  C   UNL     1      36.151 -24.092 -13.671  0.00  0.00    +0.058 C 
ATOM      6  C   UNL     1      33.803 -23.856 -14.598  0.00  0.00    +0.003 C 
ATOM      7  C   UNL     1      35.677 -22.965 -15.914  0.00  0.00    -0.004 C 
ATOM      8  C   UNL     1      34.760 -22.552 -16.916  0.00  0.00    -0.000 C 
ATOM      9  C   UNL     1      33.379 -22.798 -16.759  0.00  0.00    -0.000 C 
ATOM     10  C   UNL     1      32.920 -23.441 -15.606  0.00  0.00    -0.002 C 
ATOM     11  C   UNL     1      35.212 -21.883 -18.087  0.00  0.00    -0.000 C 
ATOM     12  C   UNL     1      37.041 -22.670 -16.127  0.00  0.00    -0.000 C 
ATOM     13  C   UNL     1      36.587 -21.614 -18.265  0.00  0.00    -0.000 C 
ATOM     14  C   UNL     1      34.291 -21.479 -19.083  0.00  0.00    -0.000 C 
ATOM     15  C   UNL     1      32.479 -22.391 -17.753  0.00  0.00    -0.000 C 
ATOM     16  C   UNL     1      37.488 -22.011 -17.275  0.00  0.00    -0.000 C 
ATOM     17  C   UNL     1      32.929 -21.741 -18.902  0.00  0.00    -0.000 C 
ATOM     18  C   UNL     1      37.024 -20.955 -19.423  0.00  0.00    -0.000 C 
ATOM     19  C   UNL     1      34.755 -20.821 -20.232  0.00  0.00    -0.000 C 
ATOM     20  C   UNL     1      36.113 -20.562 -20.400  0.00  0.00    +0.000 C 
ENDROOT
BRANCH   2  21
ATOM     21  O   UNL     1      34.279 -23.317 -11.589  0.00  0.00    -0.379 OA
ATOM     22  H   UNL     1      33.817 -23.322 -10.737  0.00  0.00    +0.211 HD
ENDBRANCH   2  21
BRANCH   3  23
ATOM     23  O   UNL     1      32.853 -25.867 -13.772  0.00  0.00    -0.377 OA
ATOM     24  H   UNL     1      33.652 -26.361 -14.016  0.00  0.00    +0.211 HD
ENDBRANCH   3  23
BRANCH   4  25
ATOM     25  O   UNL     1      36.438 -25.170 -11.548  0.00  0.00    -0.382 OA
ATOM     26  H   UNL     1      37.240 -24.654 -11.724  0.00  0.00    +0.210 HD
ENDBRANCH   4  25
TORSDOF 3
ENDMDL
