MODEL 1
REMARK VINA RESULT:     -11.2      0.000      0.000
REMARK  Name = 24901696
REMARK  4 active torsions:
REMARK  status: ('A' for Active; 'I' for Inactive)
REMARK    1  A    between atoms: C_5  and  C_16
REMARK    2  A    between atoms: C_7  and  C_10
REMARK    3  A    between atoms: C_16  and  C_17
REMARK    4  A    between atoms: C_22  and  O_23
REMARK                            x       y       z     vdW  Elec       q    Type
REMARK                         _______ _______ _______ _____ _____    ______ ____
ROOT
ATOM      1  N   UNL     1      34.880 -17.151 -22.561  0.00  0.00    -0.195 N 
ATOM      2  N   UNL     1      34.829 -17.954 -21.470  0.00  0.00    -0.163 NA
ATOM      3  N   UNL     1      34.940 -15.356 -23.819  0.00  0.00    -0.131 NA
ATOM      4  N   UNL     1      34.964 -16.462 -24.645  0.00  0.00    -0.127 NA
ATOM      5  C   UNL     1      34.892 -15.787 -22.578  0.00  0.00    +0.168 A 
ATOM      6  C   UNL     1      34.927 -17.534 -23.882  0.00  0.00    +0.186 A 
ATOM      7  C   UNL     1      34.821 -19.226 -21.752  0.00  0.00    +0.101 C 
ATOM      8  C   UNL     1      34.935 -18.916 -24.156  0.00  0.00    +0.042 C 
ATOM      9  C   UNL     1      34.887 -19.787 -23.140  0.00  0.00    +0.024 C 
ENDROOT
BRANCH   7  10
ATOM     10  C   UNL     1      34.761 -20.210 -20.639  0.00  0.00    +0.019 C 
ATOM     11  C   UNL     1      33.526 -20.630 -20.145  0.00  0.00    +0.002 C 
ATOM     12  C   UNL     1      35.941 -20.716 -20.092  0.00  0.00    +0.002 C 
ATOM     13  C   UNL     1      33.471 -21.553 -19.101  0.00  0.00    +0.000 C 
ATOM     14  C   UNL     1      35.884 -21.639 -19.048  0.00  0.00    +0.000 C 
ATOM     15  C   UNL     1      34.649 -22.059 -18.553  0.00  0.00    +0.000 C 
ENDBRANCH   7  10
BRANCH   5  16
ATOM     16  C   UNL     1      34.854 -14.966 -21.354  0.00  0.00    +0.094 C 
BRANCH  16  17
ATOM     17  C   UNL     1      33.694 -13.982 -21.288  0.00  0.00    -0.014 C 
ATOM     18  C   UNL     1      33.524 -13.036 -22.298  0.00  0.00    -0.001 C 
ATOM     19  C   UNL     1      32.803 -14.026 -20.216  0.00  0.00    -0.001 C 
ATOM     20  C   UNL     1      32.462 -12.133 -22.237  0.00  0.00    +0.036 C 
ATOM     21  C   UNL     1      31.741 -13.124 -20.155  0.00  0.00    +0.036 C 
ATOM     22  C   UNL     1      31.571 -12.177 -21.165  0.00  0.00    +0.134 C 
BRANCH  22  23
ATOM     23  O   UNL     1      30.535 -11.296 -21.105  0.00  0.00    -0.506 OA
ATOM     24  H   UNL     1      29.988 -11.266 -20.345  0.00  0.00    +0.292 HD
ENDBRANCH  22  23
ENDBRANCH  16  17
ENDBRANCH   5  16
TORSDOF 4
ENDMDL
MODEL 2
REMARK VINA RESULT:     -10.8      5.076     10.314
REMARK  Name = 24901696
REMARK  4 active torsions:
REMARK  status: ('A' for Active; 'I' for Inactive)
REMARK    1  A    between atoms: C_5  and  C_16
REMARK    2  A    between atoms: C_7  and  C_10
REMARK    3  A    between atoms: C_16  and  C_17
REMARK    4  A    between atoms: C_22  and  O_23
REMARK                            x       y       z     vdW  Elec       q    Type
REMARK                         _______ _______ _______ _____ _____    ______ ____
ROOT
ATOM      1  N   UNL     1      32.123  -9.680 -20.986  0.00  0.00    -0.195 N 
ATOM      2  N   UNL     1      32.605  -9.083 -22.104  0.00  0.00    -0.163 NA
ATOM      3  N   UNL     1      31.314 -11.196 -19.625  0.00  0.00    -0.131 NA
ATOM      4  N   UNL     1      31.441 -10.013 -18.925  0.00  0.00    -0.127 NA
ATOM      5  C   UNL     1      31.728 -10.979 -20.853  0.00  0.00    +0.168 A 
ATOM      6  C   UNL     1      31.927  -9.110 -19.750  0.00  0.00    +0.186 A 
ATOM      7  C   UNL     1      32.897  -7.824 -21.944  0.00  0.00    +0.101 C 
ATOM      8  C   UNL     1      32.268  -7.750 -19.602  0.00  0.00    +0.042 C 
ATOM      9  C   UNL     1      32.752  -7.076 -20.654  0.00  0.00    +0.024 C 
ENDROOT
BRANCH   7  10
ATOM     10  C   UNL     1      33.429  -7.055 -23.100  0.00  0.00    +0.019 C 
ATOM     11  C   UNL     1      32.556  -6.359 -23.936  0.00  0.00    +0.002 C 
ATOM     12  C   UNL     1      34.802  -7.029 -23.348  0.00  0.00    +0.002 C 
ATOM     13  C   UNL     1      33.056  -5.638 -25.021  0.00  0.00    +0.000 C 
ATOM     14  C   UNL     1      35.301  -6.309 -24.432  0.00  0.00    +0.000 C 
ATOM     15  C   UNL     1      34.428  -5.612 -25.269  0.00  0.00    +0.000 C 
ENDBRANCH   7  10
BRANCH   5  16
ATOM     16  C   UNL     1      31.778 -11.953 -21.959  0.00  0.00    +0.094 C 
BRANCH  16  17
ATOM     17  C   UNL     1      32.653 -13.170 -21.691  0.00  0.00    -0.014 C 
ATOM     18  C   UNL     1      33.714 -13.468 -22.545  0.00  0.00    -0.001 C 
ATOM     19  C   UNL     1      32.391 -13.988 -20.592  0.00  0.00    -0.001 C 
ATOM     20  C   UNL     1      34.515 -14.584 -22.299  0.00  0.00    +0.036 C 
ATOM     21  C   UNL     1      33.191 -15.104 -20.346  0.00  0.00    +0.036 C 
ATOM     22  C   UNL     1      34.252 -15.402 -21.200  0.00  0.00    +0.134 C 
BRANCH  22  23
ATOM     23  O   UNL     1      35.034 -16.491 -20.961  0.00  0.00    -0.506 OA
ATOM     24  H   UNL     1      35.566 -16.845 -21.645  0.00  0.00    +0.292 HD
ENDBRANCH  22  23
ENDBRANCH  16  17
ENDBRANCH   5  16
TORSDOF 4
ENDMDL
MODEL 3
REMARK VINA RESULT:     -10.8      4.305      6.852
REMARK  Name = 24901696
REMARK  4 active torsions:
REMARK  status: ('A' for Active; 'I' for Inactive)
REMARK    1  A    between atoms: C_5  and  C_16
REMARK    2  A    between atoms: C_7  and  C_10
REMARK    3  A    between atoms: C_16  and  C_17
REMARK    4  A    between atoms: C_22  and  O_23
REMARK                            x       y       z     vdW  Elec       q    Type
REMARK                         _______ _______ _______ _____ _____    ______ ____
ROOT
ATOM      1  N   UNL     1      32.353 -11.857 -21.445  0.00  0.00    -0.195 N 
ATOM      2  N   UNL     1      32.928 -12.572 -22.444  0.00  0.00    -0.163 NA
ATOM      3  N   UNL     1      31.524 -10.181 -20.301  0.00  0.00    -0.131 NA
ATOM      4  N   UNL     1      31.426 -11.320 -19.527  0.00  0.00    -0.127 NA
ATOM      5  C   UNL     1      32.079 -10.521 -21.443  0.00  0.00    +0.168 A 
ATOM      6  C   UNL     1      31.926 -12.321 -20.222  0.00  0.00    +0.186 A 
ATOM      7  C   UNL     1      33.077 -13.836 -22.168  0.00  0.00    +0.101 C 
ATOM      8  C   UNL     1      32.084 -13.696 -19.958  0.00  0.00    +0.042 C 
ATOM      9  C   UNL     1      32.644 -14.482 -20.887  0.00  0.00    +0.024 C 
ENDROOT
BRANCH   7  10
ATOM     10  C   UNL     1      33.703 -14.725 -23.182  0.00  0.00    +0.019 C 
ATOM     11  C   UNL     1      34.574 -15.737 -22.781  0.00  0.00    +0.002 C 
ATOM     12  C   UNL     1      33.415 -14.549 -24.537  0.00  0.00    +0.002 C 
ATOM     13  C   UNL     1      35.161 -16.571 -23.733  0.00  0.00    +0.000 C 
ATOM     14  C   UNL     1      34.002 -15.383 -25.488  0.00  0.00    +0.000 C 
ATOM     15  C   UNL     1      34.874 -16.395 -25.086  0.00  0.00    +0.000 C 
ENDBRANCH   7  10
BRANCH   5  16
ATOM     16  C   UNL     1      32.382  -9.635 -22.581  0.00  0.00    +0.094 C 
BRANCH  16  17
ATOM     17  C   UNL     1      32.016  -8.174 -22.361  0.00  0.00    -0.014 C 
ATOM     18  C   UNL     1      30.905  -7.628 -23.003  0.00  0.00    -0.001 C 
ATOM     19  C   UNL     1      32.794  -7.381 -21.518  0.00  0.00    -0.001 C 
ATOM     20  C   UNL     1      30.571  -6.288 -22.802  0.00  0.00    +0.036 C 
ATOM     21  C   UNL     1      32.461  -6.041 -21.316  0.00  0.00    +0.036 C 
ATOM     22  C   UNL     1      31.350  -5.496 -21.958  0.00  0.00    +0.134 C 
BRANCH  22  23
ATOM     23  O   UNL     1      31.023  -4.189 -21.762  0.00  0.00    -0.506 OA
ATOM     24  H   UNL     1      30.332  -3.961 -21.172  0.00  0.00    +0.292 HD
ENDBRANCH  22  23
ENDBRANCH  16  17
ENDBRANCH   5  16
TORSDOF 4
ENDMDL
MODEL 4
REMARK VINA RESULT:     -10.6      5.836      9.120
REMARK  Name = 24901696
REMARK  4 active torsions:
REMARK  status: ('A' for Active; 'I' for Inactive)
REMARK    1  A    between atoms: C_5  and  C_16
REMARK    2  A    between atoms: C_7  and  C_10
REMARK    3  A    between atoms: C_16  and  C_17
REMARK    4  A    between atoms: C_22  and  O_23
REMARK                            x       y       z     vdW  Elec       q    Type
REMARK                         _______ _______ _______ _____ _____    ______ ____
ROOT
ATOM      1  N   UNL     1      33.442 -23.535 -15.954  0.00  0.00    -0.195 N 
ATOM      2  N   UNL     1      34.607 -24.070 -15.512  0.00  0.00    -0.163 NA
ATOM      3  N   UNL     1      31.915 -22.690 -17.281  0.00  0.00    -0.131 NA
ATOM      4  N   UNL     1      31.399 -22.729 -16.001  0.00  0.00    -0.127 NA
ATOM      5  C   UNL     1      33.134 -23.177 -17.234  0.00  0.00    +0.168 A 
ATOM      6  C   UNL     1      32.322 -23.237 -15.212  0.00  0.00    +0.186 A 
ATOM      7  C   UNL     1      34.625 -24.307 -14.231  0.00  0.00    +0.101 C 
ATOM      8  C   UNL     1      32.364 -23.520 -13.832  0.00  0.00    +0.042 C 
ATOM      9  C   UNL     1      33.476 -24.050 -13.304  0.00  0.00    +0.024 C 
ENDROOT
BRANCH   7  10
ATOM     10  C   UNL     1      35.851 -24.887 -13.624  0.00  0.00    +0.019 C 
ATOM     11  C   UNL     1      36.178 -24.598 -12.299  0.00  0.00    +0.002 C 
ATOM     12  C   UNL     1      36.674 -25.724 -14.379  0.00  0.00    +0.002 C 
ATOM     13  C   UNL     1      37.329 -25.144 -11.729  0.00  0.00    +0.000 C 
ATOM     14  C   UNL     1      37.824 -26.269 -13.809  0.00  0.00    +0.000 C 
ATOM     15  C   UNL     1      38.152 -25.980 -12.484  0.00  0.00    +0.000 C 
ENDBRANCH   7  10
BRANCH   5  16
ATOM     16  C   UNL     1      34.072 -23.334 -18.360  0.00  0.00    +0.094 C 
BRANCH  16  17
ATOM     17  C   UNL     1      34.296 -22.070 -19.179  0.00  0.00    -0.014 C 
ATOM     18  C   UNL     1      33.204 -21.344 -19.653  0.00  0.00    -0.001 C 
ATOM     19  C   UNL     1      35.593 -21.640 -19.456  0.00  0.00    -0.001 C 
ATOM     20  C   UNL     1      33.409 -20.186 -20.404  0.00  0.00    +0.036 C 
ATOM     21  C   UNL     1      35.799 -20.482 -20.207  0.00  0.00    +0.036 C 
ATOM     22  C   UNL     1      34.707 -19.756 -20.681  0.00  0.00    +0.134 C 
BRANCH  22  23
ATOM     23  O   UNL     1      34.907 -18.626 -21.413  0.00  0.00    -0.506 OA
ATOM     24  H   UNL     1      35.746 -18.455 -21.792  0.00  0.00    +0.292 HD
ENDBRANCH  22  23
ENDBRANCH  16  17
ENDBRANCH   5  16
TORSDOF 4
ENDMDL
MODEL 5
REMARK VINA RESULT:     -10.4      4.303      9.783
REMARK  Name = 24901696
REMARK  4 active torsions:
REMARK  status: ('A' for Active; 'I' for Inactive)
REMARK    1  A    between atoms: C_5  and  C_16
REMARK    2  A    between atoms: C_7  and  C_10
REMARK    3  A    between atoms: C_16  and  C_17
REMARK    4  A    between atoms: C_22  and  O_23
REMARK                            x       y       z     vdW  Elec       q    Type
REMARK                         _______ _______ _______ _____ _____    ______ ____
ROOT
ATOM      1  N   UNL     1      32.709 -11.361 -22.311  0.00  0.00    -0.195 N 
ATOM      2  N   UNL     1      33.191 -10.312 -23.024  0.00  0.00    -0.163 NA
ATOM      3  N   UNL     1      32.294 -13.410 -21.655  0.00  0.00    -0.131 NA
ATOM      4  N   UNL     1      31.645 -12.544 -20.798  0.00  0.00    -0.127 NA
ATOM      5  C   UNL     1      32.925 -12.686 -22.551  0.00  0.00    +0.168 A 
ATOM      6  C   UNL     1      31.900 -11.317 -21.200  0.00  0.00    +0.186 A 
ATOM      7  C   UNL     1      32.815  -9.150 -22.571  0.00  0.00    +0.101 C 
ATOM      8  C   UNL     1      31.524 -10.046 -20.721  0.00  0.00    +0.042 C 
ATOM      9  C   UNL     1      31.952  -8.950 -21.362  0.00  0.00    +0.024 C 
ENDROOT
BRANCH   7  10
ATOM     10  C   UNL     1      33.273  -7.921 -23.270  0.00  0.00    +0.019 C 
ATOM     11  C   UNL     1      34.633  -7.712 -23.496  0.00  0.00    +0.002 C 
ATOM     12  C   UNL     1      32.340  -6.978 -23.704  0.00  0.00    +0.002 C 
ATOM     13  C   UNL     1      35.062  -6.559 -24.153  0.00  0.00    +0.000 C 
ATOM     14  C   UNL     1      32.770  -5.825 -24.360  0.00  0.00    +0.000 C 
ATOM     15  C   UNL     1      34.131  -5.615 -24.586  0.00  0.00    +0.000 C 
ENDBRANCH   7  10
BRANCH   5  16
ATOM     16  C   UNL     1      33.754 -13.178 -23.667  0.00  0.00    +0.094 C 
BRANCH  16  17
ATOM     17  C   UNL     1      34.242 -14.611 -23.509  0.00  0.00    -0.014 C 
ATOM     18  C   UNL     1      34.651 -15.075 -22.259  0.00  0.00    -0.001 C 
ATOM     19  C   UNL     1      34.282 -15.459 -24.615  0.00  0.00    -0.001 C 
ATOM     20  C   UNL     1      35.099 -16.389 -22.115  0.00  0.00    +0.036 C 
ATOM     21  C   UNL     1      34.730 -16.773 -24.472  0.00  0.00    +0.036 C 
ATOM     22  C   UNL     1      35.138 -17.236 -23.222  0.00  0.00    +0.134 C 
BRANCH  22  23
ATOM     23  O   UNL     1      35.576 -18.518 -23.081  0.00  0.00    -0.506 OA
ATOM     24  H   UNL     1      36.249 -18.718 -22.461  0.00  0.00    +0.292 HD
ENDBRANCH  22  23
ENDBRANCH  16  17
ENDBRANCH   5  16
TORSDOF 4
ENDMDL
MODEL 6
REMARK VINA RESULT:     -10.3      4.516      6.814
REMARK  Name = 24901696
REMARK  4 active torsions:
REMARK  status: ('A' for Active; 'I' for Inactive)
REMARK    1  A    between atoms: C_5  and  C_16
REMARK    2  A    between atoms: C_7  and  C_10
REMARK    3  A    between atoms: C_16  and  C_17
REMARK    4  A    between atoms: C_22  and  O_23
REMARK                            x       y       z     vdW  Elec       q    Type
REMARK                         _______ _______ _______ _____ _____    ______ ____
ROOT
ATOM      1  N   UNL     1      32.076 -11.947 -21.267  0.00  0.00    -0.195 N 
ATOM      2  N   UNL     1      32.555 -12.575 -22.370  0.00  0.00    -0.163 NA
ATOM      3  N   UNL     1      31.202 -10.417 -19.963  0.00  0.00    -0.131 NA
ATOM      4  N   UNL     1      31.483 -11.528 -19.194  0.00  0.00    -0.127 NA
ATOM      5  C   UNL     1      31.561 -10.686 -21.198  0.00  0.00    +0.168 A 
ATOM      6  C   UNL     1      32.007 -12.441 -19.985  0.00  0.00    +0.186 A 
ATOM      7  C   UNL     1      32.995 -13.779 -22.140  0.00  0.00    +0.101 C 
ATOM      8  C   UNL     1      32.474 -13.753 -19.770  0.00  0.00    +0.042 C 
ATOM      9  C   UNL     1      32.967 -14.452 -20.801  0.00  0.00    +0.024 C 
ENDROOT
BRANCH   7  10
ATOM     10  C   UNL     1      33.552 -14.570 -23.269  0.00  0.00    +0.019 C 
ATOM     11  C   UNL     1      34.434 -15.621 -23.016  0.00  0.00    +0.002 C 
ATOM     12  C   UNL     1      33.191 -14.262 -24.581  0.00  0.00    +0.002 C 
ATOM     13  C   UNL     1      34.957 -16.362 -24.076  0.00  0.00    +0.000 C 
ATOM     14  C   UNL     1      33.714 -15.003 -25.640  0.00  0.00    +0.000 C 
ATOM     15  C   UNL     1      34.597 -16.055 -25.388  0.00  0.00    +0.000 C 
ENDBRANCH   7  10
BRANCH   5  16
ATOM     16  C   UNL     1      31.448  -9.797 -22.369  0.00  0.00    +0.094 C 
BRANCH  16  17
ATOM     17  C   UNL     1      32.702  -8.988 -22.673  0.00  0.00    -0.014 C 
ATOM     18  C   UNL     1      32.820  -7.682 -22.199  0.00  0.00    -0.001 C 
ATOM     19  C   UNL     1      33.730  -9.553 -23.426  0.00  0.00    -0.001 C 
ATOM     20  C   UNL     1      33.969  -6.940 -22.478  0.00  0.00    +0.036 C 
ATOM     21  C   UNL     1      34.879  -8.811 -23.705  0.00  0.00    +0.036 C 
ATOM     22  C   UNL     1      34.997  -7.505 -23.231  0.00  0.00    +0.134 C 
BRANCH  22  23
ATOM     23  O   UNL     1      36.117  -6.781 -23.503  0.00  0.00    -0.506 OA
ATOM     24  H   UNL     1      36.831  -6.776 -22.897  0.00  0.00    +0.292 HD
ENDBRANCH  22  23
ENDBRANCH  16  17
ENDBRANCH   5  16
TORSDOF 4
ENDMDL
MODEL 7
REMARK VINA RESULT:     -10.3      7.641     11.652
REMARK  Name = 24901696
REMARK  4 active torsions:
REMARK  status: ('A' for Active; 'I' for Inactive)
REMARK    1  A    between atoms: C_5  and  C_16
REMARK    2  A    between atoms: C_7  and  C_10
REMARK    3  A    between atoms: C_16  and  C_17
REMARK    4  A    between atoms: C_22  and  O_23
REMARK                            x       y       z     vdW  Elec       q    Type
REMARK                         _______ _______ _______ _____ _____    ______ ____
ROOT
ATOM      1  N   UNL     1      34.371 -23.539 -14.428  0.00  0.00    -0.195 N 
ATOM      2  N   UNL     1      34.886 -22.905 -15.511  0.00  0.00    -0.163 NA
ATOM      3  N   UNL     1      34.174 -24.386 -12.415  0.00  0.00    -0.131 NA
ATOM      4  N   UNL     1      33.007 -24.644 -13.107  0.00  0.00    -0.127 NA
ATOM      5  C   UNL     1      34.976 -23.724 -13.219  0.00  0.00    +0.168 A 
ATOM      6  C   UNL     1      33.135 -24.131 -14.313  0.00  0.00    +0.186 A 
ATOM      7  C   UNL     1      34.086 -22.884 -16.538  0.00  0.00    +0.101 C 
ATOM      8  C   UNL     1      32.284 -24.078 -15.435  0.00  0.00    +0.042 C 
ATOM      9  C   UNL     1      32.707 -23.472 -16.552  0.00  0.00    +0.024 C 
ENDROOT
BRANCH   7  10
ATOM     10  C   UNL     1      34.538 -22.223 -17.790  0.00  0.00    +0.019 C 
ATOM     11  C   UNL     1      35.900 -22.041 -18.031  0.00  0.00    +0.002 C 
ATOM     12  C   UNL     1      33.600 -21.785 -18.726  0.00  0.00    +0.002 C 
ATOM     13  C   UNL     1      36.324 -21.420 -19.206  0.00  0.00    +0.000 C 
ATOM     14  C   UNL     1      34.024 -21.165 -19.900  0.00  0.00    +0.000 C 
ATOM     15  C   UNL     1      35.387 -20.983 -20.141  0.00  0.00    +0.000 C 
ENDBRANCH   7  10
BRANCH   5  16
ATOM     16  C   UNL     1      36.332 -23.234 -12.914  0.00  0.00    +0.094 C 
BRANCH  16  17
ATOM     17  C   UNL     1      37.452 -24.195 -13.290  0.00  0.00    -0.014 C 
ATOM     18  C   UNL     1      37.854 -25.183 -12.392  0.00  0.00    -0.001 C 
ATOM     19  C   UNL     1      38.077 -24.085 -14.532  0.00  0.00    -0.001 C 
ATOM     20  C   UNL     1      38.881 -26.063 -12.736  0.00  0.00    +0.036 C 
ATOM     21  C   UNL     1      39.104 -24.964 -14.876  0.00  0.00    +0.036 C 
ATOM     22  C   UNL     1      39.505 -25.953 -13.978  0.00  0.00    +0.134 C 
BRANCH  22  23
ATOM     23  O   UNL     1      40.507 -26.811 -14.313  0.00  0.00    -0.506 OA
ATOM     24  H   UNL     1      40.439 -27.331 -15.090  0.00  0.00    +0.292 HD
ENDBRANCH  22  23
ENDBRANCH  16  17
ENDBRANCH   5  16
TORSDOF 4
ENDMDL
MODEL 8
REMARK VINA RESULT:     -10.2      4.911      7.942
REMARK  Name = 24901696
REMARK  4 active torsions:
REMARK  status: ('A' for Active; 'I' for Inactive)
REMARK    1  A    between atoms: C_5  and  C_16
REMARK    2  A    between atoms: C_7  and  C_10
REMARK    3  A    between atoms: C_16  and  C_17
REMARK    4  A    between atoms: C_22  and  O_23
REMARK                            x       y       z     vdW  Elec       q    Type
REMARK                         _______ _______ _______ _____ _____    ______ ____
ROOT
ATOM      1  N   UNL     1      34.427 -22.746 -17.216  0.00  0.00    -0.195 N 
ATOM      2  N   UNL     1      35.477 -23.099 -16.435  0.00  0.00    -0.163 NA
ATOM      3  N   UNL     1      33.259 -22.020 -18.923  0.00  0.00    -0.131 NA
ATOM      4  N   UNL     1      32.379 -22.374 -17.920  0.00  0.00    -0.127 NA
ATOM      5  C   UNL     1      34.476 -22.251 -18.486  0.00  0.00    +0.168 A 
ATOM      6  C   UNL     1      33.089 -22.809 -16.900  0.00  0.00    +0.186 A 
ATOM      7  C   UNL     1      35.134 -23.537 -15.257  0.00  0.00    +0.101 C 
ATOM      8  C   UNL     1      32.747 -23.302 -15.625  0.00  0.00    +0.042 C 
ATOM      9  C   UNL     1      33.719 -23.675 -14.783  0.00  0.00    +0.024 C 
ENDROOT
BRANCH   7  10
ATOM     10  C   UNL     1      36.198 -23.950 -14.304  0.00  0.00    +0.019 C 
ATOM     11  C   UNL     1      36.991 -25.062 -14.582  0.00  0.00    +0.002 C 
ATOM     12  C   UNL     1      36.403 -23.222 -13.131  0.00  0.00    +0.002 C 
ATOM     13  C   UNL     1      37.989 -25.449 -13.688  0.00  0.00    +0.000 C 
ATOM     14  C   UNL     1      37.400 -23.609 -12.237  0.00  0.00    +0.000 C 
ATOM     15  C   UNL     1      38.194 -24.723 -12.515  0.00  0.00    +0.000 C 
ENDBRANCH   7  10
BRANCH   5  16
ATOM     16  C   UNL     1      35.739 -22.025 -19.213  0.00  0.00    +0.094 C 
BRANCH  16  17
ATOM     17  C   UNL     1      35.775 -20.745 -20.037  0.00  0.00    -0.014 C 
ATOM     18  C   UNL     1      36.981 -20.070 -20.223  0.00  0.00    -0.001 C 
ATOM     19  C   UNL     1      34.602 -20.248 -20.604  0.00  0.00    -0.001 C 
ATOM     20  C   UNL     1      37.014 -18.896 -20.977  0.00  0.00    +0.036 C 
ATOM     21  C   UNL     1      34.634 -19.075 -21.358  0.00  0.00    +0.036 C 
ATOM     22  C   UNL     1      35.840 -18.399 -21.544  0.00  0.00    +0.134 C 
BRANCH  22  23
ATOM     23  O   UNL     1      35.873 -17.254 -22.279  0.00  0.00    -0.506 OA
ATOM     24  H   UNL     1      36.295 -16.490 -21.940  0.00  0.00    +0.292 HD
ENDBRANCH  22  23
ENDBRANCH  16  17
ENDBRANCH   5  16
TORSDOF 4
ENDMDL
MODEL 9
REMARK VINA RESULT:     -10.2      3.019      7.566
REMARK  Name = 24901696
REMARK  4 active torsions:
REMARK  status: ('A' for Active; 'I' for Inactive)
REMARK    1  A    between atoms: C_5  and  C_16
REMARK    2  A    between atoms: C_7  and  C_10
REMARK    3  A    between atoms: C_16  and  C_17
REMARK    4  A    between atoms: C_22  and  O_23
REMARK                            x       y       z     vdW  Elec       q    Type
REMARK                         _______ _______ _______ _____ _____    ______ ____
ROOT
ATOM      1  N   UNL     1      34.429 -15.823 -23.489  0.00  0.00    -0.195 N 
ATOM      2  N   UNL     1      34.057 -14.685 -22.852  0.00  0.00    -0.163 NA
ATOM      3  N   UNL     1      35.219 -17.834 -23.858  0.00  0.00    -0.131 NA
ATOM      4  N   UNL     1      34.797 -17.310 -25.063  0.00  0.00    -0.127 NA
ATOM      5  C   UNL     1      34.990 -16.933 -22.929  0.00  0.00    +0.168 A 
ATOM      6  C   UNL     1      34.324 -16.103 -24.832  0.00  0.00    +0.186 A 
ATOM      7  C   UNL     1      33.553 -13.780 -23.642  0.00  0.00    +0.101 C 
ATOM      8  C   UNL     1      33.760 -15.112 -25.660  0.00  0.00    +0.042 C 
ATOM      9  C   UNL     1      33.363 -13.953 -25.118  0.00  0.00    +0.024 C 
ENDROOT
BRANCH   7  10
ATOM     10  C   UNL     1      33.113 -12.483 -23.063  0.00  0.00    +0.019 C 
ATOM     11  C   UNL     1      33.569 -11.284 -23.609  0.00  0.00    +0.002 C 
ATOM     12  C   UNL     1      32.241 -12.467 -21.973  0.00  0.00    +0.002 C 
ATOM     13  C   UNL     1      33.156 -10.068 -23.065  0.00  0.00    +0.000 C 
ATOM     14  C   UNL     1      31.828 -11.251 -21.430  0.00  0.00    +0.000 C 
ATOM     15  C   UNL     1      32.285 -10.051 -21.977  0.00  0.00    +0.000 C 
ENDBRANCH   7  10
BRANCH   5  16
ATOM     16  C   UNL     1      35.276 -17.050 -21.488  0.00  0.00    +0.094 C 
BRANCH  16  17
ATOM     17  C   UNL     1      35.362 -18.481 -20.974  0.00  0.00    -0.014 C 
ATOM     18  C   UNL     1      36.604 -19.046 -20.687  0.00  0.00    -0.001 C 
ATOM     19  C   UNL     1      34.197 -19.226 -20.792  0.00  0.00    -0.001 C 
ATOM     20  C   UNL     1      36.681 -20.358 -20.216  0.00  0.00    +0.036 C 
ATOM     21  C   UNL     1      34.274 -20.537 -20.322  0.00  0.00    +0.036 C 
ATOM     22  C   UNL     1      35.516 -21.102 -20.035  0.00  0.00    +0.134 C 
BRANCH  22  23
ATOM     23  O   UNL     1      35.592 -22.382 -19.576  0.00  0.00    -0.506 OA
ATOM     24  H   UNL     1      35.323 -23.093 -20.123  0.00  0.00    +0.292 HD
ENDBRANCH  22  23
ENDBRANCH  16  17
ENDBRANCH   5  16
TORSDOF 4
ENDMDL
