MODEL 1
REMARK VINA RESULT:     -11.6      0.000      0.000
REMARK  Name = 16755766
REMARK  5 active torsions:
REMARK  status: ('A' for Active; 'I' for Inactive)
REMARK    1  A    between atoms: N_1  and  C_25
REMARK    2  A    between atoms: N_3  and  C_12
REMARK    3  A    between atoms: C_5  and  C_20
REMARK    4  A    between atoms: C_25  and  C_26
REMARK    5  A    between atoms: C_26  and  C_29
REMARK                            x       y       z     vdW  Elec       q    Type
REMARK                         _______ _______ _______ _____ _____    ______ ____
ROOT
ATOM      1  N   UNL     1      32.621 -23.330 -15.802  0.00  0.00    -0.174 N 
ATOM      2  N   UNL     1      33.829 -23.552 -15.281  0.00  0.00    -0.096 NA
ATOM      3  N   UNL     1      34.353 -24.562 -13.171  0.00  0.00    -0.246 N 
ATOM      4  N   UNL     1      32.149 -24.259 -13.898  0.00  0.00    -0.319 NA
ATOM      5  C   UNL     1      31.627 -23.746 -14.989  0.00  0.00    +0.216 C 
ATOM      6  C   UNL     1      33.489 -24.120 -14.121  0.00  0.00    +0.165 C 
ATOM      7  H   UNL     1      33.913 -24.873 -12.347  0.00  0.00    +0.165 HD
ENDROOT
BRANCH   3  12
ATOM      8  F   UNL     1      40.506 -27.024 -14.005  0.00  0.00    -0.125 F 
ATOM      9  F   UNL     1      40.662 -25.239 -15.260  0.00  0.00    -0.125 F 
ATOM     10  O   UNL     1      38.617 -26.148 -14.900  0.00  0.00    -0.395 OA
ATOM     11  O   UNL     1      39.851 -25.027 -13.154  0.00  0.00    -0.395 OA
ATOM     12  C   UNL     1      35.772 -24.662 -13.138  0.00  0.00    +0.061 C 
ATOM     13  C   UNL     1      37.803 -25.473 -14.041  0.00  0.00    +0.183 C 
ATOM     14  C   UNL     1      36.426 -25.405 -14.115  0.00  0.00    +0.056 C 
ATOM     15  C   UNL     1      38.508 -24.834 -13.045  0.00  0.00    +0.182 C 
ATOM     16  C   UNL     1      36.480 -24.008 -12.121  0.00  0.00    +0.019 C 
ATOM     17  C   UNL     1      37.874 -24.092 -12.069  0.00  0.00    +0.042 C 
ATOM     18  C   UNL     1      39.897 -25.854 -14.325  0.00  0.00    +0.589 C 
ENDBRANCH   3  12
BRANCH   5  20
ATOM     19  N   UNL     1      27.500 -23.399 -15.882  0.00  0.00    -0.242 NA
ATOM     20  C   UNL     1      30.221 -23.628 -15.291  0.00  0.00    +0.050 C 
ATOM     21  C   UNL     1      29.507 -22.514 -14.865  0.00  0.00    +0.025 C 
ATOM     22  C   UNL     1      29.577 -24.627 -16.011  0.00  0.00    +0.025 C 
ATOM     23  C   UNL     1      28.160 -22.448 -15.184  0.00  0.00    +0.099 C 
ATOM     24  C   UNL     1      28.227 -24.466 -16.278  0.00  0.00    +0.099 C 
ENDBRANCH   5  20
BRANCH   1  25
ATOM     25  C   UNL     1      32.509 -22.691 -17.108  0.00  0.00    +0.129 C 
BRANCH  25  26
ATOM     26  C   UNL     1      33.826 -22.727 -17.881  0.00  0.00    +0.109 C 
BRANCH  26  29
ATOM     27  O   UNL     1      32.796 -21.391 -19.585  0.00  0.00    -0.275 OA
ATOM     28  N   UNL     1      35.107 -21.264 -19.423  0.00  0.00    -0.276 N 
ATOM     29  C   UNL     1      33.847 -21.737 -19.039  0.00  0.00    +0.228 C 
ATOM     30  C   UNL     1      36.339 -21.687 -18.761  0.00  0.00    +0.115 C 
ATOM     31  C   UNL     1      35.285 -20.314 -20.514  0.00  0.00    +0.115 C 
ENDBRANCH  26  29
ENDBRANCH  25  26
ENDBRANCH   1  25
TORSDOF 5
ENDMDL
MODEL 2
REMARK VINA RESULT:     -10.9      4.275      8.049
REMARK  Name = 16755766
REMARK  5 active torsions:
REMARK  status: ('A' for Active; 'I' for Inactive)
REMARK    1  A    between atoms: N_1  and  C_25
REMARK    2  A    between atoms: N_3  and  C_12
REMARK    3  A    between atoms: C_5  and  C_20
REMARK    4  A    between atoms: C_25  and  C_26
REMARK    5  A    between atoms: C_26  and  C_29
REMARK                            x       y       z     vdW  Elec       q    Type
REMARK                         _______ _______ _______ _____ _____    ______ ____
ROOT
ATOM      1  N   UNL     1      34.641 -23.671 -15.165  0.00  0.00    -0.174 N 
ATOM      2  N   UNL     1      34.559 -22.937 -16.276  0.00  0.00    -0.096 NA
ATOM      3  N   UNL     1      36.360 -22.102 -17.619  0.00  0.00    -0.246 N 
ATOM      4  N   UNL     1      36.726 -23.377 -15.691  0.00  0.00    -0.319 NA
ATOM      5  C   UNL     1      35.919 -23.933 -14.817  0.00  0.00    +0.216 C 
ATOM      6  C   UNL     1      35.855 -22.784 -16.558  0.00  0.00    +0.165 C 
ATOM      7  H   UNL     1      37.341 -22.026 -17.612  0.00  0.00    +0.165 HD
ENDROOT
BRANCH   3  12
ATOM      8  F   UNL     1      35.125 -17.662 -22.455  0.00  0.00    -0.125 F 
ATOM      9  F   UNL     1      35.576 -19.414 -23.685  0.00  0.00    -0.125 F 
ATOM     10  O   UNL     1      36.443 -19.293 -21.593  0.00  0.00    -0.395 OA
ATOM     11  O   UNL     1      34.084 -19.622 -21.991  0.00  0.00    -0.395 OA
ATOM     12  C   UNL     1      35.743 -21.476 -18.738  0.00  0.00    +0.061 C 
ATOM     13  C   UNL     1      35.866 -20.098 -20.657  0.00  0.00    +0.183 C 
ATOM     14  C   UNL     1      36.510 -20.684 -19.586  0.00  0.00    +0.056 C 
ATOM     15  C   UNL     1      34.520 -20.286 -20.885  0.00  0.00    +0.182 C 
ATOM     16  C   UNL     1      34.373 -21.672 -18.961  0.00  0.00    +0.019 C 
ATOM     17  C   UNL     1      33.746 -21.069 -20.054  0.00  0.00    +0.042 C 
ATOM     18  C   UNL     1      35.307 -19.006 -22.420  0.00  0.00    +0.589 C 
ENDBRANCH   3  12
BRANCH   5  20
ATOM     19  N   UNL     1      37.068 -26.180 -11.413  0.00  0.00    -0.242 NA
ATOM     20  C   UNL     1      36.309 -24.699 -13.658  0.00  0.00    +0.050 C 
ATOM     21  C   UNL     1      36.938 -25.930 -13.814  0.00  0.00    +0.025 C 
ATOM     22  C   UNL     1      36.059 -24.209 -12.382  0.00  0.00    +0.025 C 
ATOM     23  C   UNL     1      37.294 -26.625 -12.670  0.00  0.00    +0.099 C 
ATOM     24  C   UNL     1      36.454 -24.981 -11.302  0.00  0.00    +0.099 C 
ENDBRANCH   5  20
BRANCH   1  25
ATOM     25  C   UNL     1      33.419 -24.079 -14.481  0.00  0.00    +0.129 C 
BRANCH  25  26
ATOM     26  C   UNL     1      32.362 -22.975 -14.485  0.00  0.00    +0.109 C 
BRANCH  26  29
ATOM     27  O   UNL     1      31.166 -22.758 -16.551  0.00  0.00    -0.275 OA
ATOM     28  N   UNL     1      30.235 -24.161 -14.956  0.00  0.00    -0.276 N 
ATOM     29  C   UNL     1      31.210 -23.278 -15.433  0.00  0.00    +0.228 C 
ATOM     30  C   UNL     1      30.307 -24.766 -13.628  0.00  0.00    +0.115 C 
ATOM     31  C   UNL     1      29.073 -24.544 -15.749  0.00  0.00    +0.115 C 
ENDBRANCH  26  29
ENDBRANCH  25  26
ENDBRANCH   1  25
TORSDOF 5
ENDMDL
MODEL 3
REMARK VINA RESULT:     -10.3      4.482      8.243
REMARK  Name = 16755766
REMARK  5 active torsions:
REMARK  status: ('A' for Active; 'I' for Inactive)
REMARK    1  A    between atoms: N_1  and  C_25
REMARK    2  A    between atoms: N_3  and  C_12
REMARK    3  A    between atoms: C_5  and  C_20
REMARK    4  A    between atoms: C_25  and  C_26
REMARK    5  A    between atoms: C_26  and  C_29
REMARK                            x       y       z     vdW  Elec       q    Type
REMARK                         _______ _______ _______ _____ _____    ______ ____
ROOT
ATOM      1  N   UNL     1      34.742 -23.727 -14.530  0.00  0.00    -0.174 N 
ATOM      2  N   UNL     1      33.466 -23.789 -14.915  0.00  0.00    -0.096 NA
ATOM      3  N   UNL     1      31.578 -24.509 -13.626  0.00  0.00    -0.246 N 
ATOM      4  N   UNL     1      33.749 -24.482 -12.753  0.00  0.00    -0.319 NA
ATOM      5  C   UNL     1      34.913 -24.135 -13.254  0.00  0.00    +0.216 C 
ATOM      6  C   UNL     1      32.901 -24.254 -13.798  0.00  0.00    +0.165 C 
ATOM      7  H   UNL     1      31.363 -24.930 -12.762  0.00  0.00    +0.165 HD
ENDROOT
BRANCH   3  12
ATOM      8  F   UNL     1      25.757 -22.050 -15.792  0.00  0.00    -0.125 F 
ATOM      9  F   UNL     1      27.065 -21.334 -17.393  0.00  0.00    -0.125 F 
ATOM     10  O   UNL     1      27.960 -21.748 -15.351  0.00  0.00    -0.395 OA
ATOM     11  O   UNL     1      27.168 -23.517 -16.791  0.00  0.00    -0.395 OA
ATOM     12  C   UNL     1      30.443 -24.286 -14.455  0.00  0.00    +0.061 C 
ATOM     13  C   UNL     1      28.711 -22.880 -15.243  0.00  0.00    +0.183 C 
ATOM     14  C   UNL     1      29.807 -23.049 -14.422  0.00  0.00    +0.056 C 
ATOM     15  C   UNL     1      28.258 -23.889 -16.065  0.00  0.00    +0.182 C 
ATOM     16  C   UNL     1      29.990 -25.318 -15.287  0.00  0.00    +0.019 C 
ATOM     17  C   UNL     1      28.878 -25.121 -16.110  0.00  0.00    +0.042 C 
ATOM     18  C   UNL     1      26.998 -22.170 -16.327  0.00  0.00    +0.589 C 
ENDBRANCH   3  12
BRANCH   5  20
ATOM     19  N   UNL     1      38.650 -24.262 -11.262  0.00  0.00    -0.242 NA
ATOM     20  C   UNL     1      36.185 -24.180 -12.575  0.00  0.00    +0.050 C 
ATOM     21  C   UNL     1      36.951 -25.340 -12.602  0.00  0.00    +0.025 C 
ATOM     22  C   UNL     1      36.649 -23.061 -11.892  0.00  0.00    +0.025 C 
ATOM     23  C   UNL     1      38.166 -25.329 -11.936  0.00  0.00    +0.099 C 
ATOM     24  C   UNL     1      37.877 -23.153 -11.257  0.00  0.00    +0.099 C 
ENDBRANCH   5  20
BRANCH   1  25
ATOM     25  C   UNL     1      35.755 -23.264 -15.471  0.00  0.00    +0.129 C 
BRANCH  25  26
ATOM     26  C   UNL     1      35.139 -22.740 -16.768  0.00  0.00    +0.109 C 
BRANCH  26  29
ATOM     27  O   UNL     1      37.325 -21.894 -17.271  0.00  0.00    -0.275 OA
ATOM     28  N   UNL     1      35.681 -21.535 -18.867  0.00  0.00    -0.276 N 
ATOM     29  C   UNL     1      36.156 -22.022 -17.645  0.00  0.00    +0.228 C 
ATOM     30  C   UNL     1      34.292 -21.698 -19.290  0.00  0.00    +0.115 C 
ATOM     31  C   UNL     1      36.536 -20.826 -19.811  0.00  0.00    +0.115 C 
ENDBRANCH  26  29
ENDBRANCH  25  26
ENDBRANCH   1  25
TORSDOF 5
ENDMDL
MODEL 4
REMARK VINA RESULT:     -10.1      3.904      7.210
REMARK  Name = 16755766
REMARK  5 active torsions:
REMARK  status: ('A' for Active; 'I' for Inactive)
REMARK    1  A    between atoms: N_1  and  C_25
REMARK    2  A    between atoms: N_3  and  C_12
REMARK    3  A    between atoms: C_5  and  C_20
REMARK    4  A    between atoms: C_25  and  C_26
REMARK    5  A    between atoms: C_26  and  C_29
REMARK                            x       y       z     vdW  Elec       q    Type
REMARK                         _______ _______ _______ _____ _____    ______ ____
ROOT
ATOM      1  N   UNL     1      33.550 -23.283 -15.806  0.00  0.00    -0.174 N 
ATOM      2  N   UNL     1      34.114 -22.645 -16.833  0.00  0.00    -0.096 NA
ATOM      3  N   UNL     1      33.054 -21.870 -18.839  0.00  0.00    -0.246 N 
ATOM      4  N   UNL     1      31.874 -22.981 -17.151  0.00  0.00    -0.319 NA
ATOM      5  C   UNL     1      32.228 -23.484 -15.991  0.00  0.00    +0.216 C 
ATOM      6  C   UNL     1      33.052 -22.483 -17.626  0.00  0.00    +0.165 C 
ATOM      7  H   UNL     1      32.193 -21.924 -19.313  0.00  0.00    +0.165 HD
ENDROOT
BRANCH   3  12
ATOM      8  F   UNL     1      36.099 -18.493 -23.732  0.00  0.00    -0.125 F 
ATOM      9  F   UNL     1      36.161 -16.975 -22.158  0.00  0.00    -0.125 F 
ATOM     10  O   UNL     1      34.544 -18.563 -22.084  0.00  0.00    -0.395 OA
ATOM     11  O   UNL     1      36.869 -19.074 -21.680  0.00  0.00    -0.395 OA
ATOM     12  C   UNL     1      34.063 -21.167 -19.556  0.00  0.00    +0.061 C 
ATOM     13  C   UNL     1      34.706 -19.541 -21.149  0.00  0.00    +0.183 C 
ATOM     14  C   UNL     1      33.692 -20.194 -20.478  0.00  0.00    +0.056 C 
ATOM     15  C   UNL     1      36.033 -19.832 -20.919  0.00  0.00    +0.182 C 
ATOM     16  C   UNL     1      35.410 -21.471 -19.315  0.00  0.00    +0.019 C 
ATOM     17  C   UNL     1      36.417 -20.793 -20.007  0.00  0.00    +0.042 C 
ATOM     18  C   UNL     1      35.915 -18.286 -22.404  0.00  0.00    +0.589 C 
ENDBRANCH   3  12
BRANCH   5  20
ATOM     19  N   UNL     1      29.687 -25.446 -13.225  0.00  0.00    -0.242 NA
ATOM     20  C   UNL     1      31.364 -24.153 -15.048  0.00  0.00    +0.050 C 
ATOM     21  C   UNL     1      31.628 -24.081 -13.685  0.00  0.00    +0.025 C 
ATOM     22  C   UNL     1      30.263 -24.871 -15.501  0.00  0.00    +0.025 C 
ATOM     23  C   UNL     1      30.766 -24.739 -12.823  0.00  0.00    +0.099 C 
ATOM     24  C   UNL     1      29.463 -25.494 -14.557  0.00  0.00    +0.099 C 
ENDBRANCH   5  20
BRANCH   1  25
ATOM     25  C   UNL     1      34.372 -23.683 -14.670  0.00  0.00    +0.129 C 
BRANCH  25  26
ATOM     26  C   UNL     1      35.309 -24.840 -15.016  0.00  0.00    +0.109 C 
BRANCH  26  29
ATOM     27  O   UNL     1      37.148 -23.303 -15.005  0.00  0.00    -0.275 OA
ATOM     28  N   UNL     1      37.642 -25.515 -14.514  0.00  0.00    -0.276 N 
ATOM     29  C   UNL     1      36.776 -24.469 -14.848  0.00  0.00    +0.228 C 
ATOM     30  C   UNL     1      37.180 -26.889 -14.334  0.00  0.00    +0.115 C 
ATOM     31  C   UNL     1      39.073 -25.314 -14.323  0.00  0.00    +0.115 C 
ENDBRANCH  26  29
ENDBRANCH  25  26
ENDBRANCH   1  25
TORSDOF 5
ENDMDL
MODEL 5
REMARK VINA RESULT:      -9.8      6.566     10.737
REMARK  Name = 16755766
REMARK  5 active torsions:
REMARK  status: ('A' for Active; 'I' for Inactive)
REMARK    1  A    between atoms: N_1  and  C_25
REMARK    2  A    between atoms: N_3  and  C_12
REMARK    3  A    between atoms: C_5  and  C_20
REMARK    4  A    between atoms: C_25  and  C_26
REMARK    5  A    between atoms: C_26  and  C_29
REMARK                            x       y       z     vdW  Elec       q    Type
REMARK                         _______ _______ _______ _____ _____    ______ ____
ROOT
ATOM      1  N   UNL     1      34.244 -15.379 -21.565  0.00  0.00    -0.174 N 
ATOM      2  N   UNL     1      34.383 -16.589 -21.022  0.00  0.00    -0.096 NA
ATOM      3  N   UNL     1      34.728 -18.674 -22.154  0.00  0.00    -0.246 N 
ATOM      4  N   UNL     1      34.504 -16.649 -23.306  0.00  0.00    -0.319 NA
ATOM      5  C   UNL     1      34.316 -15.410 -22.914  0.00  0.00    +0.216 C 
ATOM      6  C   UNL     1      34.539 -17.329 -22.123  0.00  0.00    +0.165 C 
ATOM      7  H   UNL     1      34.736 -19.053 -23.062  0.00  0.00    +0.165 HD
ENDROOT
BRANCH   3  12
ATOM      8  F   UNL     1      33.525 -22.461 -16.784  0.00  0.00    -0.125 F 
ATOM      9  F   UNL     1      33.723 -24.032 -18.292  0.00  0.00    -0.125 F 
ATOM     10  O   UNL     1      33.096 -21.956 -18.952  0.00  0.00    -0.395 OA
ATOM     11  O   UNL     1      35.326 -22.436 -18.162  0.00  0.00    -0.395 OA
ATOM     12  C   UNL     1      34.917 -19.639 -21.125  0.00  0.00    +0.061 C 
ATOM     13  C   UNL     1      34.044 -21.218 -19.595  0.00  0.00    +0.183 C 
ATOM     14  C   UNL     1      33.810 -20.292 -20.591  0.00  0.00    +0.056 C 
ATOM     15  C   UNL     1      35.316 -21.493 -19.144  0.00  0.00    +0.182 C 
ATOM     16  C   UNL     1      36.215 -19.911 -20.672  0.00  0.00    +0.019 C 
ATOM     17  C   UNL     1      36.423 -20.855 -19.664  0.00  0.00    +0.042 C 
ATOM     18  C   UNL     1      33.922 -22.712 -18.057  0.00  0.00    +0.589 C 
ENDBRANCH   3  12
BRANCH   5  20
ATOM     19  N   UNL     1      33.955 -12.006 -25.411  0.00  0.00    -0.242 NA
ATOM     20  C   UNL     1      34.194 -14.252 -23.765  0.00  0.00    +0.050 C 
ATOM     21  C   UNL     1      33.651 -14.376 -25.039  0.00  0.00    +0.025 C 
ATOM     22  C   UNL     1      34.617 -13.007 -23.313  0.00  0.00    +0.025 C 
ATOM     23  C   UNL     1      33.555 -13.232 -25.816  0.00  0.00    +0.099 C 
ATOM     24  C   UNL     1      34.477 -11.925 -24.167  0.00  0.00    +0.099 C 
ENDBRANCH   5  20
BRANCH   1  25
ATOM     25  C   UNL     1      34.033 -14.223 -20.702  0.00  0.00    +0.129 C 
BRANCH  25  26
ATOM     26  C   UNL     1      32.555 -14.016 -20.369  0.00  0.00    +0.109 C 
BRANCH  26  29
ATOM     27  O   UNL     1      31.749 -13.024 -22.397  0.00  0.00    -0.275 OA
ATOM     28  N   UNL     1      31.583 -11.737 -20.475  0.00  0.00    -0.276 N 
ATOM     29  C   UNL     1      31.929 -12.892 -21.183  0.00  0.00    +0.228 C 
ATOM     30  C   UNL     1      31.805 -11.602 -19.037  0.00  0.00    +0.115 C 
ATOM     31  C   UNL     1      30.976 -10.578 -21.119  0.00  0.00    +0.115 C 
ENDBRANCH  26  29
ENDBRANCH  25  26
ENDBRANCH   1  25
TORSDOF 5
ENDMDL
MODEL 6
REMARK VINA RESULT:      -9.6      2.791      5.927
REMARK  Name = 16755766
REMARK  5 active torsions:
REMARK  status: ('A' for Active; 'I' for Inactive)
REMARK    1  A    between atoms: N_1  and  C_25
REMARK    2  A    between atoms: N_3  and  C_12
REMARK    3  A    between atoms: C_5  and  C_20
REMARK    4  A    between atoms: C_25  and  C_26
REMARK    5  A    between atoms: C_26  and  C_29
REMARK                            x       y       z     vdW  Elec       q    Type
REMARK                         _______ _______ _______ _____ _____    ______ ____
ROOT
ATOM      1  N   UNL     1      35.117 -22.041 -18.043  0.00  0.00    -0.174 N 
ATOM      2  N   UNL     1      35.560 -22.644 -16.938  0.00  0.00    -0.096 NA
ATOM      3  N   UNL     1      37.755 -22.522 -15.981  0.00  0.00    -0.246 N 
ATOM      4  N   UNL     1      37.182 -21.382 -17.943  0.00  0.00    -0.319 NA
ATOM      5  C   UNL     1      36.071 -21.295 -18.639  0.00  0.00    +0.216 C 
ATOM      6  C   UNL     1      36.823 -22.211 -16.920  0.00  0.00    +0.165 C 
ATOM      7  H   UNL     1      38.654 -22.176 -16.184  0.00  0.00    +0.165 HD
ENDROOT
BRANCH   3  12
ATOM      8  F   UNL     1      36.644 -23.916  -9.544  0.00  0.00    -0.125 F 
ATOM      9  F   UNL     1      35.224 -25.305 -10.460  0.00  0.00    -0.125 F 
ATOM     10  O   UNL     1      35.831 -23.446 -11.607  0.00  0.00    -0.395 OA
ATOM     11  O   UNL     1      37.362 -25.271 -11.214  0.00  0.00    -0.395 OA
ATOM     12  C   UNL     1      37.680 -23.251 -14.762  0.00  0.00    +0.061 C 
ATOM     13  C   UNL     1      36.691 -23.636 -12.647  0.00  0.00    +0.183 C 
ATOM     14  C   UNL     1      36.723 -22.900 -13.814  0.00  0.00    +0.056 C 
ATOM     15  C   UNL     1      37.563 -24.678 -12.422  0.00  0.00    +0.182 C 
ATOM     16  C   UNL     1      38.572 -24.309 -14.542  0.00  0.00    +0.019 C 
ATOM     17  C   UNL     1      38.516 -25.039 -13.352  0.00  0.00    +0.042 C 
ATOM     18  C   UNL     1      36.271 -24.483 -10.719  0.00  0.00    +0.589 C 
ENDBRANCH   3  12
BRANCH   5  20
ATOM     19  N   UNL     1      35.503 -19.067 -22.197  0.00  0.00    -0.242 NA
ATOM     20  C   UNL     1      35.877 -20.538 -19.851  0.00  0.00    +0.050 C 
ATOM     21  C   UNL     1      34.634 -20.524 -20.475  0.00  0.00    +0.025 C 
ATOM     22  C   UNL     1      36.933 -19.818 -20.399  0.00  0.00    +0.025 C 
ATOM     23  C   UNL     1      34.501 -19.779 -21.635  0.00  0.00    +0.099 C 
ATOM     24  C   UNL     1      36.696 -19.105 -21.564  0.00  0.00    +0.099 C 
ENDBRANCH   5  20
BRANCH   1  25
ATOM     25  C   UNL     1      33.738 -22.248 -18.470  0.00  0.00    +0.129 C 
BRANCH  25  26
ATOM     26  C   UNL     1      33.054 -23.368 -17.686  0.00  0.00    +0.109 C 
BRANCH  26  29
ATOM     27  O   UNL     1      31.055 -22.179 -17.107  0.00  0.00    -0.275 OA
ATOM     28  N   UNL     1      32.227 -23.151 -15.357  0.00  0.00    -0.276 N 
ATOM     29  C   UNL     1      32.016 -22.841 -16.704  0.00  0.00    +0.228 C 
ATOM     30  C   UNL     1      33.373 -23.936 -14.903  0.00  0.00    +0.115 C 
ATOM     31  C   UNL     1      31.320 -22.714 -14.303  0.00  0.00    +0.115 C 
ENDBRANCH  26  29
ENDBRANCH  25  26
ENDBRANCH   1  25
TORSDOF 5
ENDMDL
