MODEL 1
REMARK VINA RESULT:     -13.0      0.000      0.000
REMARK  Name = 76958312
REMARK  3 active torsions:
REMARK  status: ('A' for Active; 'I' for Inactive)
REMARK    1  A    between atoms: C_16  and  C_21
REMARK    2  A    between atoms: C_26  and  N_28
REMARK    3  A    between atoms: N_29  and  C_34
REMARK                            x       y       z     vdW  Elec       q    Type
REMARK                         _______ _______ _______ _____ _____    ______ ____
ROOT
ATOM      1  O   UNL     1      31.556 -22.858 -12.671  0.00  0.00    -0.350 OA
ATOM      2  O   UNL     1      39.489 -25.074 -12.989  0.00  0.00    -0.350 OA
ATOM      3  N   UNL     1      32.548 -24.390 -14.834  0.00  0.00    -0.231 N 
ATOM      4  N   UNL     1      34.840 -24.462 -14.609  0.00  0.00    -0.246 NA
ATOM      5  N   UNL     1      33.797 -23.263 -16.407  0.00  0.00    -0.260 NA
ATOM      6  N   UNL     1      37.169 -24.479 -14.460  0.00  0.00    -0.228 N 
ATOM      7  N   UNL     1      36.189 -23.303 -16.220  0.00  0.00    -0.260 NA
ATOM      8  C   UNL     1      32.366 -25.015 -13.523  0.00  0.00    +0.114 C 
ATOM      9  C   UNL     1      31.362 -23.553 -15.019  0.00  0.00    +0.114 C 
ATOM     10  C   UNL     1      30.900 -25.476 -13.599  0.00  0.00    +0.025 C 
ATOM     11  C   UNL     1      30.236 -24.509 -14.588  0.00  0.00    +0.025 C 
ATOM     12  C   UNL     1      31.499 -22.383 -14.026  0.00  0.00    +0.163 C 
ATOM     13  C   UNL     1      32.536 -23.893 -12.483  0.00  0.00    +0.163 C 
ATOM     14  C   UNL     1      33.776 -24.025 -15.302  0.00  0.00    +0.224 C 
ATOM     15  C   UNL     1      36.013 -24.062 -15.126  0.00  0.00    +0.224 C 
ATOM     16  C   UNL     1      35.037 -22.940 -16.808  0.00  0.00    +0.163 C 
ATOM     17  C   UNL     1      38.488 -24.083 -14.964  0.00  0.00    +0.135 C 
ATOM     18  C   UNL     1      37.094 -24.696 -13.008  0.00  0.00    +0.135 C 
ATOM     19  C   UNL     1      38.234 -25.603 -12.563  0.00  0.00    +0.164 C 
ATOM     20  C   UNL     1      39.555 -25.023 -14.413  0.00  0.00    +0.164 C 
ENDROOT
BRANCH  16  21
ATOM     21  C   UNL     1      35.145 -22.123 -17.988  0.00  0.00    +0.087 C 
ATOM     22  C   UNL     1      36.394 -21.665 -18.407  0.00  0.00    +0.013 C 
ATOM     23  C   UNL     1      34.000 -21.790 -18.711  0.00  0.00    +0.013 C 
ATOM     24  C   UNL     1      36.497 -20.873 -19.551  0.00  0.00    +0.015 C 
ATOM     25  C   UNL     1      34.104 -20.998 -19.855  0.00  0.00    +0.015 C 
ATOM     26  C   UNL     1      35.353 -20.539 -20.275  0.00  0.00    +0.052 C 
BRANCH  26  28
ATOM     27  O   UNL     1      34.266 -17.815 -20.838  0.00  0.00    -0.252 OA
ATOM     28  N   UNL     1      35.456 -19.747 -21.419  0.00  0.00    -0.268 N 
ATOM     29  N   UNL     1      35.266 -18.021 -22.942  0.00  0.00    -0.268 N 
ATOM     30  C   UNL     1      34.926 -18.455 -21.651  0.00  0.00    +0.308 C 
ATOM     31  H   UNL     1      35.966 -20.140 -22.165  0.00  0.00    +0.156 HD
ATOM     32  H   UNL     1      35.802 -18.647 -23.480  0.00  0.00    +0.156 HD
BRANCH  29  34
ATOM     33  N   UNL     1      34.278 -14.371 -24.791  0.00  0.00    -0.242 NA
ATOM     34  C   UNL     1      34.934 -16.794 -23.564  0.00  0.00    +0.055 C 
ATOM     35  C   UNL     1      34.939 -15.615 -22.827  0.00  0.00    +0.035 C 
ATOM     36  C   UNL     1      34.602 -16.763 -24.913  0.00  0.00    +0.035 C 
ATOM     37  C   UNL     1      34.606 -14.441 -23.481  0.00  0.00    +0.100 C 
ATOM     38  C   UNL     1      34.284 -15.536 -25.474  0.00  0.00    +0.100 C 
ENDBRANCH  29  34
ENDBRANCH  26  28
ENDBRANCH  16  21
TORSDOF 3
ENDMDL
MODEL 2
REMARK VINA RESULT:     -12.5      1.017      4.556
REMARK  Name = 76958312
REMARK  3 active torsions:
REMARK  status: ('A' for Active; 'I' for Inactive)
REMARK    1  A    between atoms: C_16  and  C_21
REMARK    2  A    between atoms: C_26  and  N_28
REMARK    3  A    between atoms: N_29  and  C_34
REMARK                            x       y       z     vdW  Elec       q    Type
REMARK                         _______ _______ _______ _____ _____    ______ ____
ROOT
ATOM      1  O   UNL     1      37.858 -27.242 -14.347  0.00  0.00    -0.350 OA
ATOM      2  O   UNL     1      29.982 -25.005 -13.388  0.00  0.00    -0.350 OA
ATOM      3  N   UNL     1      37.163 -24.533 -13.909  0.00  0.00    -0.231 N 
ATOM      4  N   UNL     1      34.865 -24.403 -14.028  0.00  0.00    -0.246 NA
ATOM      5  N   UNL     1      36.262 -23.399 -15.701  0.00  0.00    -0.260 NA
ATOM      6  N   UNL     1      32.547 -24.222 -14.230  0.00  0.00    -0.228 N 
ATOM      7  N   UNL     1      33.875 -23.234 -15.875  0.00  0.00    -0.260 NA
ATOM      8  C   UNL     1      37.085 -25.491 -12.805  0.00  0.00    +0.114 C 
ATOM      9  C   UNL     1      38.408 -24.861 -14.605  0.00  0.00    +0.114 C 
ATOM     10  C   UNL     1      38.516 -25.431 -12.241  0.00  0.00    +0.025 C 
ATOM     11  C   UNL     1      39.390 -25.014 -13.430  0.00  0.00    +0.025 C 
ATOM     12  C   UNL     1      38.170 -26.214 -15.302  0.00  0.00    +0.163 C 
ATOM     13  C   UNL     1      36.805 -26.864 -13.444  0.00  0.00    +0.163 C 
ATOM     14  C   UNL     1      36.054 -24.094 -14.572  0.00  0.00    +0.224 C 
ATOM     15  C   UNL     1      33.821 -23.941 -14.734  0.00  0.00    +0.224 C 
ATOM     16  C   UNL     1      35.128 -23.002 -16.299  0.00  0.00    +0.163 C 
ATOM     17  C   UNL     1      31.357 -23.751 -14.945  0.00  0.00    +0.135 C 
ATOM     18  C   UNL     1      32.364 -25.459 -13.457  0.00  0.00    +0.135 C 
ATOM     19  C   UNL     1      31.116 -25.343 -12.590  0.00  0.00    +0.164 C 
ATOM     20  C   UNL     1      30.161 -23.727 -13.998  0.00  0.00    +0.164 C 
ENDROOT
BRANCH  16  21
ATOM     21  C   UNL     1      35.267 -22.250 -17.518  0.00  0.00    +0.087 C 
ATOM     22  C   UNL     1      36.511 -21.734 -17.881  0.00  0.00    +0.013 C 
ATOM     23  C   UNL     1      34.157 -22.038 -18.337  0.00  0.00    +0.013 C 
ATOM     24  C   UNL     1      36.645 -21.005 -19.064  0.00  0.00    +0.015 C 
ATOM     25  C   UNL     1      34.292 -21.309 -19.518  0.00  0.00    +0.015 C 
ATOM     26  C   UNL     1      35.536 -20.793 -19.882  0.00  0.00    +0.052 C 
BRANCH  26  28
ATOM     27  O   UNL     1      34.368 -18.158 -20.665  0.00  0.00    -0.252 OA
ATOM     28  N   UNL     1      35.670 -20.064 -21.064  0.00  0.00    -0.268 N 
ATOM     29  N   UNL     1      35.493 -18.439 -22.696  0.00  0.00    -0.268 N 
ATOM     30  C   UNL     1      35.099 -18.813 -21.401  0.00  0.00    +0.308 C 
ATOM     31  H   UNL     1      36.237 -20.475 -21.757  0.00  0.00    +0.156 HD
ATOM     32  H   UNL     1      36.084 -19.070 -23.166  0.00  0.00    +0.156 HD
BRANCH  29  34
ATOM     33  N   UNL     1      34.457 -14.950 -24.811  0.00  0.00    -0.242 NA
ATOM     34  C   UNL     1      35.145 -17.266 -23.407  0.00  0.00    +0.055 C 
ATOM     35  C   UNL     1      35.126 -16.037 -22.758  0.00  0.00    +0.035 C 
ATOM     36  C   UNL     1      34.821 -17.339 -24.757  0.00  0.00    +0.035 C 
ATOM     37  C   UNL     1      34.778 -14.919 -23.498  0.00  0.00    +0.100 C 
ATOM     38  C   UNL     1      34.488 -16.162 -25.408  0.00  0.00    +0.100 C 
ENDBRANCH  29  34
ENDBRANCH  26  28
ENDBRANCH  16  21
TORSDOF 3
ENDMDL
