MODEL 1
REMARK VINA RESULT:     -12.3      0.000      0.000
REMARK  Name = 25243853
REMARK  6 active torsions:
REMARK  status: ('A' for Active; 'I' for Inactive)
REMARK    1  A    between atoms: N_1  and  C_6
REMARK    2  A    between atoms: N_1  and  C_21
REMARK    3  A    between atoms: C_3  and  C_16
REMARK    4  A    between atoms: C_11  and  C_18
REMARK    5  A    between atoms: C_18  and  O_19
REMARK    6  A    between atoms: C_21  and  C_28
REMARK                            x       y       z     vdW  Elec       q    Type
REMARK                         _______ _______ _______ _____ _____    ______ ____
ROOT
ATOM      1  N   UNL     1      35.307 -19.427 -21.643  0.00  0.00    -0.327 N 
ATOM      2  H   UNL     1      35.421 -19.804 -22.545  0.00  0.00    +0.147 HD
ENDROOT
BRANCH   1   6
ATOM      3  C   UNL     1      34.293 -22.020 -18.498  0.00  0.00    +0.054 C 
ATOM      4  C   UNL     1      33.293 -21.325 -19.179  0.00  0.00    +0.006 C 
ATOM      5  C   UNL     1      35.629 -21.853 -18.862  0.00  0.00    +0.006 C 
ATOM      6  C   UNL     1      34.966 -20.298 -20.587  0.00  0.00    +0.045 C 
ATOM      7  C   UNL     1      33.630 -20.465 -20.224  0.00  0.00    +0.014 C 
ATOM      8  C   UNL     1      35.966 -20.993 -19.906  0.00  0.00    +0.014 C 
BRANCH   3  16
ATOM      9  O   UNL     1      32.772 -23.312 -17.368  0.00  0.00    -0.270 OA
ATOM     10  N   UNL     1      34.938 -23.277 -16.487  0.00  0.00    -0.276 N 
ATOM     11  C   UNL     1      36.345 -22.918 -13.971  0.00  0.00    +0.102 C 
ATOM     12  C   UNL     1      34.919 -23.475 -14.034  0.00  0.00    +0.033 C 
ATOM     13  C   UNL     1      36.701 -22.106 -15.220  0.00  0.00    +0.033 C 
ATOM     14  C   UNL     1      34.617 -24.158 -15.367  0.00  0.00    +0.094 C 
ATOM     15  C   UNL     1      36.330 -22.814 -16.524  0.00  0.00    +0.094 C 
ATOM     16  C   UNL     1      33.939 -22.926 -17.398  0.00  0.00    +0.249 C 
BRANCH  11  18
ATOM     17  O   UNL     1      38.425 -24.093 -14.290  0.00  0.00    -0.250 OA
ATOM     18  C   UNL     1      37.329 -24.031 -13.749  0.00  0.00    +0.317 C 
BRANCH  18  19
ATOM     19  O   UNL     1      36.807 -24.932 -12.870  0.00  0.00    -0.444 OA
ATOM     20  C   UNL     1      37.241 -26.284 -13.045  0.00  0.00    +0.256 C 
ENDBRANCH  18  19
ENDBRANCH  11  18
ENDBRANCH   3  16
ENDBRANCH   1   6
BRANCH   1  21
ATOM     21  C   UNL     1      35.496 -18.022 -21.460  0.00  0.00    +0.145 C 
BRANCH  21  28
ATOM     22  N   UNL     1      34.699 -15.991 -22.549  0.00  0.00    -0.392 NA
ATOM     23  N   UNL     1      34.723 -17.207 -25.035  0.00  0.00    -0.200 NA
ATOM     24  N   UNL     1      33.966 -15.251 -26.016  0.00  0.00    -0.271 NA
ATOM     25  N   UNL     1      33.538 -13.295 -24.696  0.00  0.00    -0.310 NA
ATOM     26  N   UNL     1      33.893 -13.361 -22.361  0.00  0.00    -0.329 N 
ATOM     27  N   UNL     1      33.197 -13.270 -27.012  0.00  0.00    -0.283 N 
ATOM     28  C   UNL     1      35.081 -17.269 -22.693  0.00  0.00    +0.133 C 
ATOM     29  C   UNL     1      35.094 -17.869 -23.923  0.00  0.00    +0.193 C 
ATOM     30  C   UNL     1      34.329 -15.329 -23.663  0.00  0.00    +0.248 C 
ATOM     31  C   UNL     1      34.337 -15.930 -24.924  0.00  0.00    +0.131 C 
ATOM     32  C   UNL     1      33.920 -14.011 -23.623  0.00  0.00    +0.231 C 
ATOM     33  C   UNL     1      33.585 -13.970 -25.850  0.00  0.00    +0.207 C 
ATOM     34  H   UNL     1      33.606 -12.422 -22.297  0.00  0.00    +0.145 HD
ATOM     35  H   UNL     1      34.162 -13.849 -21.550  0.00  0.00    +0.145 HD
ATOM     36  H   UNL     1      33.213 -13.722 -27.887  0.00  0.00    +0.156 HD
ATOM     37  H   UNL     1      32.909 -12.331 -26.949  0.00  0.00    +0.156 HD
ENDBRANCH  21  28
ENDBRANCH   1  21
TORSDOF 6
ENDMDL
MODEL 2
REMARK VINA RESULT:     -12.1      0.942      1.898
REMARK  Name = 25243853
REMARK  6 active torsions:
REMARK  status: ('A' for Active; 'I' for Inactive)
REMARK    1  A    between atoms: N_1  and  C_6
REMARK    2  A    between atoms: N_1  and  C_21
REMARK    3  A    between atoms: C_3  and  C_16
REMARK    4  A    between atoms: C_11  and  C_18
REMARK    5  A    between atoms: C_18  and  O_19
REMARK    6  A    between atoms: C_21  and  C_28
REMARK                            x       y       z     vdW  Elec       q    Type
REMARK                         _______ _______ _______ _____ _____    ______ ____
ROOT
ATOM      1  N   UNL     1      35.845 -19.175 -21.827  0.00  0.00    -0.327 N 
ATOM      2  H   UNL     1      36.782 -18.885 -21.752  0.00  0.00    +0.147 HD
ENDROOT
BRANCH   1   6
ATOM      3  C   UNL     1      34.294 -21.722 -18.868  0.00  0.00    +0.054 C 
ATOM      4  C   UNL     1      33.431 -20.940 -19.637  0.00  0.00    +0.006 C 
ATOM      5  C   UNL     1      35.670 -21.658 -19.082  0.00  0.00    +0.006 C 
ATOM      6  C   UNL     1      35.323 -20.031 -20.833  0.00  0.00    +0.045 C 
ATOM      7  C   UNL     1      33.947 -20.095 -20.620  0.00  0.00    +0.014 C 
ATOM      8  C   UNL     1      36.186 -20.813 -20.064  0.00  0.00    +0.014 C 
BRANCH   3  16
ATOM      9  O   UNL     1      32.551 -22.867 -17.912  0.00  0.00    -0.270 OA
ATOM     10  N   UNL     1      34.627 -23.096 -16.857  0.00  0.00    -0.276 N 
ATOM     11  C   UNL     1      35.847 -22.962 -14.225  0.00  0.00    +0.102 C 
ATOM     12  C   UNL     1      34.379 -23.355 -14.423  0.00  0.00    +0.033 C 
ATOM     13  C   UNL     1      36.393 -22.162 -15.411  0.00  0.00    +0.033 C 
ATOM     14  C   UNL     1      34.119 -23.964 -15.799  0.00  0.00    +0.094 C 
ATOM     15  C   UNL     1      36.059 -22.789 -16.765  0.00  0.00    +0.094 C 
ATOM     16  C   UNL     1      33.752 -22.611 -17.833  0.00  0.00    +0.249 C 
BRANCH  11  18
ATOM     17  O   UNL     1      36.224 -25.263 -13.617  0.00  0.00    -0.250 OA
ATOM     18  C   UNL     1      36.682 -24.183 -13.964  0.00  0.00    +0.317 C 
BRANCH  18  19
ATOM     19  O   UNL     1      37.996 -23.889 -14.174  0.00  0.00    -0.444 OA
ATOM     20  C   UNL     1      38.859 -25.019 -14.343  0.00  0.00    +0.256 C 
ENDBRANCH  18  19
ENDBRANCH  11  18
ENDBRANCH   3  16
ENDBRANCH   1   6
BRANCH   1  21
ATOM     21  C   UNL     1      35.071 -18.711 -22.935  0.00  0.00    +0.145 C 
BRANCH  21  28
ATOM     22  N   UNL     1      34.454 -16.580 -23.948  0.00  0.00    -0.392 NA
ATOM     23  N   UNL     1      34.870 -15.227 -21.569  0.00  0.00    -0.200 NA
ATOM     24  N   UNL     1      34.275 -13.233 -22.582  0.00  0.00    -0.271 NA
ATOM     25  N   UNL     1      33.646 -13.164 -24.896  0.00  0.00    -0.310 NA
ATOM     26  N   UNL     1      33.635 -15.158 -26.162  0.00  0.00    -0.329 N 
ATOM     27  N   UNL     1      33.673 -11.209 -23.608  0.00  0.00    -0.283 N 
ATOM     28  C   UNL     1      34.854 -17.226 -22.842  0.00  0.00    +0.133 C 
ATOM     29  C   UNL     1      35.059 -16.557 -21.666  0.00  0.00    +0.193 C 
ATOM     30  C   UNL     1      34.265 -15.250 -23.849  0.00  0.00    +0.248 C 
ATOM     31  C   UNL     1      34.470 -14.554 -22.655  0.00  0.00    +0.131 C 
ATOM     32  C   UNL     1      33.853 -14.493 -24.928  0.00  0.00    +0.231 C 
ATOM     33  C   UNL     1      33.873 -12.602 -23.703  0.00  0.00    +0.207 C 
ATOM     34  H   UNL     1      33.342 -14.648 -26.952  0.00  0.00    +0.145 HD
ATOM     35  H   UNL     1      33.777 -16.130 -26.230  0.00  0.00    +0.145 HD
ATOM     36  H   UNL     1      33.826 -10.747 -22.752  0.00  0.00    +0.156 HD
ATOM     37  H   UNL     1      33.379 -10.698 -24.397  0.00  0.00    +0.156 HD
ENDBRANCH  21  28
ENDBRANCH   1  21
TORSDOF 6
ENDMDL
MODEL 3
REMARK VINA RESULT:     -12.0      4.114     11.357
REMARK  Name = 25243853
REMARK  6 active torsions:
REMARK  status: ('A' for Active; 'I' for Inactive)
REMARK    1  A    between atoms: N_1  and  C_6
REMARK    2  A    between atoms: N_1  and  C_21
REMARK    3  A    between atoms: C_3  and  C_16
REMARK    4  A    between atoms: C_11  and  C_18
REMARK    5  A    between atoms: C_18  and  O_19
REMARK    6  A    between atoms: C_21  and  C_28
REMARK                            x       y       z     vdW  Elec       q    Type
REMARK                         _______ _______ _______ _____ _____    ______ ____
ROOT
ATOM      1  N   UNL     1      36.512 -21.321 -19.101  0.00  0.00    -0.327 N 
ATOM      2  H   UNL     1      37.466 -21.537 -18.990  0.00  0.00    +0.147 HD
ENDROOT
BRANCH   1   6
ATOM      3  C   UNL     1      35.430 -18.419 -21.939  0.00  0.00    +0.054 C 
ATOM      4  C   UNL     1      36.728 -18.445 -21.428  0.00  0.00    +0.006 C 
ATOM      5  C   UNL     1      34.492 -19.357 -21.508  0.00  0.00    +0.006 C 
ATOM      6  C   UNL     1      36.149 -20.346 -20.055  0.00  0.00    +0.045 C 
ATOM      7  C   UNL     1      37.087 -19.409 -20.486  0.00  0.00    +0.014 C 
ATOM      8  C   UNL     1      34.851 -20.320 -20.566  0.00  0.00    +0.014 C 
BRANCH   3  16
ATOM      9  O   UNL     1      35.392 -17.627 -24.091  0.00  0.00    -0.270 OA
ATOM     10  N   UNL     1      34.341 -16.285 -22.489  0.00  0.00    -0.276 N 
ATOM     11  C   UNL     1      34.220 -13.529 -21.583  0.00  0.00    +0.102 C 
ATOM     12  C   UNL     1      34.552 -13.895 -23.033  0.00  0.00    +0.033 C 
ATOM     13  C   UNL     1      34.499 -14.685 -20.618  0.00  0.00    +0.033 C 
ATOM     14  C   UNL     1      33.967 -15.244 -23.443  0.00  0.00    +0.094 C 
ATOM     15  C   UNL     1      33.935 -16.022 -21.103  0.00  0.00    +0.094 C 
ATOM     16  C   UNL     1      35.051 -17.405 -22.930  0.00  0.00    +0.249 C 
BRANCH  11  18
ATOM     17  O   UNL     1      32.112 -12.727 -22.434  0.00  0.00    -0.250 OA
ATOM     18  C   UNL     1      32.794 -13.067 -21.477  0.00  0.00    +0.317 C 
BRANCH  18  19
ATOM     19  O   UNL     1      32.404 -13.089 -20.171  0.00  0.00    -0.444 OA
ATOM     20  C   UNL     1      31.675 -11.941 -19.728  0.00  0.00    +0.256 C 
ENDBRANCH  18  19
ENDBRANCH  11  18
ENDBRANCH   3  16
ENDBRANCH   1   6
BRANCH   1  21
ATOM     21  C   UNL     1      35.556 -22.009 -18.292  0.00  0.00    +0.145 C 
BRANCH  21  28
ATOM     22  N   UNL     1      35.337 -22.906 -16.035  0.00  0.00    -0.392 NA
ATOM     23  N   UNL     1      37.965 -22.278 -15.434  0.00  0.00    -0.200 NA
ATOM     24  N   UNL     1      37.699 -23.144 -13.303  0.00  0.00    -0.271 NA
ATOM     25  N   UNL     1      35.603 -24.076 -12.602  0.00  0.00    -0.310 NA
ATOM     26  N   UNL     1      33.781 -24.111 -14.105  0.00  0.00    -0.329 N 
ATOM     27  N   UNL     1      37.433 -24.021 -11.142  0.00  0.00    -0.283 N 
ATOM     28  C   UNL     1      36.135 -22.318 -16.939  0.00  0.00    +0.133 C 
ATOM     29  C   UNL     1      37.434 -22.009 -16.641  0.00  0.00    +0.193 C 
ATOM     30  C   UNL     1      35.869 -23.176 -14.827  0.00  0.00    +0.248 C 
ATOM     31  C   UNL     1      37.194 -22.865 -14.510  0.00  0.00    +0.131 C 
ATOM     32  C   UNL     1      35.133 -23.780 -13.827  0.00  0.00    +0.231 C 
ATOM     33  C   UNL     1      36.883 -23.735 -12.410  0.00  0.00    +0.207 C 
ATOM     34  H   UNL     1      33.227 -24.542 -13.414  0.00  0.00    +0.145 HD
ATOM     35  H   UNL     1      33.396 -23.910 -14.988  0.00  0.00    +0.145 HD
ATOM     36  H   UNL     1      38.370 -23.789 -10.948  0.00  0.00    +0.156 HD
ATOM     37  H   UNL     1      36.880 -24.452 -10.450  0.00  0.00    +0.156 HD
ENDBRANCH  21  28
ENDBRANCH   1  21
TORSDOF 6
ENDMDL
MODEL 4
REMARK VINA RESULT:     -11.9      1.489      2.159
REMARK  Name = 25243853
REMARK  6 active torsions:
REMARK  status: ('A' for Active; 'I' for Inactive)
REMARK    1  A    between atoms: N_1  and  C_6
REMARK    2  A    between atoms: N_1  and  C_21
REMARK    3  A    between atoms: C_3  and  C_16
REMARK    4  A    between atoms: C_11  and  C_18
REMARK    5  A    between atoms: C_18  and  O_19
REMARK    6  A    between atoms: C_21  and  C_28
REMARK                            x       y       z     vdW  Elec       q    Type
REMARK                         _______ _______ _______ _____ _____    ______ ____
ROOT
ATOM      1  N   UNL     1      35.590 -20.845 -20.376  0.00  0.00    -0.327 N 
ATOM      2  H   UNL     1      35.268 -21.207 -21.232  0.00  0.00    +0.147 HD
ENDROOT
BRANCH   1   6
ATOM      3  C   UNL     1      34.585 -22.869 -16.835  0.00  0.00    +0.054 C 
ATOM      4  C   UNL     1      33.626 -22.691 -17.832  0.00  0.00    +0.006 C 
ATOM      5  C   UNL     1      35.877 -22.376 -17.014  0.00  0.00    +0.006 C 
ATOM      6  C   UNL     1      35.252 -21.525 -19.186  0.00  0.00    +0.045 C 
ATOM      7  C   UNL     1      33.961 -22.019 -19.009  0.00  0.00    +0.014 C 
ATOM      8  C   UNL     1      36.211 -21.703 -18.189  0.00  0.00    +0.014 C 
BRANCH   3  16
ATOM      9  O   UNL     1      33.034 -23.747 -15.392  0.00  0.00    -0.270 OA
ATOM     10  N   UNL     1      35.273 -23.998 -14.763  0.00  0.00    -0.276 N 
ATOM     11  C   UNL     1      37.031 -23.626 -12.482  0.00  0.00    +0.102 C 
ATOM     12  C   UNL     1      35.538 -23.927 -12.318  0.00  0.00    +0.033 C 
ATOM     13  C   UNL     1      37.350 -23.027 -13.855  0.00  0.00    +0.033 C 
ATOM     14  C   UNL     1      34.961 -24.684 -13.512  0.00  0.00    +0.094 C 
ATOM     15  C   UNL     1      36.705 -23.794 -15.010  0.00  0.00    +0.094 C 
ATOM     16  C   UNL     1      34.234 -23.576 -15.597  0.00  0.00    +0.249 C 
BRANCH  11  18
ATOM     17  O   UNL     1      37.415 -25.858 -11.658  0.00  0.00    -0.250 OA
ATOM     18  C   UNL     1      37.843 -24.864 -12.229  0.00  0.00    +0.317 C 
BRANCH  18  19
ATOM     19  O   UNL     1      39.100 -24.695 -12.729  0.00  0.00    -0.444 OA
ATOM     20  C   UNL     1      39.606 -25.789 -13.500  0.00  0.00    +0.256 C 
ENDBRANCH  18  19
ENDBRANCH  11  18
ENDBRANCH   3  16
ENDBRANCH   1   6
BRANCH   1  21
ATOM     21  C   UNL     1      36.380 -19.653 -20.390  0.00  0.00    +0.145 C 
BRANCH  21  28
ATOM     22  N   UNL     1      35.338 -17.517 -20.938  0.00  0.00    -0.392 NA
ATOM     23  N   UNL     1      35.377 -18.091 -23.646  0.00  0.00    -0.200 NA
ATOM     24  N   UNL     1      34.387 -16.050 -24.107  0.00  0.00    -0.271 NA
ATOM     25  N   UNL     1      33.824 -14.525 -22.344  0.00  0.00    -0.310 NA
ATOM     26  N   UNL     1      34.284 -15.112 -20.102  0.00  0.00    -0.329 N 
ATOM     27  N   UNL     1      33.382 -13.981 -24.578  0.00  0.00    -0.283 N 
ATOM     28  C   UNL     1      35.840 -18.675 -21.396  0.00  0.00    +0.133 C 
ATOM     29  C   UNL     1      35.859 -18.957 -22.735  0.00  0.00    +0.193 C 
ATOM     30  C   UNL     1      34.857 -16.651 -21.851  0.00  0.00    +0.248 C 
ATOM     31  C   UNL     1      34.871 -16.927 -23.220  0.00  0.00    +0.131 C 
ATOM     32  C   UNL     1      34.320 -15.433 -21.484  0.00  0.00    +0.231 C 
ATOM     33  C   UNL     1      33.888 -14.894 -23.628  0.00  0.00    +0.207 C 
ATOM     34  H   UNL     1      33.907 -14.252 -19.806  0.00  0.00    +0.145 HD
ATOM     35  H   UNL     1      34.634 -15.749 -19.439  0.00  0.00    +0.145 HD
ATOM     36  H   UNL     1      33.405 -14.205 -25.536  0.00  0.00    +0.156 HD
ATOM     37  H   UNL     1      33.006 -13.121 -24.282  0.00  0.00    +0.156 HD
ENDBRANCH  21  28
ENDBRANCH   1  21
TORSDOF 6
ENDMDL
MODEL 5
REMARK VINA RESULT:     -11.8      1.404      2.372
REMARK  Name = 25243853
REMARK  6 active torsions:
REMARK  status: ('A' for Active; 'I' for Inactive)
REMARK    1  A    between atoms: N_1  and  C_6
REMARK    2  A    between atoms: N_1  and  C_21
REMARK    3  A    between atoms: C_3  and  C_16
REMARK    4  A    between atoms: C_11  and  C_18
REMARK    5  A    between atoms: C_18  and  O_19
REMARK    6  A    between atoms: C_21  and  C_28
REMARK                            x       y       z     vdW  Elec       q    Type
REMARK                         _______ _______ _______ _____ _____    ______ ____
ROOT
ATOM      1  N   UNL     1      35.119 -18.948 -22.310  0.00  0.00    -0.327 N 
ATOM      2  H   UNL     1      34.795 -19.185 -23.209  0.00  0.00    +0.147 HD
ENDROOT
BRANCH   1   6
ATOM      3  C   UNL     1      34.219 -21.514 -19.109  0.00  0.00    +0.054 C 
ATOM      4  C   UNL     1      33.194 -20.837 -19.769  0.00  0.00    +0.006 C 
ATOM      5  C   UNL     1      35.543 -21.339 -19.513  0.00  0.00    +0.006 C 
ATOM      6  C   UNL     1      34.816 -19.810 -21.235  0.00  0.00    +0.045 C 
ATOM      7  C   UNL     1      33.493 -19.985 -20.833  0.00  0.00    +0.014 C 
ATOM      8  C   UNL     1      35.842 -20.488 -20.575  0.00  0.00    +0.014 C 
BRANCH   3  16
ATOM      9  O   UNL     1      32.729 -22.753 -17.882  0.00  0.00    -0.270 OA
ATOM     10  N   UNL     1      34.949 -22.805 -17.149  0.00  0.00    -0.276 N 
ATOM     11  C   UNL     1      36.535 -22.512 -14.734  0.00  0.00    +0.102 C 
ATOM     12  C   UNL     1      35.088 -23.014 -14.701  0.00  0.00    +0.033 C 
ATOM     13  C   UNL     1      36.838 -21.708 -16.001  0.00  0.00    +0.033 C 
ATOM     14  C   UNL     1      34.671 -23.678 -16.012  0.00  0.00    +0.094 C 
ATOM     15  C   UNL     1      36.353 -22.396 -17.279  0.00  0.00    +0.094 C 
ATOM     16  C   UNL     1      33.905 -22.411 -17.990  0.00  0.00    +0.249 C 
BRANCH  11  18
ATOM     17  O   UNL     1      38.600 -23.703 -15.090  0.00  0.00    -0.250 OA
ATOM     18  C   UNL     1      37.488 -23.663 -14.581  0.00  0.00    +0.317 C 
BRANCH  18  19
ATOM     19  O   UNL     1      36.918 -24.626 -13.803  0.00  0.00    -0.444 OA
ATOM     20  C   UNL     1      37.785 -25.699 -13.420  0.00  0.00    +0.256 C 
ENDBRANCH  18  19
ENDBRANCH  11  18
ENDBRANCH   3  16
ENDBRANCH   1   6
BRANCH   1  21
ATOM     21  C   UNL     1      35.876 -17.746 -22.151  0.00  0.00    +0.145 C 
BRANCH  21  28
ATOM     22  N   UNL     1      34.546 -15.792 -22.754  0.00  0.00    -0.392 NA
ATOM     23  N   UNL     1      33.806 -15.372 -20.120  0.00  0.00    -0.200 NA
ATOM     24  N   UNL     1      32.559 -13.526 -20.750  0.00  0.00    -0.271 NA
ATOM     25  N   UNL     1      32.439 -12.843 -23.046  0.00  0.00    -0.310 NA
ATOM     26  N   UNL     1      33.610 -14.069 -24.691  0.00  0.00    -0.329 N 
ATOM     27  N   UNL     1      31.295 -11.653 -21.385  0.00  0.00    -0.283 N 
ATOM     28  C   UNL     1      34.976 -16.602 -21.774  0.00  0.00    +0.133 C 
ATOM     29  C   UNL     1      34.610 -16.394 -20.472  0.00  0.00    +0.193 C 
ATOM     30  C   UNL     1      33.742 -14.771 -22.400  0.00  0.00    +0.248 C 
ATOM     31  C   UNL     1      33.360 -14.547 -21.075  0.00  0.00    +0.131 C 
ATOM     32  C   UNL     1      33.245 -13.882 -23.333  0.00  0.00    +0.231 C 
ATOM     33  C   UNL     1      32.138 -12.725 -21.747  0.00  0.00    +0.207 C 
ATOM     34  H   UNL     1      33.273 -13.453 -25.381  0.00  0.00    +0.145 HD
ATOM     35  H   UNL     1      34.200 -14.815 -24.944  0.00  0.00    +0.145 HD
ATOM     36  H   UNL     1      31.044 -11.521 -20.442  0.00  0.00    +0.156 HD
ATOM     37  H   UNL     1      30.958 -11.036 -22.075  0.00  0.00    +0.156 HD
ENDBRANCH  21  28
ENDBRANCH   1  21
TORSDOF 6
ENDMDL
MODEL 6
REMARK VINA RESULT:     -11.6      4.210     10.885
REMARK  Name = 25243853
REMARK  6 active torsions:
REMARK  status: ('A' for Active; 'I' for Inactive)
REMARK    1  A    between atoms: N_1  and  C_6
REMARK    2  A    between atoms: N_1  and  C_21
REMARK    3  A    between atoms: C_3  and  C_16
REMARK    4  A    between atoms: C_11  and  C_18
REMARK    5  A    between atoms: C_18  and  O_19
REMARK    6  A    between atoms: C_21  and  C_28
REMARK                            x       y       z     vdW  Elec       q    Type
REMARK                         _______ _______ _______ _____ _____    ______ ____
ROOT
ATOM      1  N   UNL     1      36.512 -21.627 -19.283  0.00  0.00    -0.327 N 
ATOM      2  H   UNL     1      36.356 -22.555 -19.571  0.00  0.00    +0.147 HD
ENDROOT
BRANCH   1   6
ATOM      3  C   UNL     1      35.441 -18.512 -21.891  0.00  0.00    +0.054 C 
ATOM      4  C   UNL     1      34.495 -19.468 -21.520  0.00  0.00    +0.006 C 
ATOM      5  C   UNL     1      36.743 -18.592 -21.395  0.00  0.00    +0.006 C 
ATOM      6  C   UNL     1      36.152 -20.581 -20.159  0.00  0.00    +0.045 C 
ATOM      7  C   UNL     1      34.850 -20.502 -20.654  0.00  0.00    +0.014 C 
ATOM      8  C   UNL     1      37.098 -19.625 -20.529  0.00  0.00    +0.014 C 
BRANCH   3  16
ATOM      9  O   UNL     1      35.413 -17.557 -23.975  0.00  0.00    -0.270 OA
ATOM     10  N   UNL     1      34.358 -16.341 -22.278  0.00  0.00    -0.276 N 
ATOM     11  C   UNL     1      34.238 -13.662 -21.162  0.00  0.00    +0.102 C 
ATOM     12  C   UNL     1      34.576 -13.916 -22.634  0.00  0.00    +0.033 C 
ATOM     13  C   UNL     1      34.512 -14.890 -20.288  0.00  0.00    +0.033 C 
ATOM     14  C   UNL     1      33.990 -15.228 -23.150  0.00  0.00    +0.094 C 
ATOM     15  C   UNL     1      33.948 -16.184 -20.878  0.00  0.00    +0.094 C 
ATOM     16  C   UNL     1      35.068 -17.424 -22.802  0.00  0.00    +0.249 C 
BRANCH  11  18
ATOM     17  O   UNL     1      32.029 -13.652 -20.199  0.00  0.00    -0.250 OA
ATOM     18  C   UNL     1      32.813 -13.207 -21.025  0.00  0.00    +0.317 C 
BRANCH  18  19
ATOM     19  O   UNL     1      32.553 -12.242 -21.953  0.00  0.00    -0.444 OA
ATOM     20  C   UNL     1      31.702 -11.180 -21.511  0.00  0.00    +0.256 C 
ENDBRANCH  18  19
ENDBRANCH  11  18
ENDBRANCH   3  16
ENDBRANCH   1   6
BRANCH   1  21
ATOM     21  C   UNL     1      37.091 -21.398 -17.997  0.00  0.00    +0.145 C 
BRANCH  21  28
ATOM     22  N   UNL     1      35.038 -22.359 -17.098  0.00  0.00    -0.392 NA
ATOM     23  N   UNL     1      36.374 -23.388 -14.903  0.00  0.00    -0.200 NA
ATOM     24  N   UNL     1      34.394 -24.278 -14.098  0.00  0.00    -0.271 NA
ATOM     25  N   UNL     1      32.335 -23.992 -15.294  0.00  0.00    -0.310 NA
ATOM     26  N   UNL     1      32.323 -22.783 -17.324  0.00  0.00    -0.329 N 
ATOM     27  N   UNL     1      32.388 -25.181 -13.278  0.00  0.00    -0.283 N 
ATOM     28  C   UNL     1      36.358 -22.179 -16.942  0.00  0.00    +0.133 C 
ATOM     29  C   UNL     1      37.018 -22.689 -15.856  0.00  0.00    +0.193 C 
ATOM     30  C   UNL     1      34.395 -23.059 -16.144  0.00  0.00    +0.248 C 
ATOM     31  C   UNL     1      35.056 -23.585 -15.032  0.00  0.00    +0.131 C 
ATOM     32  C   UNL     1      33.036 -23.301 -16.212  0.00  0.00    +0.231 C 
ATOM     33  C   UNL     1      33.070 -24.448 -14.273  0.00  0.00    +0.207 C 
ATOM     34  H   UNL     1      31.354 -22.936 -17.402  0.00  0.00    +0.145 HD
ATOM     35  H   UNL     1      32.797 -22.269 -18.017  0.00  0.00    +0.145 HD
ATOM     36  H   UNL     1      32.882 -25.539 -12.505  0.00  0.00    +0.156 HD
ATOM     37  H   UNL     1      31.419 -25.335 -13.356  0.00  0.00    +0.156 HD
ENDBRANCH  21  28
ENDBRANCH   1  21
TORSDOF 6
ENDMDL
MODEL 7
REMARK VINA RESULT:     -11.5      4.060     11.558
REMARK  Name = 25243853
REMARK  6 active torsions:
REMARK  status: ('A' for Active; 'I' for Inactive)
REMARK    1  A    between atoms: N_1  and  C_6
REMARK    2  A    between atoms: N_1  and  C_21
REMARK    3  A    between atoms: C_3  and  C_16
REMARK    4  A    between atoms: C_11  and  C_18
REMARK    5  A    between atoms: C_18  and  O_19
REMARK    6  A    between atoms: C_21  and  C_28
REMARK                            x       y       z     vdW  Elec       q    Type
REMARK                         _______ _______ _______ _____ _____    ______ ____
ROOT
ATOM      1  N   UNL     1      36.493 -21.622 -18.613  0.00  0.00    -0.327 N 
ATOM      2  H   UNL     1      36.196 -22.553 -18.724  0.00  0.00    +0.147 HD
ENDROOT
BRANCH   1   6
ATOM      3  C   UNL     1      35.559 -18.848 -21.626  0.00  0.00    +0.054 C 
ATOM      4  C   UNL     1      34.590 -19.746 -21.181  0.00  0.00    +0.006 C 
ATOM      5  C   UNL     1      36.839 -18.870 -21.070  0.00  0.00    +0.006 C 
ATOM      6  C   UNL     1      36.179 -20.689 -19.625  0.00  0.00    +0.045 C 
ATOM      7  C   UNL     1      34.900 -20.667 -20.179  0.00  0.00    +0.014 C 
ATOM      8  C   UNL     1      37.149 -19.791 -20.070  0.00  0.00    +0.014 C 
BRANCH   3  16
ATOM      9  O   UNL     1      35.635 -18.151 -23.810  0.00  0.00    -0.270 OA
ATOM     10  N   UNL     1      34.502 -16.742 -22.325  0.00  0.00    -0.276 N 
ATOM     11  C   UNL     1      34.336 -13.949 -21.548  0.00  0.00    +0.102 C 
ATOM     12  C   UNL     1      34.744 -14.377 -22.961  0.00  0.00    +0.033 C 
ATOM     13  C   UNL     1      34.564 -15.061 -20.520  0.00  0.00    +0.033 C 
ATOM     14  C   UNL     1      34.180 -15.744 -23.342  0.00  0.00    +0.094 C 
ATOM     15  C   UNL     1      34.025 -16.419 -20.975  0.00  0.00    +0.094 C 
ATOM     16  C   UNL     1      35.234 -17.878 -22.679  0.00  0.00    +0.249 C 
BRANCH  11  18
ATOM     17  O   UNL     1      32.265 -13.224 -22.545  0.00  0.00    -0.250 OA
ATOM     18  C   UNL     1      32.908 -13.484 -21.537  0.00  0.00    +0.317 C 
BRANCH  18  19
ATOM     19  O   UNL     1      32.465 -13.405 -20.250  0.00  0.00    -0.444 OA
ATOM     20  C   UNL     1      31.949 -12.129 -19.856  0.00  0.00    +0.256 C 
ENDBRANCH  18  19
ENDBRANCH  11  18
ENDBRANCH   3  16
ENDBRANCH   1   6
BRANCH   1  21
ATOM     21  C   UNL     1      37.222 -21.271 -17.434  0.00  0.00    +0.145 C 
BRANCH  21  28
ATOM     22  N   UNL     1      37.957 -23.076 -15.967  0.00  0.00    -0.392 NA
ATOM     23  N   UNL     1      35.476 -23.214 -14.746  0.00  0.00    -0.200 NA
ATOM     24  N   UNL     1      36.228 -24.925 -13.380  0.00  0.00    -0.271 NA
ATOM     25  N   UNL     1      38.476 -25.744 -13.552  0.00  0.00    -0.310 NA
ATOM     26  N   UNL     1      39.946 -24.795 -15.139  0.00  0.00    -0.329 N 
ATOM     27  N   UNL     1      36.988 -26.660 -11.994  0.00  0.00    -0.283 N 
ATOM     28  C   UNL     1      36.955 -22.262 -16.335  0.00  0.00    +0.133 C 
ATOM     29  C   UNL     1      35.729 -22.330 -15.731  0.00  0.00    +0.193 C 
ATOM     30  C   UNL     1      37.702 -23.959 -14.982  0.00  0.00    +0.248 C 
ATOM     31  C   UNL     1      36.456 -24.039 -14.357  0.00  0.00    +0.131 C 
ATOM     32  C   UNL     1      38.665 -24.840 -14.530  0.00  0.00    +0.231 C 
ATOM     33  C   UNL     1      37.246 -25.732 -13.025  0.00  0.00    +0.207 C 
ATOM     34  H   UNL     1      40.655 -25.409 -14.841  0.00  0.00    +0.145 HD
ATOM     35  H   UNL     1      40.126 -24.150 -15.860  0.00  0.00    +0.145 HD
ATOM     36  H   UNL     1      36.098 -26.693 -11.573  0.00  0.00    +0.156 HD
ATOM     37  H   UNL     1      37.696 -27.275 -11.695  0.00  0.00    +0.156 HD
ENDBRANCH  21  28
ENDBRANCH   1  21
TORSDOF 6
ENDMDL
MODEL 8
REMARK VINA RESULT:     -11.2      9.338     15.495
REMARK  Name = 25243853
REMARK  6 active torsions:
REMARK  status: ('A' for Active; 'I' for Inactive)
REMARK    1  A    between atoms: N_1  and  C_6
REMARK    2  A    between atoms: N_1  and  C_21
REMARK    3  A    between atoms: C_3  and  C_16
REMARK    4  A    between atoms: C_11  and  C_18
REMARK    5  A    between atoms: C_18  and  O_19
REMARK    6  A    between atoms: C_21  and  C_28
REMARK                            x       y       z     vdW  Elec       q    Type
REMARK                         _______ _______ _______ _____ _____    ______ ____
ROOT
ATOM      1  N   UNL     1      31.976 -10.318 -20.802  0.00  0.00    -0.327 N 
ATOM      2  H   UNL     1      32.605 -10.462 -20.059  0.00  0.00    +0.147 HD
ENDROOT
BRANCH   1   6
ATOM      3  C   UNL     1      31.502  -6.421 -22.298  0.00  0.00    +0.054 C 
ATOM      4  C   UNL     1      31.058  -7.513 -23.044  0.00  0.00    +0.006 C 
ATOM      5  C   UNL     1      32.103  -6.624 -21.055  0.00  0.00    +0.006 C 
ATOM      6  C   UNL     1      31.816  -9.009 -21.305  0.00  0.00    +0.045 C 
ATOM      7  C   UNL     1      31.215  -8.807 -22.546  0.00  0.00    +0.014 C 
ATOM      8  C   UNL     1      32.261  -7.917 -20.559  0.00  0.00    +0.014 C 
BRANCH   3  16
ATOM      9  O   UNL     1      30.386  -4.419 -22.375  0.00  0.00    -0.270 OA
ATOM     10  N   UNL     1      32.260  -4.600 -23.763  0.00  0.00    -0.276 N 
ATOM     11  C   UNL     1      33.090  -4.124 -26.505  0.00  0.00    +0.102 C 
ATOM     12  C   UNL     1      31.971  -3.315 -25.842  0.00  0.00    +0.033 C 
ATOM     13  C   UNL     1      33.311  -5.474 -25.817  0.00  0.00    +0.033 C 
ATOM     14  C   UNL     1      32.113  -3.258 -24.323  0.00  0.00    +0.094 C 
ATOM     15  C   UNL     1      33.394  -5.365 -24.293  0.00  0.00    +0.094 C 
ATOM     16  C   UNL     1      31.337  -5.059 -22.820  0.00  0.00    +0.249 C 
BRANCH  11  18
ATOM     17  O   UNL     1      34.396  -2.098 -26.543  0.00  0.00    -0.250 OA
ATOM     18  C   UNL     1      34.359  -3.321 -26.544  0.00  0.00    +0.317 C 
BRANCH  18  19
ATOM     19  O   UNL     1      35.430  -4.164 -26.581  0.00  0.00    -0.444 OA
ATOM     20  C   UNL     1      36.253  -4.060 -27.748  0.00  0.00    +0.256 C 
ENDBRANCH  18  19
ENDBRANCH  11  18
ENDBRANCH   3  16
ENDBRANCH   1   6
BRANCH   1  21
ATOM     21  C   UNL     1      31.266 -11.443 -21.327  0.00  0.00    +0.145 C 
BRANCH  21  28
ATOM     22  N   UNL     1      32.553 -13.038 -22.649  0.00  0.00    -0.392 NA
ATOM     23  N   UNL     1      33.403 -14.371 -20.377  0.00  0.00    -0.200 NA
ATOM     24  N   UNL     1      34.607 -15.857 -21.683  0.00  0.00    -0.271 NA
ATOM     25  N   UNL     1      34.623 -15.667 -24.074  0.00  0.00    -0.310 NA
ATOM     26  N   UNL     1      33.392 -13.940 -25.115  0.00  0.00    -0.329 N 
ATOM     27  N   UNL     1      35.828 -17.365 -23.004  0.00  0.00    -0.283 N 
ATOM     28  C   UNL     1      32.172 -12.638 -21.426  0.00  0.00    +0.133 C 
ATOM     29  C   UNL     1      32.593 -13.298 -20.303  0.00  0.00    +0.193 C 
ATOM     30  C   UNL     1      33.364 -14.111 -22.721  0.00  0.00    +0.248 C 
ATOM     31  C   UNL     1      33.801 -14.793 -21.584  0.00  0.00    +0.131 C 
ATOM     32  C   UNL     1      33.813 -14.601 -23.932  0.00  0.00    +0.231 C 
ATOM     33  C   UNL     1      34.978 -16.242 -22.919  0.00  0.00    +0.207 C 
ATOM     34  H   UNL     1      33.693 -14.264 -25.994  0.00  0.00    +0.145 HD
ATOM     35  H   UNL     1      32.798 -13.158 -25.057  0.00  0.00    +0.145 HD
ATOM     36  H   UNL     1      36.118 -17.826 -22.183  0.00  0.00    +0.156 HD
ATOM     37  H   UNL     1      36.130 -17.690 -23.883  0.00  0.00    +0.156 HD
ENDBRANCH  21  28
ENDBRANCH   1  21
TORSDOF 6
ENDMDL
MODEL 9
REMARK VINA RESULT:     -11.1      5.685     11.946
REMARK  Name = 25243853
REMARK  6 active torsions:
REMARK  status: ('A' for Active; 'I' for Inactive)
REMARK    1  A    between atoms: N_1  and  C_6
REMARK    2  A    between atoms: N_1  and  C_21
REMARK    3  A    between atoms: C_3  and  C_16
REMARK    4  A    between atoms: C_11  and  C_18
REMARK    5  A    between atoms: C_18  and  O_19
REMARK    6  A    between atoms: C_21  and  C_28
REMARK                            x       y       z     vdW  Elec       q    Type
REMARK                         _______ _______ _______ _____ _____    ______ ____
ROOT
ATOM      1  N   UNL     1      35.415 -16.470 -23.358  0.00  0.00    -0.327 N 
ATOM      2  H   UNL     1      36.344 -16.277 -23.618  0.00  0.00    +0.147 HD
ENDROOT
BRANCH   1   6
ATOM      3  C   UNL     1      33.039 -13.318 -21.921  0.00  0.00    +0.054 C 
ATOM      4  C   UNL     1      33.083 -13.591 -23.288  0.00  0.00    +0.006 C 
ATOM      5  C   UNL     1      33.784 -14.092 -21.031  0.00  0.00    +0.006 C 
ATOM      6  C   UNL     1      34.616 -15.411 -22.875  0.00  0.00    +0.045 C 
ATOM      7  C   UNL     1      33.871 -14.638 -23.765  0.00  0.00    +0.014 C 
ATOM      8  C   UNL     1      34.573 -15.138 -21.508  0.00  0.00    +0.014 C 
BRANCH   3  16
ATOM      9  O   UNL     1      31.228 -12.538 -20.750  0.00  0.00    -0.270 OA
ATOM     10  N   UNL     1      32.593 -10.909 -21.727  0.00  0.00    -0.276 N 
ATOM     11  C   UNL     1      32.432  -8.518 -23.368  0.00  0.00    +0.102 C 
ATOM     12  C   UNL     1      31.290  -8.947 -22.441  0.00  0.00    +0.033 C 
ATOM     13  C   UNL     1      33.348  -9.689 -23.734  0.00  0.00    +0.033 C 
ATOM     14  C   UNL     1      31.779  -9.788 -21.264  0.00  0.00    +0.094 C 
ATOM     15  C   UNL     1      33.765 -10.527 -22.525  0.00  0.00    +0.094 C 
ATOM     16  C   UNL     1      32.209 -12.216 -21.418  0.00  0.00    +0.249 C 
BRANCH  11  18
ATOM     17  O   UNL     1      32.777  -6.666 -21.864  0.00  0.00    -0.250 OA
ATOM     18  C   UNL     1      33.211  -7.394 -22.747  0.00  0.00    +0.317 C 
BRANCH  18  19
ATOM     19  O   UNL     1      34.447  -7.326 -23.319  0.00  0.00    -0.444 OA
ATOM     20  C   UNL     1      34.629  -6.265 -24.261  0.00  0.00    +0.256 C 
ENDBRANCH  18  19
ENDBRANCH  11  18
ENDBRANCH   3  16
ENDBRANCH   1   6
BRANCH   1  21
ATOM     21  C   UNL     1      34.933 -17.810 -23.487  0.00  0.00    +0.145 C 
BRANCH  21  28
ATOM     22  N   UNL     1      34.479 -19.380 -21.677  0.00  0.00    -0.392 NA
ATOM     23  N   UNL     1      37.141 -19.417 -20.921  0.00  0.00    -0.200 NA
ATOM     24  N   UNL     1      36.652 -20.908 -19.218  0.00  0.00    -0.271 NA
ATOM     25  N   UNL     1      34.410 -21.682 -18.863  0.00  0.00    -0.310 NA
ATOM     26  N   UNL     1      32.673 -20.913 -20.267  0.00  0.00    -0.329 N 
ATOM     27  N   UNL     1      36.159 -22.418 -17.491  0.00  0.00    -0.283 N 
ATOM     28  C   UNL     1      35.396 -18.651 -22.330  0.00  0.00    +0.133 C 
ATOM     29  C   UNL     1      36.713 -18.670 -21.956  0.00  0.00    +0.193 C 
ATOM     30  C   UNL     1      34.909 -20.127 -20.642  0.00  0.00    +0.248 C 
ATOM     31  C   UNL     1      36.250 -20.156 -20.250  0.00  0.00    +0.131 C 
ATOM     32  C   UNL     1      34.045 -20.914 -19.905  0.00  0.00    +0.231 C 
ATOM     33  C   UNL     1      35.716 -21.632 -18.576  0.00  0.00    +0.207 C 
ATOM     34  H   UNL     1      32.030 -21.462 -19.763  0.00  0.00    +0.145 HD
ATOM     35  H   UNL     1      32.363 -20.363 -21.023  0.00  0.00    +0.145 HD
ATOM     36  H   UNL     1      37.110 -22.417 -17.238  0.00  0.00    +0.156 HD
ATOM     37  H   UNL     1      35.516 -22.968 -16.986  0.00  0.00    +0.156 HD
ENDBRANCH  21  28
ENDBRANCH   1  21
TORSDOF 6
ENDMDL
