MODEL 1
REMARK VINA RESULT:     -12.2      0.000      0.000
REMARK  Name = 6914657
REMARK  8 active torsions:
REMARK  status: ('A' for Active; 'I' for Inactive)
REMARK    1  A    between atoms: C_1  and  C_4
REMARK    2  A    between atoms: C_1  and  C_16
REMARK    3  A    between atoms: C_9  and  C_10
REMARK    4  A    between atoms: C_16  and  C_17
REMARK    5  A    between atoms: C_17  and  C_18
REMARK    6  A    between atoms: C_18  and  N_20
REMARK    7  A    between atoms: C_21  and  C_23
REMARK    8  A    between atoms: C_24  and  C_26
REMARK                            x       y       z     vdW  Elec       q    Type
REMARK                         _______ _______ _______ _____ _____    ______ ____
ROOT
ATOM      1  C   UNL     1      32.309 -13.329 -20.757  0.00  0.00    +0.000 C 
ENDROOT
BRANCH   1   4
ATOM      2  O   UNL     1      33.134  -7.256 -19.660  0.00  0.00    -0.270 OA
ATOM      3  N   UNL     1      32.126  -9.038 -20.789  0.00  0.00    -0.276 N 
ATOM      4  C   UNL     1      31.748 -11.910 -20.787  0.00  0.00    +0.003 C 
ATOM      5  C   UNL     1      32.230 -11.157 -22.037  0.00  0.00    +0.022 C 
ATOM      6  C   UNL     1      32.141 -11.140 -19.514  0.00  0.00    +0.022 C 
ATOM      7  C   UNL     1      31.735  -9.712 -22.034  0.00  0.00    +0.094 C 
ATOM      8  C   UNL     1      31.656  -9.693 -19.569  0.00  0.00    +0.094 C 
ATOM      9  C   UNL     1      32.843  -7.843 -20.701  0.00  0.00    +0.249 C 
BRANCH   9  10
ATOM     10  C   UNL     1      33.310  -7.221 -21.946  0.00  0.00    +0.054 C 
ATOM     11  C   UNL     1      32.514  -6.276 -22.595  0.00  0.00    +0.005 C 
ATOM     12  C   UNL     1      34.548  -7.575 -22.482  0.00  0.00    +0.005 C 
ATOM     13  C   UNL     1      32.957  -5.685 -23.777  0.00  0.00    +0.000 C 
ATOM     14  C   UNL     1      34.991  -6.983 -23.665  0.00  0.00    +0.000 C 
ATOM     15  C   UNL     1      34.195  -6.038 -24.313  0.00  0.00    +0.000 C 
ENDBRANCH   9  10
ENDBRANCH   1   4
BRANCH   1  16
ATOM     16  C   UNL     1      32.941 -13.702 -22.095  0.00  0.00    +0.002 C 
BRANCH  16  17
ATOM     17  C   UNL     1      34.404 -14.107 -21.919  0.00  0.00    +0.021 C 
BRANCH  17  18
ATOM     18  C   UNL     1      34.849 -15.069 -23.015  0.00  0.00    +0.090 C 
BRANCH  18  20
ATOM     19  O   UNL     1      35.009 -17.471 -24.627  0.00  0.00    -0.270 OA
ATOM     20  N   UNL     1      34.856 -16.430 -22.553  0.00  0.00    -0.301 N 
ATOM     21  C   UNL     1      34.937 -17.525 -23.404  0.00  0.00    +0.246 C 
ATOM     22  H   UNL     1      34.802 -16.594 -21.584  0.00  0.00    +0.150 HD
BRANCH  21  23
ATOM     23  C   UNL     1      34.926 -18.816 -22.658  0.00  0.00    +0.058 C 
ATOM     24  C   UNL     1      34.568 -18.841 -21.367  0.00  0.00    +0.006 C 
BRANCH  24  26
ATOM     25  N   UNL     1      33.178 -21.703 -19.373  0.00  0.00    -0.242 NA
ATOM     26  C   UNL     1      34.513 -20.057 -20.537  0.00  0.00    +0.019 C 
ATOM     27  C   UNL     1      35.676 -20.704 -20.133  0.00  0.00    +0.003 C 
ATOM     28  C   UNL     1      33.300 -20.592 -20.134  0.00  0.00    +0.099 C 
ATOM     29  C   UNL     1      35.591 -21.849 -19.350  0.00  0.00    +0.021 C 
ATOM     30  C   UNL     1      34.331 -22.304 -18.999  0.00  0.00    +0.099 C 
ENDBRANCH  24  26
ENDBRANCH  21  23
ENDBRANCH  18  20
ENDBRANCH  17  18
ENDBRANCH  16  17
ENDBRANCH   1  16
TORSDOF 8
ENDMDL
MODEL 2
REMARK VINA RESULT:     -12.1      0.568      1.275
REMARK  Name = 6914657
REMARK  8 active torsions:
REMARK  status: ('A' for Active; 'I' for Inactive)
REMARK    1  A    between atoms: C_1  and  C_4
REMARK    2  A    between atoms: C_1  and  C_16
REMARK    3  A    between atoms: C_9  and  C_10
REMARK    4  A    between atoms: C_16  and  C_17
REMARK    5  A    between atoms: C_17  and  C_18
REMARK    6  A    between atoms: C_18  and  N_20
REMARK    7  A    between atoms: C_21  and  C_23
REMARK    8  A    between atoms: C_24  and  C_26
REMARK                            x       y       z     vdW  Elec       q    Type
REMARK                         _______ _______ _______ _____ _____    ______ ____
ROOT
ATOM      1  C   UNL     1      32.341 -13.251 -20.627  0.00  0.00    +0.000 C 
ENDROOT
BRANCH   1   4
ATOM      2  O   UNL     1      33.033  -7.141 -19.652  0.00  0.00    -0.270 OA
ATOM      3  N   UNL     1      32.088  -8.966 -20.767  0.00  0.00    -0.276 N 
ATOM      4  C   UNL     1      31.757 -11.843 -20.707  0.00  0.00    +0.003 C 
ATOM      5  C   UNL     1      32.264 -11.111 -21.960  0.00  0.00    +0.022 C 
ATOM      6  C   UNL     1      32.100 -11.037 -19.442  0.00  0.00    +0.022 C 
ATOM      7  C   UNL     1      31.746  -9.675 -22.006  0.00  0.00    +0.094 C 
ATOM      8  C   UNL     1      31.593  -9.600 -19.546  0.00  0.00    +0.094 C 
ATOM      9  C   UNL     1      32.783  -7.757 -20.686  0.00  0.00    +0.249 C 
BRANCH   9  10
ATOM     10  C   UNL     1      33.276  -7.156 -21.932  0.00  0.00    +0.054 C 
ATOM     11  C   UNL     1      34.510  -7.545 -22.453  0.00  0.00    +0.005 C 
ATOM     12  C   UNL     1      32.510  -6.197 -22.595  0.00  0.00    +0.005 C 
ATOM     13  C   UNL     1      34.979  -6.974 -23.636  0.00  0.00    +0.000 C 
ATOM     14  C   UNL     1      32.979  -5.627 -23.779  0.00  0.00    +0.000 C 
ATOM     15  C   UNL     1      34.214  -6.016 -24.299  0.00  0.00    +0.000 C 
ENDBRANCH   9  10
ENDBRANCH   1   4
BRANCH   1  16
ATOM     16  C   UNL     1      32.835 -13.723 -21.992  0.00  0.00    +0.002 C 
BRANCH  16  17
ATOM     17  C   UNL     1      34.325 -14.064 -21.950  0.00  0.00    +0.021 C 
BRANCH  17  18
ATOM     18  C   UNL     1      34.706 -15.024 -23.071  0.00  0.00    +0.090 C 
BRANCH  18  20
ATOM     19  O   UNL     1      35.041 -17.418 -24.668  0.00  0.00    -0.270 OA
ATOM     20  N   UNL     1      34.783 -16.380 -22.602  0.00  0.00    -0.301 N 
ATOM     21  C   UNL     1      34.946 -17.472 -23.446  0.00  0.00    +0.246 C 
ATOM     22  H   UNL     1      34.719 -16.543 -21.634  0.00  0.00    +0.150 HD
BRANCH  21  23
ATOM     23  C   UNL     1      34.996 -18.759 -22.694  0.00  0.00    +0.058 C 
ATOM     24  C   UNL     1      34.679 -18.786 -21.392  0.00  0.00    +0.006 C 
BRANCH  24  26
ATOM     25  N   UNL     1      35.946 -21.758 -19.478  0.00  0.00    -0.242 NA
ATOM     26  C   UNL     1      34.684 -19.998 -20.555  0.00  0.00    +0.019 C 
ATOM     27  C   UNL     1      33.501 -20.532 -20.056  0.00  0.00    +0.003 C 
ATOM     28  C   UNL     1      35.870 -20.644 -20.240  0.00  0.00    +0.099 C 
ATOM     29  C   UNL     1      33.538 -21.677 -19.269  0.00  0.00    +0.021 C 
ATOM     30  C   UNL     1      34.774 -22.247 -19.012  0.00  0.00    +0.099 C 
ENDBRANCH  24  26
ENDBRANCH  21  23
ENDBRANCH  18  20
ENDBRANCH  17  18
ENDBRANCH  16  17
ENDBRANCH   1  16
TORSDOF 8
ENDMDL
MODEL 3
REMARK VINA RESULT:     -11.0      3.669      7.311
REMARK  Name = 6914657
REMARK  8 active torsions:
REMARK  status: ('A' for Active; 'I' for Inactive)
REMARK    1  A    between atoms: C_1  and  C_4
REMARK    2  A    between atoms: C_1  and  C_16
REMARK    3  A    between atoms: C_9  and  C_10
REMARK    4  A    between atoms: C_16  and  C_17
REMARK    5  A    between atoms: C_17  and  C_18
REMARK    6  A    between atoms: C_18  and  N_20
REMARK    7  A    between atoms: C_21  and  C_23
REMARK    8  A    between atoms: C_24  and  C_26
REMARK                            x       y       z     vdW  Elec       q    Type
REMARK                         _______ _______ _______ _____ _____    ______ ____
ROOT
ATOM      1  C   UNL     1      35.308 -19.637 -22.206  0.00  0.00    +0.000 C 
ENDROOT
BRANCH   1   4
ATOM      2  O   UNL     1      33.084 -14.287 -24.486  0.00  0.00    -0.270 OA
ATOM      3  N   UNL     1      34.499 -15.511 -23.083  0.00  0.00    -0.276 N 
ATOM      4  C   UNL     1      35.528 -18.158 -22.513  0.00  0.00    +0.003 C 
ATOM      5  C   UNL     1      34.911 -17.274 -21.416  0.00  0.00    +0.022 C 
ATOM      6  C   UNL     1      34.942 -17.792 -23.887  0.00  0.00    +0.022 C 
ATOM      7  C   UNL     1      35.059 -15.793 -21.755  0.00  0.00    +0.094 C 
ATOM      8  C   UNL     1      35.081 -16.297 -24.170  0.00  0.00    +0.094 C 
ATOM      9  C   UNL     1      33.524 -14.552 -23.369  0.00  0.00    +0.249 C 
BRANCH   9  10
ATOM     10  C   UNL     1      32.952 -13.791 -22.251  0.00  0.00    +0.054 C 
ATOM     11  C   UNL     1      32.670 -12.433 -22.404  0.00  0.00    +0.005 C 
ATOM     12  C   UNL     1      32.692 -14.424 -21.036  0.00  0.00    +0.005 C 
ATOM     13  C   UNL     1      32.127 -11.710 -21.343  0.00  0.00    +0.000 C 
ATOM     14  C   UNL     1      32.148 -13.701 -19.974  0.00  0.00    +0.000 C 
ATOM     15  C   UNL     1      31.866 -12.343 -20.128  0.00  0.00    +0.000 C 
ENDBRANCH   9  10
ENDBRANCH   1   4
BRANCH   1  16
ATOM     16  C   UNL     1      34.782 -19.835 -20.786  0.00  0.00    +0.002 C 
BRANCH  16  17
ATOM     17  C   UNL     1      35.852 -20.449 -19.884  0.00  0.00    +0.021 C 
BRANCH  17  18
ATOM     18  C   UNL     1      35.756 -21.970 -19.866  0.00  0.00    +0.090 C 
BRANCH  18  20
ATOM     19  O   UNL     1      32.929 -22.351 -19.362  0.00  0.00    -0.270 OA
ATOM     20  N   UNL     1      35.143 -22.447 -18.656  0.00  0.00    -0.301 N 
ATOM     21  C   UNL     1      33.771 -22.599 -18.505  0.00  0.00    +0.246 C 
ATOM     22  H   UNL     1      35.726 -22.678 -17.898  0.00  0.00    +0.150 HD
BRANCH  21  23
ATOM     23  C   UNL     1      33.410 -23.111 -17.152  0.00  0.00    +0.058 C 
ATOM     24  C   UNL     1      32.148 -23.005 -16.711  0.00  0.00    +0.006 C 
BRANCH  24  26
ATOM     25  N   UNL     1      31.978 -23.562 -13.001  0.00  0.00    -0.242 NA
ATOM     26  C   UNL     1      31.678 -23.483 -15.399  0.00  0.00    +0.019 C 
ATOM     27  C   UNL     1      30.541 -24.276 -15.289  0.00  0.00    +0.003 C 
ATOM     28  C   UNL     1      32.355 -23.157 -14.235  0.00  0.00    +0.099 C 
ATOM     29  C   UNL     1      30.122 -24.712 -14.038  0.00  0.00    +0.021 C 
ATOM     30  C   UNL     1      30.868 -24.331 -12.935  0.00  0.00    +0.099 C 
ENDBRANCH  24  26
ENDBRANCH  21  23
ENDBRANCH  18  20
ENDBRANCH  17  18
ENDBRANCH  16  17
ENDBRANCH   1  16
TORSDOF 8
ENDMDL
MODEL 4
REMARK VINA RESULT:     -11.0      7.338     11.224
REMARK  Name = 6914657
REMARK  8 active torsions:
REMARK  status: ('A' for Active; 'I' for Inactive)
REMARK    1  A    between atoms: C_1  and  C_4
REMARK    2  A    between atoms: C_1  and  C_16
REMARK    3  A    between atoms: C_9  and  C_10
REMARK    4  A    between atoms: C_16  and  C_17
REMARK    5  A    between atoms: C_17  and  C_18
REMARK    6  A    between atoms: C_18  and  N_20
REMARK    7  A    between atoms: C_21  and  C_23
REMARK    8  A    between atoms: C_24  and  C_26
REMARK                            x       y       z     vdW  Elec       q    Type
REMARK                         _______ _______ _______ _____ _____    ______ ____
ROOT
ATOM      1  C   UNL     1      37.260 -21.802 -16.148  0.00  0.00    +0.000 C 
ENDROOT
BRANCH   1   4
ATOM      2  O   UNL     1      32.753 -20.636 -20.282  0.00  0.00    -0.270 OA
ATOM      3  N   UNL     1      34.920 -21.306 -19.715  0.00  0.00    -0.276 N 
ATOM      4  C   UNL     1      36.644 -22.074 -17.518  0.00  0.00    +0.003 C 
ATOM      5  C   UNL     1      37.051 -20.988 -18.527  0.00  0.00    +0.022 C 
ATOM      6  C   UNL     1      35.112 -22.165 -17.419  0.00  0.00    +0.022 C 
ATOM      7  C   UNL     1      36.376 -21.211 -19.878  0.00  0.00    +0.094 C 
ATOM      8  C   UNL     1      34.477 -22.353 -18.796  0.00  0.00    +0.094 C 
ATOM      9  C   UNL     1      33.973 -20.529 -20.386  0.00  0.00    +0.249 C 
BRANCH   9  10
ATOM     10  C   UNL     1      34.455 -19.479 -21.292  0.00  0.00    +0.054 C 
ATOM     11  C   UNL     1      34.565 -19.733 -22.659  0.00  0.00    +0.005 C 
ATOM     12  C   UNL     1      34.803 -18.227 -20.786  0.00  0.00    +0.005 C 
ATOM     13  C   UNL     1      35.023 -18.735 -23.519  0.00  0.00    +0.000 C 
ATOM     14  C   UNL     1      35.261 -17.228 -21.646  0.00  0.00    +0.000 C 
ATOM     15  C   UNL     1      35.371 -17.483 -23.014  0.00  0.00    +0.000 C 
ENDBRANCH   9  10
ENDBRANCH   1   4
BRANCH   1  16
ATOM     16  C   UNL     1      38.036 -23.015 -15.640  0.00  0.00    +0.002 C 
BRANCH  16  17
ATOM     17  C   UNL     1      37.119 -23.981 -14.892  0.00  0.00    +0.021 C 
BRANCH  17  18
ATOM     18  C   UNL     1      36.333 -23.266 -13.799  0.00  0.00    +0.090 C 
BRANCH  18  20
ATOM     19  O   UNL     1      34.489 -24.602 -12.008  0.00  0.00    -0.270 OA
ATOM     20  N   UNL     1      34.915 -23.433 -13.972  0.00  0.00    -0.301 N 
ATOM     21  C   UNL     1      34.106 -24.091 -13.055  0.00  0.00    +0.246 C 
ATOM     22  H   UNL     1      34.497 -23.061 -14.782  0.00  0.00    +0.150 HD
BRANCH  21  23
ATOM     23  C   UNL     1      32.678 -24.117 -13.484  0.00  0.00    +0.058 C 
ATOM     24  C   UNL     1      32.330 -23.625 -14.682  0.00  0.00    +0.006 C 
BRANCH  24  26
ATOM     25  N   UNL     1      29.329 -22.612 -16.698  0.00  0.00    -0.242 NA
ATOM     26  C   UNL     1      30.955 -23.607 -15.211  0.00  0.00    +0.019 C 
ATOM     27  C   UNL     1      30.001 -24.514 -14.763  0.00  0.00    +0.003 C 
ATOM     28  C   UNL     1      30.572 -22.684 -16.171  0.00  0.00    +0.099 C 
ATOM     29  C   UNL     1      28.712 -24.471 -15.281  0.00  0.00    +0.021 C 
ATOM     30  C   UNL     1      28.429 -23.510 -16.237  0.00  0.00    +0.099 C 
ENDBRANCH  24  26
ENDBRANCH  21  23
ENDBRANCH  18  20
ENDBRANCH  17  18
ENDBRANCH  16  17
ENDBRANCH   1  16
TORSDOF 8
ENDMDL
MODEL 5
REMARK VINA RESULT:     -11.0      4.153      7.844
REMARK  Name = 6914657
REMARK  8 active torsions:
REMARK  status: ('A' for Active; 'I' for Inactive)
REMARK    1  A    between atoms: C_1  and  C_4
REMARK    2  A    between atoms: C_1  and  C_16
REMARK    3  A    between atoms: C_9  and  C_10
REMARK    4  A    between atoms: C_16  and  C_17
REMARK    5  A    between atoms: C_17  and  C_18
REMARK    6  A    between atoms: C_18  and  N_20
REMARK    7  A    between atoms: C_21  and  C_23
REMARK    8  A    between atoms: C_24  and  C_26
REMARK                            x       y       z     vdW  Elec       q    Type
REMARK                         _______ _______ _______ _____ _____    ______ ____
ROOT
ATOM      1  C   UNL     1      35.079 -20.012 -21.521  0.00  0.00    +0.000 C 
ENDROOT
BRANCH   1   4
ATOM      2  O   UNL     1      33.421 -14.790 -24.478  0.00  0.00    -0.270 OA
ATOM      3  N   UNL     1      34.632 -15.952 -22.850  0.00  0.00    -0.276 N 
ATOM      4  C   UNL     1      35.425 -18.587 -21.947  0.00  0.00    +0.003 C 
ATOM      5  C   UNL     1      34.788 -17.562 -20.996  0.00  0.00    +0.022 C 
ATOM      6  C   UNL     1      34.976 -18.325 -23.394  0.00  0.00    +0.022 C 
ATOM      7  C   UNL     1      35.066 -16.134 -21.459  0.00  0.00    +0.094 C 
ATOM      8  C   UNL     1      35.242 -16.878 -23.804  0.00  0.00    +0.094 C 
ATOM      9  C   UNL     1      33.752 -14.969 -23.307  0.00  0.00    +0.249 C 
BRANCH   9  10
ATOM     10  C   UNL     1      33.149 -14.065 -22.320  0.00  0.00    +0.054 C 
ATOM     11  C   UNL     1      32.958 -12.719 -22.631  0.00  0.00    +0.005 C 
ATOM     12  C   UNL     1      32.768 -14.552 -21.070  0.00  0.00    +0.005 C 
ATOM     13  C   UNL     1      32.386 -11.861 -21.693  0.00  0.00    +0.000 C 
ATOM     14  C   UNL     1      32.195 -13.694 -20.131  0.00  0.00    +0.000 C 
ATOM     15  C   UNL     1      32.004 -12.347 -20.443  0.00  0.00    +0.000 C 
ENDBRANCH   9  10
ENDBRANCH   1   4
BRANCH   1  16
ATOM     16  C   UNL     1      33.887 -20.030 -20.567  0.00  0.00    +0.002 C 
BRANCH  16  17
ATOM     17  C   UNL     1      34.032 -21.139 -19.526  0.00  0.00    +0.021 C 
BRANCH  17  18
ATOM     18  C   UNL     1      35.490 -21.544 -19.345  0.00  0.00    +0.090 C 
BRANCH  18  20
ATOM     19  O   UNL     1      37.354 -20.910 -17.219  0.00  0.00    -0.270 OA
ATOM     20  N   UNL     1      35.690 -22.264 -18.117  0.00  0.00    -0.301 N 
ATOM     21  C   UNL     1      36.612 -21.884 -17.150  0.00  0.00    +0.246 C 
ATOM     22  H   UNL     1      35.146 -23.068 -17.954  0.00  0.00    +0.150 HD
BRANCH  21  23
ATOM     23  C   UNL     1      36.610 -22.808 -15.980  0.00  0.00    +0.058 C 
ATOM     24  C   UNL     1      37.771 -23.225 -15.454  0.00  0.00    +0.006 C 
BRANCH  24  26
ATOM     25  N   UNL     1      38.593 -26.263 -13.407  0.00  0.00    -0.242 NA
ATOM     26  C   UNL     1      37.888 -24.128 -14.296  0.00  0.00    +0.019 C 
ATOM     27  C   UNL     1      37.435 -23.746 -13.039  0.00  0.00    +0.003 C 
ATOM     28  C   UNL     1      38.455 -25.386 -14.426  0.00  0.00    +0.099 C 
ATOM     29  C   UNL     1      37.559 -24.620 -11.965  0.00  0.00    +0.021 C 
ATOM     30  C   UNL     1      38.140 -25.856 -12.199  0.00  0.00    +0.099 C 
ENDBRANCH  24  26
ENDBRANCH  21  23
ENDBRANCH  18  20
ENDBRANCH  17  18
ENDBRANCH  16  17
ENDBRANCH   1  16
TORSDOF 8
ENDMDL
MODEL 6
REMARK VINA RESULT:     -10.7      5.462     13.565
REMARK  Name = 6914657
REMARK  8 active torsions:
REMARK  status: ('A' for Active; 'I' for Inactive)
REMARK    1  A    between atoms: C_1  and  C_4
REMARK    2  A    between atoms: C_1  and  C_16
REMARK    3  A    between atoms: C_9  and  C_10
REMARK    4  A    between atoms: C_16  and  C_17
REMARK    5  A    between atoms: C_17  and  C_18
REMARK    6  A    between atoms: C_18  and  N_20
REMARK    7  A    between atoms: C_21  and  C_23
REMARK    8  A    between atoms: C_24  and  C_26
REMARK                            x       y       z     vdW  Elec       q    Type
REMARK                         _______ _______ _______ _____ _____    ______ ____
ROOT
ATOM      1  C   UNL     1      33.760 -23.149 -18.460  0.00  0.00    +0.000 C 
ENDROOT
BRANCH   1   4
ATOM      2  O   UNL     1      33.431 -24.805 -12.467  0.00  0.00    -0.270 OA
ATOM      3  N   UNL     1      34.123 -23.379 -14.187  0.00  0.00    -0.276 N 
ATOM      4  C   UNL     1      33.777 -22.738 -16.990  0.00  0.00    +0.003 C 
ATOM      5  C   UNL     1      35.168 -22.964 -16.375  0.00  0.00    +0.022 C 
ATOM      6  C   UNL     1      32.710 -23.509 -16.195  0.00  0.00    +0.022 C 
ATOM      7  C   UNL     1      35.172 -22.627 -14.886  0.00  0.00    +0.094 C 
ATOM      8  C   UNL     1      32.772 -23.168 -14.707  0.00  0.00    +0.094 C 
ATOM      9  C   UNL     1      34.315 -24.208 -13.079  0.00  0.00    +0.249 C 
BRANCH   9  10
ATOM     10  C   UNL     1      35.686 -24.407 -12.592  0.00  0.00    +0.054 C 
ATOM     11  C   UNL     1      36.446 -25.476 -13.066  0.00  0.00    +0.005 C 
ATOM     12  C   UNL     1      36.228 -23.527 -11.656  0.00  0.00    +0.005 C 
ATOM     13  C   UNL     1      37.748 -25.666 -12.604  0.00  0.00    +0.000 C 
ATOM     14  C   UNL     1      37.531 -23.716 -11.194  0.00  0.00    +0.000 C 
ATOM     15  C   UNL     1      38.291 -24.786 -11.668  0.00  0.00    +0.000 C 
ENDBRANCH   9  10
ENDBRANCH   1   4
BRANCH   1  16
ATOM     16  C   UNL     1      34.189 -21.995 -19.362  0.00  0.00    +0.002 C 
BRANCH  16  17
ATOM     17  C   UNL     1      35.690 -22.048 -19.646  0.00  0.00    +0.021 C 
BRANCH  17  18
ATOM     18  C   UNL     1      36.298 -20.651 -19.675  0.00  0.00    +0.090 C 
BRANCH  18  20
ATOM     19  O   UNL     1      37.519 -18.683 -21.417  0.00  0.00    -0.270 OA
ATOM     20  N   UNL     1      35.639 -19.807 -20.635  0.00  0.00    -0.301 N 
ATOM     21  C   UNL     1      36.310 -18.887 -21.431  0.00  0.00    +0.246 C 
ATOM     22  H   UNL     1      34.663 -19.885 -20.732  0.00  0.00    +0.150 HD
BRANCH  21  23
ATOM     23  C   UNL     1      35.383 -18.148 -22.336  0.00  0.00    +0.058 C 
ATOM     24  C   UNL     1      35.716 -16.930 -22.784  0.00  0.00    +0.006 C 
BRANCH  24  26
ATOM     25  N   UNL     1      34.088 -15.675 -25.927  0.00  0.00    -0.242 NA
ATOM     26  C   UNL     1      34.885 -16.114 -23.687  0.00  0.00    +0.019 C 
ATOM     27  C   UNL     1      34.131 -15.051 -23.203  0.00  0.00    +0.003 C 
ATOM     28  C   UNL     1      34.829 -16.383 -25.045  0.00  0.00    +0.099 C 
ATOM     29  C   UNL     1      33.356 -14.299 -24.079  0.00  0.00    +0.021 C 
ATOM     30  C   UNL     1      33.369 -14.648 -25.419  0.00  0.00    +0.099 C 
ENDBRANCH  24  26
ENDBRANCH  21  23
ENDBRANCH  18  20
ENDBRANCH  17  18
ENDBRANCH  16  17
ENDBRANCH   1  16
TORSDOF 8
ENDMDL
MODEL 7
REMARK VINA RESULT:     -10.6      3.843     12.611
REMARK  Name = 6914657
REMARK  8 active torsions:
REMARK  status: ('A' for Active; 'I' for Inactive)
REMARK    1  A    between atoms: C_1  and  C_4
REMARK    2  A    between atoms: C_1  and  C_16
REMARK    3  A    between atoms: C_9  and  C_10
REMARK    4  A    between atoms: C_16  and  C_17
REMARK    5  A    between atoms: C_17  and  C_18
REMARK    6  A    between atoms: C_18  and  N_20
REMARK    7  A    between atoms: C_21  and  C_23
REMARK    8  A    between atoms: C_24  and  C_26
REMARK                            x       y       z     vdW  Elec       q    Type
REMARK                         _______ _______ _______ _____ _____    ______ ____
ROOT
ATOM      1  C   UNL     1      35.701 -21.130 -19.427  0.00  0.00    +0.000 C 
ENDROOT
BRANCH   1   4
ATOM      2  O   UNL     1      33.530 -23.199 -13.970  0.00  0.00    -0.270 OA
ATOM      3  N   UNL     1      33.886 -23.410 -16.272  0.00  0.00    -0.276 N 
ATOM      4  C   UNL     1      35.312 -22.311 -18.540  0.00  0.00    +0.003 C 
ATOM      5  C   UNL     1      33.793 -22.543 -18.572  0.00  0.00    +0.022 C 
ATOM      6  C   UNL     1      35.788 -22.088 -17.095  0.00  0.00    +0.022 C 
ATOM      7  C   UNL     1      33.389 -23.672 -17.628  0.00  0.00    +0.094 C 
ATOM      8  C   UNL     1      35.333 -23.222 -16.179  0.00  0.00    +0.094 C 
ATOM      9  C   UNL     1      33.109 -23.377 -15.112  0.00  0.00    +0.249 C 
BRANCH   9  10
ATOM     10  C   UNL     1      31.658 -23.556 -15.245  0.00  0.00    +0.054 C 
ATOM     11  C   UNL     1      30.911 -22.659 -16.008  0.00  0.00    +0.005 C 
ATOM     12  C   UNL     1      31.025 -24.624 -14.608  0.00  0.00    +0.005 C 
ATOM     13  C   UNL     1      29.533 -22.829 -16.134  0.00  0.00    +0.000 C 
ATOM     14  C   UNL     1      29.647 -24.795 -14.735  0.00  0.00    +0.000 C 
ATOM     15  C   UNL     1      28.900 -23.896 -15.498  0.00  0.00    +0.000 C 
ENDBRANCH   9  10
ENDBRANCH   1   4
BRANCH   1  16
ATOM     16  C   UNL     1      34.473 -20.505 -20.084  0.00  0.00    +0.002 C 
BRANCH  16  17
ATOM     17  C   UNL     1      34.844 -19.805 -21.390  0.00  0.00    +0.021 C 
BRANCH  17  18
ATOM     18  C   UNL     1      35.909 -18.738 -21.165  0.00  0.00    +0.090 C 
BRANCH  18  20
ATOM     19  O   UNL     1      35.114 -16.707 -23.073  0.00  0.00    -0.270 OA
ATOM     20  N   UNL     1      35.322 -17.456 -20.881  0.00  0.00    -0.301 N 
ATOM     21  C   UNL     1      34.971 -16.542 -21.866  0.00  0.00    +0.246 C 
ATOM     22  H   UNL     1      35.161 -17.216 -19.940  0.00  0.00    +0.150 HD
BRANCH  21  23
ATOM     23  C   UNL     1      34.384 -15.298 -21.291  0.00  0.00    +0.058 C 
ATOM     24  C   UNL     1      33.474 -14.603 -21.989  0.00  0.00    +0.006 C 
BRANCH  24  26
ATOM     25  N   UNL     1      32.159 -11.086 -21.960  0.00  0.00    -0.242 NA
ATOM     26  C   UNL     1      32.822 -13.369 -21.518  0.00  0.00    +0.019 C 
ATOM     27  C   UNL     1      32.267 -13.291 -20.246  0.00  0.00    +0.003 C 
ATOM     28  C   UNL     1      32.742 -12.249 -22.330  0.00  0.00    +0.099 C 
ATOM     29  C   UNL     1      31.659 -12.112 -19.829  0.00  0.00    +0.021 C 
ATOM     30  C   UNL     1      31.632 -11.048 -20.716  0.00  0.00    +0.099 C 
ENDBRANCH  24  26
ENDBRANCH  21  23
ENDBRANCH  18  20
ENDBRANCH  17  18
ENDBRANCH  16  17
ENDBRANCH   1  16
TORSDOF 8
ENDMDL
MODEL 8
REMARK VINA RESULT:     -10.5      3.655      7.366
REMARK  Name = 6914657
REMARK  8 active torsions:
REMARK  status: ('A' for Active; 'I' for Inactive)
REMARK    1  A    between atoms: C_1  and  C_4
REMARK    2  A    between atoms: C_1  and  C_16
REMARK    3  A    between atoms: C_9  and  C_10
REMARK    4  A    between atoms: C_16  and  C_17
REMARK    5  A    between atoms: C_17  and  C_18
REMARK    6  A    between atoms: C_18  and  N_20
REMARK    7  A    between atoms: C_21  and  C_23
REMARK    8  A    between atoms: C_24  and  C_26
REMARK                            x       y       z     vdW  Elec       q    Type
REMARK                         _______ _______ _______ _____ _____    ______ ____
ROOT
ATOM      1  C   UNL     1      35.319 -19.471 -22.117  0.00  0.00    +0.000 C 
ENDROOT
BRANCH   1   4
ATOM      2  O   UNL     1      33.019 -14.228 -24.564  0.00  0.00    -0.270 OA
ATOM      3  N   UNL     1      34.464 -15.387 -23.137  0.00  0.00    -0.276 N 
ATOM      4  C   UNL     1      35.522 -18.003 -22.483  0.00  0.00    +0.003 C 
ATOM      5  C   UNL     1      34.914 -17.083 -21.412  0.00  0.00    +0.022 C 
ATOM      6  C   UNL     1      34.913 -17.694 -23.861  0.00  0.00    +0.022 C 
ATOM      7  C   UNL     1      35.046 -15.614 -21.809  0.00  0.00    +0.094 C 
ATOM      8  C   UNL     1      35.036 -16.210 -24.202  0.00  0.00    +0.094 C 
ATOM      9  C   UNL     1      33.477 -14.448 -23.444  0.00  0.00    +0.249 C 
BRANCH   9  10
ATOM     10  C   UNL     1      32.916 -13.649 -22.348  0.00  0.00    +0.054 C 
ATOM     11  C   UNL     1      32.689 -12.283 -22.525  0.00  0.00    +0.005 C 
ATOM     12  C   UNL     1      32.609 -14.254 -21.130  0.00  0.00    +0.005 C 
ATOM     13  C   UNL     1      32.157 -11.524 -21.483  0.00  0.00    +0.000 C 
ATOM     14  C   UNL     1      32.075 -13.495 -20.088  0.00  0.00    +0.000 C 
ATOM     15  C   UNL     1      31.850 -12.129 -20.265  0.00  0.00    +0.000 C 
ENDBRANCH   9  10
ENDBRANCH   1   4
BRANCH   1  16
ATOM     16  C   UNL     1      35.793 -19.757 -20.695  0.00  0.00    +0.002 C 
BRANCH  16  17
ATOM     17  C   UNL     1      34.837 -20.709 -19.977  0.00  0.00    +0.021 C 
BRANCH  17  18
ATOM     18  C   UNL     1      35.498 -22.054 -19.699  0.00  0.00    +0.090 C 
BRANCH  18  20
ATOM     19  O   UNL     1      32.935 -22.815 -18.583  0.00  0.00    -0.270 OA
ATOM     20  N   UNL     1      35.230 -22.509 -18.362  0.00  0.00    -0.301 N 
ATOM     21  C   UNL     1      33.962 -22.854 -17.913  0.00  0.00    +0.246 C 
ATOM     22  H   UNL     1      35.985 -22.581 -17.734  0.00  0.00    +0.150 HD
BRANCH  21  23
ATOM     23  C   UNL     1      33.972 -23.293 -16.488  0.00  0.00    +0.058 C 
ATOM     24  C   UNL     1      35.046 -23.053 -15.721  0.00  0.00    +0.006 C 
BRANCH  24  26
ATOM     25  N   UNL     1      34.097 -24.238 -12.287  0.00  0.00    -0.242 NA
ATOM     26  C   UNL     1      35.162 -23.432 -14.302  0.00  0.00    +0.019 C 
ATOM     27  C   UNL     1      36.381 -23.357 -13.637  0.00  0.00    +0.003 C 
ATOM     28  C   UNL     1      34.060 -23.875 -13.589  0.00  0.00    +0.099 C 
ATOM     29  C   UNL     1      36.459 -23.721 -12.298  0.00  0.00    +0.021 C 
ATOM     30  C   UNL     1      35.299 -24.150 -11.673  0.00  0.00    +0.099 C 
ENDBRANCH  24  26
ENDBRANCH  21  23
ENDBRANCH  18  20
ENDBRANCH  17  18
ENDBRANCH  16  17
ENDBRANCH   1  16
TORSDOF 8
ENDMDL
MODEL 9
REMARK VINA RESULT:     -10.5      6.232     13.147
REMARK  Name = 6914657
REMARK  8 active torsions:
REMARK  status: ('A' for Active; 'I' for Inactive)
REMARK    1  A    between atoms: C_1  and  C_4
REMARK    2  A    between atoms: C_1  and  C_16
REMARK    3  A    between atoms: C_9  and  C_10
REMARK    4  A    between atoms: C_16  and  C_17
REMARK    5  A    between atoms: C_17  and  C_18
REMARK    6  A    between atoms: C_18  and  N_20
REMARK    7  A    between atoms: C_21  and  C_23
REMARK    8  A    between atoms: C_24  and  C_26
REMARK                            x       y       z     vdW  Elec       q    Type
REMARK                         _______ _______ _______ _____ _____    ______ ____
ROOT
ATOM      1  C   UNL     1      36.373 -22.128 -15.221  0.00  0.00    +0.000 C 
ENDROOT
BRANCH   1   4
ATOM      2  O   UNL     1      31.354 -24.679 -12.562  0.00  0.00    -0.270 OA
ATOM      3  N   UNL     1      32.832 -24.399 -14.352  0.00  0.00    -0.276 N 
ATOM      4  C   UNL     1      35.394 -23.296 -15.134  0.00  0.00    +0.003 C 
ATOM      5  C   UNL     1      34.107 -22.991 -15.916  0.00  0.00    +0.022 C 
ATOM      6  C   UNL     1      35.063 -23.624 -13.668  0.00  0.00    +0.022 C 
ATOM      7  C   UNL     1      33.092 -24.122 -15.770  0.00  0.00    +0.094 C 
ATOM      8  C   UNL     1      34.021 -24.736 -13.570  0.00  0.00    +0.094 C 
ATOM      9  C   UNL     1      31.576 -24.406 -13.740  0.00  0.00    +0.249 C 
BRANCH   9  10
ATOM     10  C   UNL     1      30.408 -24.049 -14.554  0.00  0.00    +0.054 C 
ATOM     11  C   UNL     1      29.730 -25.035 -15.272  0.00  0.00    +0.005 C 
ATOM     12  C   UNL     1      29.973 -22.725 -14.609  0.00  0.00    +0.005 C 
ATOM     13  C   UNL     1      28.620 -24.697 -16.045  0.00  0.00    +0.000 C 
ATOM     14  C   UNL     1      28.862 -22.387 -15.382  0.00  0.00    +0.000 C 
ATOM     15  C   UNL     1      28.186 -23.373 -16.100  0.00  0.00    +0.000 C 
ENDBRANCH   9  10
ENDBRANCH   1   4
BRANCH   1  16
ATOM     16  C   UNL     1      37.372 -22.328 -16.357  0.00  0.00    +0.002 C 
BRANCH  16  17
ATOM     17  C   UNL     1      37.150 -21.305 -17.471  0.00  0.00    +0.021 C 
BRANCH  17  18
ATOM     18  C   UNL     1      36.341 -21.901 -18.618  0.00  0.00    +0.090 C 
BRANCH  18  20
ATOM     19  O   UNL     1      33.621 -21.645 -19.583  0.00  0.00    -0.270 OA
ATOM     20  N   UNL     1      35.815 -20.879 -19.481  0.00  0.00    -0.301 N 
ATOM     21  C   UNL     1      34.490 -20.836 -19.894  0.00  0.00    +0.246 C 
ATOM     22  H   UNL     1      36.426 -20.173 -19.794  0.00  0.00    +0.150 HD
BRANCH  21  23
ATOM     23  C   UNL     1      34.217 -19.670 -20.782  0.00  0.00    +0.058 C 
ATOM     24  C   UNL     1      35.230 -18.911 -21.221  0.00  0.00    +0.006 C 
BRANCH  24  26
ATOM     25  N   UNL     1      34.760 -15.358 -22.344  0.00  0.00    -0.242 NA
ATOM     26  C   UNL     1      35.079 -17.744 -22.107  0.00  0.00    +0.019 C 
ATOM     27  C   UNL     1      35.107 -17.884 -23.490  0.00  0.00    +0.003 C 
ATOM     28  C   UNL     1      34.905 -16.470 -21.588  0.00  0.00    +0.099 C 
ATOM     29  C   UNL     1      34.961 -16.764 -24.301  0.00  0.00    +0.021 C 
ATOM     30  C   UNL     1      34.792 -15.535 -23.684  0.00  0.00    +0.099 C 
ENDBRANCH  24  26
ENDBRANCH  21  23
ENDBRANCH  18  20
ENDBRANCH  17  18
ENDBRANCH  16  17
ENDBRANCH   1  16
TORSDOF 8
ENDMDL
