MODEL 1
REMARK VINA RESULT:     -11.0      0.000      0.000
REMARK  Name = 656948
REMARK  8 active torsions:
REMARK  status: ('A' for Active; 'I' for Inactive)
REMARK    1  A    between atoms: N_1  and  C_3
REMARK    2  A    between atoms: N_1  and  C_18
REMARK    3  A    between atoms: C_6  and  C_10
REMARK    4  A    between atoms: C_10  and  O_11
REMARK    5  A    between atoms: O_11  and  P_12
REMARK    6  A    between atoms: P_12  and  O_14
REMARK    7  A    between atoms: P_12  and  O_16
REMARK    8  A    between atoms: C_18  and  C_25
REMARK                            x       y       z     vdW  Elec       q    Type
REMARK                         _______ _______ _______ _____ _____    ______ ____
ROOT
ATOM      1  N   UNL     1      35.793 -19.384 -21.602  0.00  0.00    -0.327 N 
ATOM      2  H   UNL     1      36.716 -19.089 -21.430  0.00  0.00    +0.147 HD
ENDROOT
BRANCH   1   3
ATOM      3  C   UNL     1      35.180 -20.194 -20.662  0.00  0.00    +0.045 C 
ATOM      4  C   UNL     1      33.781 -20.177 -20.493  0.00  0.00    +0.015 C 
ATOM      5  C   UNL     1      35.936 -21.059 -19.848  0.00  0.00    +0.015 C 
ATOM      6  C   UNL     1      33.932 -21.842 -18.749  0.00  0.00    +0.076 C 
ATOM      7  C   UNL     1      33.164 -20.993 -19.546  0.00  0.00    +0.008 C 
ATOM      8  C   UNL     1      35.317 -21.875 -18.900  0.00  0.00    +0.008 C 
BRANCH   6  10
ATOM      9  O   UNL     1      32.082 -22.672 -17.485  0.00  0.00    -0.245 OA
ATOM     10  C   UNL     1      33.287 -22.694 -17.762  0.00  0.00    +0.348 C 
BRANCH  10  11
ATOM     11  O   UNL     1      34.173 -23.537 -17.161  0.00  0.00    -0.368 OA
BRANCH  11  12
ATOM     12  P   UNL     1      34.512 -23.580 -15.580  0.00  0.00    +0.530 P 
ATOM     13  O   UNL     1      35.259 -22.383 -15.063  0.00  0.00    -0.216 OA
BRANCH  12  14
ATOM     14  O   UNL     1      35.261 -24.999 -15.388  0.00  0.00    -0.293 OA
ATOM     15  H   UNL     1      35.478 -25.371 -16.258  0.00  0.00    +0.223 HD
ENDBRANCH  12  14
BRANCH  12  16
ATOM     16  O   UNL     1      33.064 -23.825 -14.905  0.00  0.00    -0.293 OA
ATOM     17  H   UNL     1      32.573 -22.990 -14.882  0.00  0.00    +0.223 HD
ENDBRANCH  12  16
ENDBRANCH  11  12
ENDBRANCH  10  11
ENDBRANCH   6  10
ENDBRANCH   1   3
BRANCH   1  18
ATOM     18  C   UNL     1      35.150 -18.948 -22.824  0.00  0.00    +0.145 C 
BRANCH  18  25
ATOM     19  O   UNL     1      33.856 -15.574 -26.187  0.00  0.00    -0.206 OA
ATOM     20  N   UNL     1      34.579 -16.893 -23.979  0.00  0.00    -0.391 NA
ATOM     21  N   UNL     1      34.356 -13.427 -22.851  0.00  0.00    -0.259 N 
ATOM     22  N   UNL     1      34.934 -15.409 -21.623  0.00  0.00    -0.246 NA
ATOM     23  N   UNL     1      33.809 -13.513 -25.168  0.00  0.00    -0.300 NA
ATOM     24  N   UNL     1      33.811 -11.498 -23.969  0.00  0.00    -0.320 N 
ATOM     25  C   UNL     1      34.940 -17.474 -22.820  0.00  0.00    +0.132 C 
ATOM     26  C   UNL     1      34.400 -15.557 -23.927  0.00  0.00    +0.255 C 
ATOM     27  C   UNL     1      34.571 -14.806 -22.775  0.00  0.00    +0.173 C 
ATOM     28  C   UNL     1      35.115 -16.745 -21.664  0.00  0.00    +0.183 C 
ATOM     29  C   UNL     1      34.002 -14.883 -25.183  0.00  0.00    +0.240 C 
ATOM     30  C   UNL     1      33.986 -12.857 -24.049  0.00  0.00    +0.249 C 
ATOM     31  H   UNL     1      34.469 -12.865 -22.050  0.00  0.00    +0.157 HD
ATOM     32  H   UNL     1      33.953 -11.033 -23.113  0.00  0.00    +0.146 HD
ATOM     33  H   UNL     1      33.546 -10.987 -24.768  0.00  0.00    +0.146 HD
ENDBRANCH  18  25
ENDBRANCH   1  18
TORSDOF 8
ENDMDL
MODEL 2
REMARK VINA RESULT:     -11.0      0.962      1.468
REMARK  Name = 656948
REMARK  8 active torsions:
REMARK  status: ('A' for Active; 'I' for Inactive)
REMARK    1  A    between atoms: N_1  and  C_3
REMARK    2  A    between atoms: N_1  and  C_18
REMARK    3  A    between atoms: C_6  and  C_10
REMARK    4  A    between atoms: C_10  and  O_11
REMARK    5  A    between atoms: O_11  and  P_12
REMARK    6  A    between atoms: P_12  and  O_14
REMARK    7  A    between atoms: P_12  and  O_16
REMARK    8  A    between atoms: C_18  and  C_25
REMARK                            x       y       z     vdW  Elec       q    Type
REMARK                         _______ _______ _______ _____ _____    ______ ____
ROOT
ATOM      1  N   UNL     1      34.260 -19.696 -21.754  0.00  0.00    -0.327 N 
ATOM      2  H   UNL     1      33.380 -19.649 -22.194  0.00  0.00    +0.147 HD
ENDROOT
BRANCH   1   3
ATOM      3  C   UNL     1      34.379 -20.468 -20.612  0.00  0.00    +0.045 C 
ATOM      4  C   UNL     1      35.645 -20.816 -20.102  0.00  0.00    +0.015 C 
ATOM      5  C   UNL     1      33.238 -20.930 -19.928  0.00  0.00    +0.015 C 
ATOM      6  C   UNL     1      34.621 -22.041 -18.288  0.00  0.00    +0.076 C 
ATOM      7  C   UNL     1      35.765 -21.594 -18.951  0.00  0.00    +0.008 C 
ATOM      8  C   UNL     1      33.358 -21.709 -18.777  0.00  0.00    +0.008 C 
BRANCH   6  10
ATOM      9  O   UNL     1      33.887 -23.636 -16.667  0.00  0.00    -0.245 OA
ATOM     10  C   UNL     1      34.747 -22.853 -17.088  0.00  0.00    +0.348 C 
BRANCH  10  11
ATOM     11  O   UNL     1      35.940 -22.653 -16.460  0.00  0.00    -0.368 OA
BRANCH  11  12
ATOM     12  P   UNL     1      36.406 -23.346 -15.076  0.00  0.00    +0.530 P 
ATOM     13  O   UNL     1      37.789 -22.977 -14.621  0.00  0.00    -0.216 OA
BRANCH  12  14
ATOM     14  O   UNL     1      36.160 -24.922 -15.336  0.00  0.00    -0.293 OA
ATOM     15  H   UNL     1      37.010 -25.390 -15.316  0.00  0.00    +0.223 HD
ENDBRANCH  12  14
BRANCH  12  16
ATOM     16  O   UNL     1      35.221 -22.945 -14.052  0.00  0.00    -0.293 OA
ATOM     17  H   UNL     1      34.540 -22.445 -14.527  0.00  0.00    +0.223 HD
ENDBRANCH  12  16
ENDBRANCH  11  12
ENDBRANCH  10  11
ENDBRANCH   6  10
ENDBRANCH   1   3
BRANCH   1  18
ATOM     18  C   UNL     1      35.358 -18.953 -22.337  0.00  0.00    +0.145 C 
BRANCH  18  25
ATOM     19  O   UNL     1      34.170 -15.744 -25.894  0.00  0.00    -0.206 OA
ATOM     20  N   UNL     1      34.763 -16.966 -23.594  0.00  0.00    -0.391 NA
ATOM     21  N   UNL     1      34.198 -13.503 -22.583  0.00  0.00    -0.259 N 
ATOM     22  N   UNL     1      34.788 -15.415 -21.254  0.00  0.00    -0.246 NA
ATOM     23  N   UNL     1      33.885 -13.673 -24.939  0.00  0.00    -0.300 NA
ATOM     24  N   UNL     1      33.636 -11.639 -23.798  0.00  0.00    -0.320 N 
ATOM     25  C   UNL     1      35.050 -17.499 -22.391  0.00  0.00    +0.132 C 
ATOM     26  C   UNL     1      34.490 -15.646 -23.594  0.00  0.00    +0.255 C 
ATOM     27  C   UNL     1      34.498 -14.863 -22.451  0.00  0.00    +0.173 C 
ATOM     28  C   UNL     1      35.062 -16.736 -21.243  0.00  0.00    +0.183 C 
ATOM     29  C   UNL     1      34.171 -15.026 -24.899  0.00  0.00    +0.240 C 
ATOM     30  C   UNL     1      33.909 -12.984 -23.826  0.00  0.00    +0.249 C 
ATOM     31  H   UNL     1      34.195 -12.919 -21.791  0.00  0.00    +0.157 HD
ATOM     32  H   UNL     1      33.662 -11.149 -22.945  0.00  0.00    +0.146 HD
ATOM     33  H   UNL     1      33.415 -11.164 -24.632  0.00  0.00    +0.146 HD
ENDBRANCH  18  25
ENDBRANCH   1  18
TORSDOF 8
ENDMDL
MODEL 3
REMARK VINA RESULT:     -10.9      4.485     10.146
REMARK  Name = 656948
REMARK  8 active torsions:
REMARK  status: ('A' for Active; 'I' for Inactive)
REMARK    1  A    between atoms: N_1  and  C_3
REMARK    2  A    between atoms: N_1  and  C_18
REMARK    3  A    between atoms: C_6  and  C_10
REMARK    4  A    between atoms: C_10  and  O_11
REMARK    5  A    between atoms: O_11  and  P_12
REMARK    6  A    between atoms: P_12  and  O_14
REMARK    7  A    between atoms: P_12  and  O_16
REMARK    8  A    between atoms: C_18  and  C_25
REMARK                            x       y       z     vdW  Elec       q    Type
REMARK                         _______ _______ _______ _____ _____    ______ ____
ROOT
ATOM      1  N   UNL     1      34.789 -20.363 -20.503  0.00  0.00    -0.327 N 
ATOM      2  H   UNL     1      35.628 -20.672 -20.090  0.00  0.00    +0.147 HD
ENDROOT
BRANCH   1   3
ATOM      3  C   UNL     1      34.856 -19.334 -21.426  0.00  0.00    +0.045 C 
ATOM      4  C   UNL     1      34.737 -19.589 -22.806  0.00  0.00    +0.015 C 
ATOM      5  C   UNL     1      35.046 -18.001 -21.011  0.00  0.00    +0.015 C 
ATOM      6  C   UNL     1      34.993 -17.239 -23.304  0.00  0.00    +0.076 C 
ATOM      7  C   UNL     1      34.805 -18.552 -23.735  0.00  0.00    +0.008 C 
ATOM      8  C   UNL     1      35.113 -16.964 -21.942  0.00  0.00    +0.008 C 
BRANCH   6  10
ATOM      9  O   UNL     1      35.110 -16.306 -25.500  0.00  0.00    -0.245 OA
ATOM     10  C   UNL     1      35.063 -16.158 -24.273  0.00  0.00    +0.348 C 
BRANCH  10  11
ATOM     11  O   UNL     1      35.072 -14.934 -23.672  0.00  0.00    -0.368 OA
BRANCH  11  12
ATOM     12  P   UNL     1      33.807 -13.934 -23.546  0.00  0.00    +0.530 P 
ATOM     13  O   UNL     1      32.984 -14.113 -22.303  0.00  0.00    -0.216 OA
BRANCH  12  14
ATOM     14  O   UNL     1      33.014 -14.145 -24.938  0.00  0.00    -0.293 OA
ATOM     15  H   UNL     1      33.133 -15.058 -25.244  0.00  0.00    +0.223 HD
ENDBRANCH  12  14
BRANCH  12  16
ATOM     16  O   UNL     1      34.481 -12.474 -23.716  0.00  0.00    -0.293 OA
ATOM     17  H   UNL     1      35.275 -12.548 -24.268  0.00  0.00    +0.223 HD
ENDBRANCH  12  16
ENDBRANCH  11  12
ENDBRANCH  10  11
ENDBRANCH   6  10
ENDBRANCH   1   3
BRANCH   1  18
ATOM     18  C   UNL     1      33.553 -21.009 -20.112  0.00  0.00    +0.145 C 
BRANCH  18  25
ATOM     19  O   UNL     1      30.518 -22.798 -16.655  0.00  0.00    -0.206 OA
ATOM     20  N   UNL     1      32.612 -22.079 -18.150  0.00  0.00    -0.391 NA
ATOM     21  N   UNL     1      34.150 -23.824 -15.334  0.00  0.00    -0.259 N 
ATOM     22  N   UNL     1      35.173 -22.789 -17.245  0.00  0.00    -0.246 NA
ATOM     23  N   UNL     1      31.786 -23.827 -15.037  0.00  0.00    -0.300 NA
ATOM     24  N   UNL     1      33.232 -24.829 -13.486  0.00  0.00    -0.320 N 
ATOM     25  C   UNL     1      33.723 -21.760 -18.839  0.00  0.00    +0.132 C 
ATOM     26  C   UNL     1      32.816 -22.760 -17.003  0.00  0.00    +0.255 C 
ATOM     27  C   UNL     1      34.071 -23.119 -16.539  0.00  0.00    +0.173 C 
ATOM     28  C   UNL     1      34.981 -22.108 -18.394  0.00  0.00    +0.183 C 
ATOM     29  C   UNL     1      31.617 -23.128 -16.219  0.00  0.00    +0.240 C 
ATOM     30  C   UNL     1      32.997 -24.138 -14.648  0.00  0.00    +0.249 C 
ATOM     31  H   UNL     1      35.027 -24.094 -14.977  0.00  0.00    +0.157 HD
ATOM     32  H   UNL     1      34.155 -25.048 -13.221  0.00  0.00    +0.146 HD
ATOM     33  H   UNL     1      32.478 -25.105 -12.916  0.00  0.00    +0.146 HD
ENDBRANCH  18  25
ENDBRANCH   1  18
TORSDOF 8
ENDMDL
MODEL 4
REMARK VINA RESULT:     -10.9      9.141     11.794
REMARK  Name = 656948
REMARK  8 active torsions:
REMARK  status: ('A' for Active; 'I' for Inactive)
REMARK    1  A    between atoms: N_1  and  C_3
REMARK    2  A    between atoms: N_1  and  C_18
REMARK    3  A    between atoms: C_6  and  C_10
REMARK    4  A    between atoms: C_10  and  O_11
REMARK    5  A    between atoms: O_11  and  P_12
REMARK    6  A    between atoms: P_12  and  O_14
REMARK    7  A    between atoms: P_12  and  O_16
REMARK    8  A    between atoms: C_18  and  C_25
REMARK                            x       y       z     vdW  Elec       q    Type
REMARK                         _______ _______ _______ _____ _____    ______ ____
ROOT
ATOM      1  N   UNL     1      33.367 -23.146 -13.785  0.00  0.00    -0.327 N 
ATOM      2  H   UNL     1      34.016 -22.440 -14.007  0.00  0.00    +0.147 HD
ENDROOT
BRANCH   1   3
ATOM      3  C   UNL     1      32.168 -23.171 -14.475  0.00  0.00    +0.045 C 
ATOM      4  C   UNL     1      32.096 -22.754 -15.819  0.00  0.00    +0.015 C 
ATOM      5  C   UNL     1      30.984 -23.613 -13.854  0.00  0.00    +0.015 C 
ATOM      6  C   UNL     1      29.726 -23.221 -15.879  0.00  0.00    +0.076 C 
ATOM      7  C   UNL     1      30.888 -22.779 -16.514  0.00  0.00    +0.008 C 
ATOM      8  C   UNL     1      29.775 -23.638 -14.550  0.00  0.00    +0.008 C 
BRANCH   6  10
ATOM      9  O   UNL     1      27.853 -24.272 -16.925  0.00  0.00    -0.245 OA
ATOM     10  C   UNL     1      28.467 -23.247 -16.604  0.00  0.00    +0.348 C 
BRANCH  10  11
ATOM     11  O   UNL     1      28.024 -21.993 -16.902  0.00  0.00    -0.368 OA
BRANCH  11  12
ATOM     12  P   UNL     1      26.497 -21.588 -17.252  0.00  0.00    +0.530 P 
ATOM     13  O   UNL     1      26.282 -20.131 -17.543  0.00  0.00    -0.216 OA
BRANCH  12  14
ATOM     14  O   UNL     1      25.651 -22.178 -16.007  0.00  0.00    -0.293 OA
ATOM     15  H   UNL     1      26.105 -22.956 -15.647  0.00  0.00    +0.223 HD
ENDBRANCH  12  14
BRANCH  12  16
ATOM     16  O   UNL     1      26.126 -22.590 -18.465  0.00  0.00    -0.293 OA
ATOM     17  H   UNL     1      25.734 -23.401 -18.106  0.00  0.00    +0.223 HD
ENDBRANCH  12  16
ENDBRANCH  11  12
ENDBRANCH  10  11
ENDBRANCH   6  10
ENDBRANCH   1   3
BRANCH   1  18
ATOM     18  C   UNL     1      33.718 -24.101 -12.755  0.00  0.00    +0.145 C 
BRANCH  18  25
ATOM     19  O   UNL     1      36.599 -27.272 -15.206  0.00  0.00    -0.206 OA
ATOM     20  N   UNL     1      35.593 -25.378 -13.614  0.00  0.00    -0.391 NA
ATOM     21  N   UNL     1      39.170 -25.273 -12.886  0.00  0.00    -0.259 N 
ATOM     22  N   UNL     1      37.377 -23.958 -11.977  0.00  0.00    -0.246 NA
ATOM     23  N   UNL     1      38.772 -26.956 -14.525  0.00  0.00    -0.300 NA
ATOM     24  N   UNL     1      40.925 -26.497 -13.716  0.00  0.00    -0.320 N 
ATOM     25  C   UNL     1      35.174 -24.406 -12.783  0.00  0.00    +0.132 C 
ATOM     26  C   UNL     1      36.920 -25.618 -13.605  0.00  0.00    +0.255 C 
ATOM     27  C   UNL     1      37.817 -24.930 -12.804  0.00  0.00    +0.173 C 
ATOM     28  C   UNL     1      36.051 -23.710 -11.978  0.00  0.00    +0.183 C 
ATOM     29  C   UNL     1      37.416 -26.681 -14.507  0.00  0.00    +0.240 C 
ATOM     30  C   UNL     1      39.571 -26.272 -13.746  0.00  0.00    +0.249 C 
ATOM     31  H   UNL     1      39.833 -24.803 -12.330  0.00  0.00    +0.157 HD
ATOM     32  H   UNL     1      41.499 -25.966 -13.118  0.00  0.00    +0.146 HD
ATOM     33  H   UNL     1      41.321 -27.190 -14.292  0.00  0.00    +0.146 HD
ENDBRANCH  18  25
ENDBRANCH   1  18
TORSDOF 8
ENDMDL
MODEL 5
REMARK VINA RESULT:     -10.8      6.214     10.891
REMARK  Name = 656948
REMARK  8 active torsions:
REMARK  status: ('A' for Active; 'I' for Inactive)
REMARK    1  A    between atoms: N_1  and  C_3
REMARK    2  A    between atoms: N_1  and  C_18
REMARK    3  A    between atoms: C_6  and  C_10
REMARK    4  A    between atoms: C_10  and  O_11
REMARK    5  A    between atoms: O_11  and  P_12
REMARK    6  A    between atoms: P_12  and  O_14
REMARK    7  A    between atoms: P_12  and  O_16
REMARK    8  A    between atoms: C_18  and  C_25
REMARK                            x       y       z     vdW  Elec       q    Type
REMARK                         _______ _______ _______ _____ _____    ______ ____
ROOT
ATOM      1  N   UNL     1      34.077 -23.275 -17.272  0.00  0.00    -0.327 N 
ATOM      2  H   UNL     1      33.793 -24.190 -17.500  0.00  0.00    +0.147 HD
ENDROOT
BRANCH   1   3
ATOM      3  C   UNL     1      34.246 -22.367 -18.302  0.00  0.00    +0.045 C 
ATOM      4  C   UNL     1      35.530 -22.062 -18.794  0.00  0.00    +0.015 C 
ATOM      5  C   UNL     1      33.140 -21.723 -18.889  0.00  0.00    +0.015 C 
ATOM      6  C   UNL     1      34.591 -20.520 -20.400  0.00  0.00    +0.076 C 
ATOM      7  C   UNL     1      35.701 -21.147 -19.833  0.00  0.00    +0.008 C 
ATOM      8  C   UNL     1      33.312 -20.807 -19.928  0.00  0.00    +0.008 C 
BRANCH   6  10
ATOM      9  O   UNL     1      34.976 -19.866 -22.666  0.00  0.00    -0.245 OA
ATOM     10  C   UNL     1      34.770 -19.567 -21.484  0.00  0.00    +0.348 C 
BRANCH  10  11
ATOM     11  O   UNL     1      34.684 -18.278 -21.048  0.00  0.00    -0.368 OA
BRANCH  11  12
ATOM     12  P   UNL     1      35.168 -16.970 -21.867  0.00  0.00    +0.530 P 
ATOM     13  O   UNL     1      34.948 -15.665 -21.157  0.00  0.00    -0.216 OA
BRANCH  12  14
ATOM     14  O   UNL     1      34.424 -17.116 -23.294  0.00  0.00    -0.293 OA
ATOM     15  H   UNL     1      33.785 -17.845 -23.253  0.00  0.00    +0.223 HD
ENDBRANCH  12  14
BRANCH  12  16
ATOM     16  O   UNL     1      36.711 -17.308 -22.213  0.00  0.00    -0.293 OA
ATOM     17  H   UNL     1      36.747 -18.067 -22.815  0.00  0.00    +0.223 HD
ENDBRANCH  12  16
ENDBRANCH  11  12
ENDBRANCH  10  11
ENDBRANCH   6  10
ENDBRANCH   1   3
BRANCH   1  18
ATOM     18  C   UNL     1      34.294 -22.952 -15.877  0.00  0.00    +0.145 C 
BRANCH  18  25
ATOM     19  O   UNL     1      36.306 -27.387 -15.075  0.00  0.00    -0.206 OA
ATOM     20  N   UNL     1      35.790 -24.778 -15.319  0.00  0.00    -0.391 NA
ATOM     21  N   UNL     1      39.248 -24.844 -14.146  0.00  0.00    -0.259 N 
ATOM     22  N   UNL     1      37.840 -22.971 -14.676  0.00  0.00    -0.246 NA
ATOM     23  N   UNL     1      38.467 -27.085 -14.350  0.00  0.00    -0.300 NA
ATOM     24  N   UNL     1      40.642 -26.592 -13.625  0.00  0.00    -0.320 N 
ATOM     25  C   UNL     1      35.620 -23.446 -15.415  0.00  0.00    +0.132 C 
ATOM     26  C   UNL     1      37.007 -25.178 -14.897  0.00  0.00    +0.255 C 
ATOM     27  C   UNL     1      38.031 -24.304 -14.574  0.00  0.00    +0.173 C 
ATOM     28  C   UNL     1      36.626 -22.560 -15.098  0.00  0.00    +0.183 C 
ATOM     29  C   UNL     1      37.231 -26.637 -14.780  0.00  0.00    +0.240 C 
ATOM     30  C   UNL     1      39.396 -26.211 -14.058  0.00  0.00    +0.249 C 
ATOM     31  H   UNL     1      39.996 -24.250 -13.909  0.00  0.00    +0.157 HD
ATOM     32  H   UNL     1      41.319 -25.909 -13.413  0.00  0.00    +0.146 HD
ATOM     33  H   UNL     1      40.857 -27.547 -13.525  0.00  0.00    +0.146 HD
ENDBRANCH  18  25
ENDBRANCH   1  18
TORSDOF 8
ENDMDL
MODEL 6
REMARK VINA RESULT:     -10.7      1.269      2.187
REMARK  Name = 656948
REMARK  8 active torsions:
REMARK  status: ('A' for Active; 'I' for Inactive)
REMARK    1  A    between atoms: N_1  and  C_3
REMARK    2  A    between atoms: N_1  and  C_18
REMARK    3  A    between atoms: C_6  and  C_10
REMARK    4  A    between atoms: C_10  and  O_11
REMARK    5  A    between atoms: O_11  and  P_12
REMARK    6  A    between atoms: P_12  and  O_14
REMARK    7  A    between atoms: P_12  and  O_16
REMARK    8  A    between atoms: C_18  and  C_25
REMARK                            x       y       z     vdW  Elec       q    Type
REMARK                         _______ _______ _______ _____ _____    ______ ____
ROOT
ATOM      1  N   UNL     1      35.902 -19.794 -20.947  0.00  0.00    -0.327 N 
ATOM      2  H   UNL     1      36.796 -19.444 -20.727  0.00  0.00    +0.147 HD
ENDROOT
BRANCH   1   3
ATOM      3  C   UNL     1      35.280 -20.621 -20.029  0.00  0.00    +0.045 C 
ATOM      4  C   UNL     1      36.034 -21.405 -19.133  0.00  0.00    +0.015 C 
ATOM      5  C   UNL     1      33.876 -20.704 -19.963  0.00  0.00    +0.015 C 
ATOM      6  C   UNL     1      34.014 -22.306 -18.160  0.00  0.00    +0.076 C 
ATOM      7  C   UNL     1      35.407 -22.239 -18.208  0.00  0.00    +0.008 C 
ATOM      8  C   UNL     1      33.249 -21.538 -19.037  0.00  0.00    +0.008 C 
BRANCH   6  10
ATOM      9  O   UNL     1      33.946 -23.896 -16.378  0.00  0.00    -0.245 OA
ATOM     10  C   UNL     1      33.360 -23.174 -17.194  0.00  0.00    +0.348 C 
BRANCH  10  11
ATOM     11  O   UNL     1      32.002 -23.108 -17.287  0.00  0.00    -0.368 OA
BRANCH  11  12
ATOM     12  P   UNL     1      30.963 -23.259 -16.057  0.00  0.00    +0.530 P 
ATOM     13  O   UNL     1      30.560 -24.671 -15.742  0.00  0.00    -0.216 OA
BRANCH  12  14
ATOM     14  O   UNL     1      29.752 -22.266 -16.456  0.00  0.00    -0.293 OA
ATOM     15  H   UNL     1      29.954 -21.832 -17.300  0.00  0.00    +0.223 HD
ENDBRANCH  12  14
BRANCH  12  16
ATOM     16  O   UNL     1      31.708 -22.477 -14.854  0.00  0.00    -0.293 OA
ATOM     17  H   UNL     1      31.133 -22.462 -14.073  0.00  0.00    +0.223 HD
ENDBRANCH  12  16
ENDBRANCH  11  12
ENDBRANCH  10  11
ENDBRANCH   6  10
ENDBRANCH   1   3
BRANCH   1  18
ATOM     18  C   UNL     1      35.311 -19.417 -22.214  0.00  0.00    +0.145 C 
BRANCH  18  25
ATOM     19  O   UNL     1      34.329 -16.143 -25.775  0.00  0.00    -0.206 OA
ATOM     20  N   UNL     1      34.812 -17.403 -23.470  0.00  0.00    -0.391 NA
ATOM     21  N   UNL     1      34.305 -13.936 -22.441  0.00  0.00    -0.259 N 
ATOM     22  N   UNL     1      34.798 -15.876 -21.114  0.00  0.00    -0.246 NA
ATOM     23  N   UNL     1      34.067 -14.074 -24.808  0.00  0.00    -0.300 NA
ATOM     24  N   UNL     1      33.832 -12.045 -23.655  0.00  0.00    -0.320 N 
ATOM     25  C   UNL     1      35.043 -17.954 -22.264  0.00  0.00    +0.132 C 
ATOM     26  C   UNL     1      34.574 -16.075 -23.464  0.00  0.00    +0.255 C 
ATOM     27  C   UNL     1      34.564 -15.304 -22.314  0.00  0.00    +0.173 C 
ATOM     28  C   UNL     1      35.037 -17.204 -21.108  0.00  0.00    +0.183 C 
ATOM     29  C   UNL     1      34.315 -15.434 -24.773  0.00  0.00    +0.240 C 
ATOM     30  C   UNL     1      34.071 -13.397 -23.687  0.00  0.00    +0.249 C 
ATOM     31  H   UNL     1      34.290 -13.359 -21.643  0.00  0.00    +0.157 HD
ATOM     32  H   UNL     1      33.843 -11.564 -22.795  0.00  0.00    +0.146 HD
ATOM     33  H   UNL     1      33.653 -11.556 -24.490  0.00  0.00    +0.146 HD
ENDBRANCH  18  25
ENDBRANCH   1  18
TORSDOF 8
ENDMDL
MODEL 7
REMARK VINA RESULT:     -10.5      2.493      3.550
REMARK  Name = 656948
REMARK  8 active torsions:
REMARK  status: ('A' for Active; 'I' for Inactive)
REMARK    1  A    between atoms: N_1  and  C_3
REMARK    2  A    between atoms: N_1  and  C_18
REMARK    3  A    between atoms: C_6  and  C_10
REMARK    4  A    between atoms: C_10  and  O_11
REMARK    5  A    between atoms: O_11  and  P_12
REMARK    6  A    between atoms: P_12  and  O_14
REMARK    7  A    between atoms: P_12  and  O_16
REMARK    8  A    between atoms: C_18  and  C_25
REMARK                            x       y       z     vdW  Elec       q    Type
REMARK                         _______ _______ _______ _____ _____    ______ ____
ROOT
ATOM      1  N   UNL     1      35.968 -17.106 -23.033  0.00  0.00    -0.327 N 
ATOM      2  H   UNL     1      36.780 -16.558 -23.131  0.00  0.00    +0.147 HD
ENDROOT
BRANCH   1   3
ATOM      3  C   UNL     1      35.981 -18.132 -22.105  0.00  0.00    +0.045 C 
ATOM      4  C   UNL     1      34.826 -18.899 -21.857  0.00  0.00    +0.015 C 
ATOM      5  C   UNL     1      37.150 -18.440 -21.382  0.00  0.00    +0.015 C 
ATOM      6  C   UNL     1      36.008 -20.222 -20.216  0.00  0.00    +0.076 C 
ATOM      7  C   UNL     1      34.840 -19.934 -20.922  0.00  0.00    +0.008 C 
ATOM      8  C   UNL     1      37.163 -19.475 -20.446  0.00  0.00    +0.008 C 
BRANCH   6  10
ATOM      9  O   UNL     1      36.772 -21.362 -18.260  0.00  0.00    -0.245 OA
ATOM     10  C   UNL     1      36.022 -21.301 -19.242  0.00  0.00    +0.348 C 
BRANCH  10  11
ATOM     11  O   UNL     1      35.099 -22.261 -19.531  0.00  0.00    -0.368 OA
BRANCH  11  12
ATOM     12  P   UNL     1      33.968 -22.821 -18.519  0.00  0.00    +0.530 P 
ATOM     13  O   UNL     1      32.692 -22.030 -18.500  0.00  0.00    -0.216 OA
BRANCH  12  14
ATOM     14  O   UNL     1      34.741 -22.923 -17.103  0.00  0.00    -0.293 OA
ATOM     15  H   UNL     1      35.469 -22.283 -17.085  0.00  0.00    +0.223 HD
ENDBRANCH  12  14
BRANCH  12  16
ATOM     16  O   UNL     1      33.809 -24.365 -18.972  0.00  0.00    -0.293 OA
ATOM     17  H   UNL     1      33.405 -24.872 -18.251  0.00  0.00    +0.223 HD
ENDBRANCH  12  16
ENDBRANCH  11  12
ENDBRANCH  10  11
ENDBRANCH   6  10
ENDBRANCH   1   3
BRANCH   1  18
ATOM     18  C   UNL     1      34.826 -16.796 -23.868  0.00  0.00    +0.145 C 
BRANCH  18  25
ATOM     19  O   UNL     1      32.677 -15.073 -19.771  0.00  0.00    -0.206 OA
ATOM     20  N   UNL     1      33.706 -15.422 -22.211  0.00  0.00    -0.391 NA
ATOM     21  N   UNL     1      32.473 -11.986 -22.304  0.00  0.00    -0.259 N 
ATOM     22  N   UNL     1      33.578 -13.269 -24.008  0.00  0.00    -0.246 NA
ATOM     23  N   UNL     1      32.017 -12.905 -20.154  0.00  0.00    -0.300 NA
ATOM     24  N   UNL     1      31.414 -10.710 -20.717  0.00  0.00    -0.320 N 
ATOM     25  C   UNL     1      34.201 -15.508 -23.460  0.00  0.00    +0.132 C 
ATOM     26  C   UNL     1      33.150 -14.237 -21.888  0.00  0.00    +0.255 C 
ATOM     27  C   UNL     1      33.076 -13.163 -22.759  0.00  0.00    +0.173 C 
ATOM     28  C   UNL     1      34.137 -14.451 -24.342  0.00  0.00    +0.183 C 
ATOM     29  C   UNL     1      32.596 -14.106 -20.522  0.00  0.00    +0.240 C 
ATOM     30  C   UNL     1      31.975 -11.925 -21.021  0.00  0.00    +0.249 C 
ATOM     31  H   UNL     1      32.405 -11.205 -22.898  0.00  0.00    +0.157 HD
ATOM     32  H   UNL     1      31.398  -9.993 -21.392  0.00  0.00    +0.146 HD
ATOM     33  H   UNL     1      31.027 -10.555 -19.826  0.00  0.00    +0.146 HD
ENDBRANCH  18  25
ENDBRANCH   1  18
TORSDOF 8
ENDMDL
MODEL 8
REMARK VINA RESULT:     -10.3      4.930      9.241
REMARK  Name = 656948
REMARK  8 active torsions:
REMARK  status: ('A' for Active; 'I' for Inactive)
REMARK    1  A    between atoms: N_1  and  C_3
REMARK    2  A    between atoms: N_1  and  C_18
REMARK    3  A    between atoms: C_6  and  C_10
REMARK    4  A    between atoms: C_10  and  O_11
REMARK    5  A    between atoms: O_11  and  P_12
REMARK    6  A    between atoms: P_12  and  O_14
REMARK    7  A    between atoms: P_12  and  O_16
REMARK    8  A    between atoms: C_18  and  C_25
REMARK                            x       y       z     vdW  Elec       q    Type
REMARK                         _______ _______ _______ _____ _____    ______ ____
ROOT
ATOM      1  N   UNL     1      35.557 -16.325 -23.017  0.00  0.00    -0.327 N 
ATOM      2  H   UNL     1      36.496 -16.069 -23.163  0.00  0.00    +0.147 HD
ENDROOT
BRANCH   1   3
ATOM      3  C   UNL     1      34.678 -15.357 -22.568  0.00  0.00    +0.045 C 
ATOM      4  C   UNL     1      34.375 -15.233 -21.198  0.00  0.00    +0.015 C 
ATOM      5  C   UNL     1      34.060 -14.466 -23.467  0.00  0.00    +0.015 C 
ATOM      6  C   UNL     1      32.887 -13.384 -21.653  0.00  0.00    +0.076 C 
ATOM      7  C   UNL     1      33.488 -14.256 -20.745  0.00  0.00    +0.008 C 
ATOM      8  C   UNL     1      33.173 -13.489 -23.013  0.00  0.00    +0.008 C 
BRANCH   6  10
ATOM      9  O   UNL     1      30.924 -12.026 -21.759  0.00  0.00    -0.245 OA
ATOM     10  C   UNL     1      31.963 -12.366 -21.180  0.00  0.00    +0.348 C 
BRANCH  10  11
ATOM     11  O   UNL     1      32.374 -11.811 -20.005  0.00  0.00    -0.368 OA
BRANCH  11  12
ATOM     12  P   UNL     1      31.825 -10.429 -19.370  0.00  0.00    +0.530 P 
ATOM     13  O   UNL     1      32.659  -9.873 -18.251  0.00  0.00    -0.216 OA
BRANCH  12  14
ATOM     14  O   UNL     1      30.291 -10.767 -18.988  0.00  0.00    -0.293 OA
ATOM     15  H   UNL     1      30.058 -10.321 -18.159  0.00  0.00    +0.223 HD
ENDBRANCH  12  14
BRANCH  12  16
ATOM     16  O   UNL     1      31.685  -9.466 -20.661  0.00  0.00    -0.293 OA
ATOM     17  H   UNL     1      32.480  -8.916 -20.741  0.00  0.00    +0.223 HD
ENDBRANCH  12  16
ENDBRANCH  11  12
ENDBRANCH  10  11
ENDBRANCH   6  10
ENDBRANCH   1   3
BRANCH   1  18
ATOM     18  C   UNL     1      35.171 -17.696 -23.283  0.00  0.00    +0.145 C 
BRANCH  18  25
ATOM     19  O   UNL     1      32.745 -20.860 -20.373  0.00  0.00    -0.206 OA
ATOM     20  N   UNL     1      34.558 -19.322 -21.591  0.00  0.00    -0.391 NA
ATOM     21  N   UNL     1      36.503 -21.035 -19.018  0.00  0.00    -0.259 N 
ATOM     22  N   UNL     1      37.204 -19.428 -20.660  0.00  0.00    -0.246 NA
ATOM     23  N   UNL     1      34.238 -21.760 -18.874  0.00  0.00    -0.300 NA
ATOM     24  N   UNL     1      35.894 -22.573 -17.426  0.00  0.00    -0.320 N 
ATOM     25  C   UNL     1      35.537 -18.584 -22.146  0.00  0.00    +0.132 C 
ATOM     26  C   UNL     1      34.938 -20.111 -20.565  0.00  0.00    +0.255 C 
ATOM     27  C   UNL     1      36.237 -20.177 -20.090  0.00  0.00    +0.173 C 
ATOM     28  C   UNL     1      36.836 -18.636 -21.688  0.00  0.00    +0.183 C 
ATOM     29  C   UNL     1      33.887 -20.938 -19.930  0.00  0.00    +0.240 C 
ATOM     30  C   UNL     1      35.482 -21.780 -18.469  0.00  0.00    +0.249 C 
ATOM     31  H   UNL     1      37.416 -21.105 -18.657  0.00  0.00    +0.157 HD
ATOM     32  H   UNL     1      36.838 -22.564 -17.145  0.00  0.00    +0.146 HD
ATOM     33  H   UNL     1      35.246 -23.148 -16.960  0.00  0.00    +0.146 HD
ENDBRANCH  18  25
ENDBRANCH   1  18
TORSDOF 8
ENDMDL
MODEL 9
REMARK VINA RESULT:     -10.3      4.531      7.244
REMARK  Name = 656948
REMARK  8 active torsions:
REMARK  status: ('A' for Active; 'I' for Inactive)
REMARK    1  A    between atoms: N_1  and  C_3
REMARK    2  A    between atoms: N_1  and  C_18
REMARK    3  A    between atoms: C_6  and  C_10
REMARK    4  A    between atoms: C_10  and  O_11
REMARK    5  A    between atoms: O_11  and  P_12
REMARK    6  A    between atoms: P_12  and  O_14
REMARK    7  A    between atoms: P_12  and  O_16
REMARK    8  A    between atoms: C_18  and  C_25
REMARK                            x       y       z     vdW  Elec       q    Type
REMARK                         _______ _______ _______ _____ _____    ______ ____
ROOT
ATOM      1  N   UNL     1      34.073 -23.132 -15.448  0.00  0.00    -0.327 N 
ATOM      2  H   UNL     1      33.607 -22.424 -14.947  0.00  0.00    +0.147 HD
ENDROOT
BRANCH   1   3
ATOM      3  C   UNL     1      35.075 -23.836 -14.805  0.00  0.00    +0.045 C 
ATOM      4  C   UNL     1      35.934 -23.200 -13.887  0.00  0.00    +0.015 C 
ATOM      5  C   UNL     1      35.267 -25.210 -15.049  0.00  0.00    +0.015 C 
ATOM      6  C   UNL     1      37.116 -25.270 -13.496  0.00  0.00    +0.076 C 
ATOM      7  C   UNL     1      36.944 -23.910 -13.239  0.00  0.00    +0.008 C 
ATOM      8  C   UNL     1      36.278 -25.920 -14.400  0.00  0.00    +0.008 C 
BRANCH   6  10
ATOM      9  O   UNL     1      38.282 -26.124 -11.593  0.00  0.00    -0.245 OA
ATOM     10  C   UNL     1      38.169 -26.010 -12.820  0.00  0.00    +0.348 C 
BRANCH  10  11
ATOM     11  O   UNL     1      39.041 -26.577 -13.701  0.00  0.00    -0.368 OA
BRANCH  11  12
ATOM     12  P   UNL     1      40.482 -25.977 -14.122  0.00  0.00    +0.530 P 
ATOM     13  O   UNL     1      40.777 -24.606 -13.583  0.00  0.00    -0.216 OA
BRANCH  12  14
ATOM     14  O   UNL     1      40.492 -26.104 -15.734  0.00  0.00    -0.293 OA
ATOM     15  H   UNL     1      41.203 -26.705 -16.007  0.00  0.00    +0.223 HD
ENDBRANCH  12  14
BRANCH  12  16
ATOM     16  O   UNL     1      41.509 -27.133 -13.649  0.00  0.00    -0.293 OA
ATOM     17  H   UNL     1      41.175 -27.549 -12.839  0.00  0.00    +0.223 HD
ENDBRANCH  12  16
ENDBRANCH  11  12
ENDBRANCH  10  11
ENDBRANCH   6  10
ENDBRANCH   1   3
BRANCH   1  18
ATOM     18  C   UNL     1      33.672 -23.380 -16.817  0.00  0.00    +0.145 C 
BRANCH  18  25
ATOM     19  O   UNL     1      32.422 -20.573 -20.680  0.00  0.00    -0.206 OA
ATOM     20  N   UNL     1      33.684 -21.873 -18.718  0.00  0.00    -0.391 NA
ATOM     21  N   UNL     1      36.369 -20.022 -20.361  0.00  0.00    -0.259 N 
ATOM     22  N   UNL     1      36.456 -21.501 -18.471  0.00  0.00    -0.246 NA
ATOM     23  N   UNL     1      34.320 -19.553 -21.482  0.00  0.00    -0.300 NA
ATOM     24  N   UNL     1      36.352 -18.600 -22.163  0.00  0.00    -0.320 N 
ATOM     25  C   UNL     1      34.401 -22.486 -17.757  0.00  0.00    +0.132 C 
ATOM     26  C   UNL     1      34.388 -21.073 -19.545  0.00  0.00    +0.255 C 
ATOM     27  C   UNL     1      35.755 -20.877 -19.441  0.00  0.00    +0.173 C 
ATOM     28  C   UNL     1      35.762 -22.304 -17.637  0.00  0.00    +0.183 C 
ATOM     29  C   UNL     1      33.632 -20.382 -20.613  0.00  0.00    +0.240 C 
ATOM     30  C   UNL     1      35.612 -19.407 -21.334  0.00  0.00    +0.249 C 
ATOM     31  H   UNL     1      37.339 -19.861 -20.315  0.00  0.00    +0.157 HD
ATOM     32  H   UNL     1      37.323 -18.512 -22.026  0.00  0.00    +0.146 HD
ATOM     33  H   UNL     1      35.911 -18.110 -22.895  0.00  0.00    +0.146 HD
ENDBRANCH  18  25
ENDBRANCH   1  18
TORSDOF 8
ENDMDL
