MODEL 1
REMARK VINA RESULT:     -11.4      0.000      0.000
REMARK  Name = 25184541
REMARK  4 active torsions:
REMARK  status: ('A' for Active; 'I' for Inactive)
REMARK    1  A    between atoms: C_4  and  N_19
REMARK    2  A    between atoms: C_5  and  N_11
REMARK    3  A    between atoms: C_20  and  C_23
REMARK    4  A    between atoms: C_23  and  N_25
REMARK                            x       y       z     vdW  Elec       q    Type
REMARK                         _______ _______ _______ _____ _____    ______ ____
ROOT
ATOM      1  F   UNL     1      35.297 -23.098 -17.026  0.00  0.00    -0.200 F 
ATOM      2  F   UNL     1      32.614 -22.695 -17.144  0.00  0.00    -0.200 F 
ATOM      3  F   UNL     1      32.095 -24.927 -12.984  0.00  0.00    -0.203 F 
ATOM      4  C   UNL     1      35.074 -24.220 -14.944  0.00  0.00    +0.089 C 
ATOM      5  C   UNL     1      32.318 -23.806 -15.066  0.00  0.00    +0.110 C 
ATOM      6  C   UNL     1      34.517 -23.549 -16.033  0.00  0.00    +0.182 C 
ATOM      7  C   UNL     1      34.253 -24.683 -13.916  0.00  0.00    +0.048 C 
ATOM      8  C   UNL     1      33.139 -23.342 -16.094  0.00  0.00    +0.184 C 
ATOM      9  C   UNL     1      32.876 -24.476 -13.978  0.00  0.00    +0.157 C 
ENDROOT
BRANCH   5  11
ATOM     10  O   UNL     1      26.893 -23.006 -15.400  0.00  0.00    -0.291 OA
ATOM     11  N   UNL     1      30.915 -23.599 -15.130  0.00  0.00    -0.282 N 
ATOM     12  C   UNL     1      30.077 -24.738 -15.542  0.00  0.00    +0.104 C 
ATOM     13  C   UNL     1      28.785 -24.256 -16.200  0.00  0.00    +0.091 C 
ATOM     14  C   UNL     1      30.294 -22.453 -14.656  0.00  0.00    +0.068 C 
ATOM     15  C   UNL     1      28.114 -23.153 -15.409  0.00  0.00    +0.176 C 
ATOM     16  C   UNL     1      28.986 -22.182 -14.710  0.00  0.00    +0.054 C 
ENDBRANCH   5  11
BRANCH   4  19
ATOM     17  O   UNL     1      38.710 -24.089 -14.805  0.00  0.00    -0.434 OA
ATOM     18  O   UNL     1      37.391 -22.249 -14.943  0.00  0.00    -0.226 OA
ATOM     19  N   UNL     1      36.481 -24.432 -14.879  0.00  0.00    -0.219 N 
ATOM     20  C   UNL     1      38.513 -25.482 -14.528  0.00  0.00    +0.210 C 
ATOM     21  C   UNL     1      37.073 -25.742 -14.917  0.00  0.00    +0.147 C 
ATOM     22  C   UNL     1      37.484 -23.467 -14.873  0.00  0.00    +0.409 C 
BRANCH  20  23
ATOM     23  C   UNL     1      38.790 -25.734 -13.051  0.00  0.00    +0.134 C 
BRANCH  23  25
ATOM     24  O   UNL     1      35.482 -25.382 -10.300  0.00  0.00    -0.349 OA
ATOM     25  N   UNL     1      38.302 -24.629 -12.265  0.00  0.00    -0.312 N 
ATOM     26  N   UNL     1      36.447 -25.788 -11.212  0.00  0.00    -0.062 NA
ATOM     27  C   UNL     1      37.204 -24.707 -11.422  0.00  0.00    +0.171 C 
ATOM     28  C   UNL     1      36.768 -23.599 -10.676  0.00  0.00    +0.081 C 
ATOM     29  C   UNL     1      35.684 -24.075  -9.987  0.00  0.00    +0.215 C 
ATOM     30  H   UNL     1      38.777 -23.769 -12.331  0.00  0.00    +0.148 HD
ENDBRANCH  23  25
ENDBRANCH  20  23
ENDBRANCH   4  19
TORSDOF 4
ENDMDL
MODEL 2
REMARK VINA RESULT:     -11.2      5.356      7.951
REMARK  Name = 25184541
REMARK  4 active torsions:
REMARK  status: ('A' for Active; 'I' for Inactive)
REMARK    1  A    between atoms: C_4  and  N_19
REMARK    2  A    between atoms: C_5  and  N_11
REMARK    3  A    between atoms: C_20  and  C_23
REMARK    4  A    between atoms: C_23  and  N_25
REMARK                            x       y       z     vdW  Elec       q    Type
REMARK                         _______ _______ _______ _____ _____    ______ ____
ROOT
ATOM      1  F   UNL     1      32.442 -21.748 -18.620  0.00  0.00    -0.200 F 
ATOM      2  F   UNL     1      32.564 -20.062 -20.746  0.00  0.00    -0.200 F 
ATOM      3  F   UNL     1      37.308 -20.117 -20.516  0.00  0.00    -0.203 F 
ATOM      4  C   UNL     1      34.812 -21.799 -18.477  0.00  0.00    +0.089 C 
ATOM      5  C   UNL     1      34.937 -20.066 -20.659  0.00  0.00    +0.110 C 
ATOM      6  C   UNL     1      33.637 -21.351 -19.080  0.00  0.00    +0.182 C 
ATOM      7  C   UNL     1      36.050 -21.380 -18.965  0.00  0.00    +0.048 C 
ATOM      8  C   UNL     1      33.700 -20.485 -20.172  0.00  0.00    +0.184 C 
ATOM      9  C   UNL     1      36.112 -20.514 -20.056  0.00  0.00    +0.157 C 
ENDROOT
BRANCH   5  11
ATOM     10  O   UNL     1      35.117 -16.598 -24.916  0.00  0.00    -0.291 OA
ATOM     11  N   UNL     1      35.001 -19.182 -21.768  0.00  0.00    -0.282 N 
ATOM     12  C   UNL     1      35.502 -17.818 -21.522  0.00  0.00    +0.104 C 
ATOM     13  C   UNL     1      34.917 -16.831 -22.531  0.00  0.00    +0.091 C 
ATOM     14  C   UNL     1      34.792 -19.587 -23.078  0.00  0.00    +0.068 C 
ATOM     15  C   UNL     1      34.991 -17.350 -23.952  0.00  0.00    +0.176 C 
ATOM     16  C   UNL     1      34.810 -18.804 -24.161  0.00  0.00    +0.054 C 
ENDBRANCH   5  11
BRANCH   4  19
ATOM     17  O   UNL     1      35.236 -23.769 -15.445  0.00  0.00    -0.434 OA
ATOM     18  O   UNL     1      36.699 -22.173 -16.121  0.00  0.00    -0.226 OA
ATOM     19  N   UNL     1      34.751 -22.684 -17.363  0.00  0.00    -0.219 N 
ATOM     20  C   UNL     1      33.906 -24.169 -15.802  0.00  0.00    +0.210 C 
ATOM     21  C   UNL     1      33.747 -23.706 -17.235  0.00  0.00    +0.147 C 
ATOM     22  C   UNL     1      35.659 -22.787 -16.312  0.00  0.00    +0.409 C 
BRANCH  20  23
ATOM     23  C   UNL     1      32.921 -23.508 -14.846  0.00  0.00    +0.134 C 
BRANCH  23  25
ATOM     24  O   UNL     1      29.169 -22.588 -16.774  0.00  0.00    -0.349 OA
ATOM     25  N   UNL     1      31.660 -24.204 -14.884  0.00  0.00    -0.312 N 
ATOM     26  N   UNL     1      30.468 -22.617 -16.282  0.00  0.00    -0.062 NA
ATOM     27  C   UNL     1      30.545 -23.745 -15.569  0.00  0.00    +0.171 C 
ATOM     28  C   UNL     1      29.336 -24.461 -15.574  0.00  0.00    +0.081 C 
ATOM     29  C   UNL     1      28.504 -23.693 -16.345  0.00  0.00    +0.215 C 
ATOM     30  H   UNL     1      31.585 -25.055 -14.393  0.00  0.00    +0.148 HD
ENDBRANCH  23  25
ENDBRANCH  20  23
ENDBRANCH   4  19
TORSDOF 4
ENDMDL
MODEL 3
REMARK VINA RESULT:     -11.1      5.313      8.008
REMARK  Name = 25184541
REMARK  4 active torsions:
REMARK  status: ('A' for Active; 'I' for Inactive)
REMARK    1  A    between atoms: C_4  and  N_19
REMARK    2  A    between atoms: C_5  and  N_11
REMARK    3  A    between atoms: C_20  and  C_23
REMARK    4  A    between atoms: C_23  and  N_25
REMARK                            x       y       z     vdW  Elec       q    Type
REMARK                         _______ _______ _______ _____ _____    ______ ____
ROOT
ATOM      1  F   UNL     1      36.940 -21.998 -18.357  0.00  0.00    -0.200 F 
ATOM      2  F   UNL     1      37.156 -20.303 -20.469  0.00  0.00    -0.200 F 
ATOM      3  F   UNL     1      32.422 -19.980 -20.692  0.00  0.00    -0.203 F 
ATOM      4  C   UNL     1      34.571 -21.859 -18.440  0.00  0.00    +0.089 C 
ATOM      5  C   UNL     1      34.793 -20.120 -20.610  0.00  0.00    +0.110 C 
ATOM      6  C   UNL     1      35.830 -21.507 -18.926  0.00  0.00    +0.182 C 
ATOM      7  C   UNL     1      33.422 -21.341 -19.039  0.00  0.00    +0.048 C 
ATOM      8  C   UNL     1      35.940 -20.637 -20.011  0.00  0.00    +0.184 C 
ATOM      9  C   UNL     1      33.534 -20.472 -20.123  0.00  0.00    +0.157 C 
ENDROOT
BRANCH   5  11
ATOM     10  O   UNL     1      35.159 -16.655 -24.857  0.00  0.00    -0.291 OA
ATOM     11  N   UNL     1      34.905 -19.237 -21.716  0.00  0.00    -0.282 N 
ATOM     12  C   UNL     1      35.438 -17.888 -21.457  0.00  0.00    +0.104 C 
ATOM     13  C   UNL     1      34.902 -16.884 -22.477  0.00  0.00    +0.091 C 
ATOM     14  C   UNL     1      34.712 -19.635 -23.030  0.00  0.00    +0.068 C 
ATOM     15  C   UNL     1      34.992 -17.403 -23.897  0.00  0.00    +0.176 C 
ATOM     16  C   UNL     1      34.774 -18.852 -24.111  0.00  0.00    +0.054 C 
ENDBRANCH   5  11
BRANCH   4  19
ATOM     17  O   UNL     1      34.842 -23.835 -15.394  0.00  0.00    -0.434 OA
ATOM     18  O   UNL     1      36.337 -22.238 -15.993  0.00  0.00    -0.226 OA
ATOM     19  N   UNL     1      34.455 -22.746 -17.332  0.00  0.00    -0.219 N 
ATOM     20  C   UNL     1      33.532 -24.233 -15.818  0.00  0.00    +0.210 C 
ATOM     21  C   UNL     1      33.445 -23.769 -17.256  0.00  0.00    +0.147 C 
ATOM     22  C   UNL     1      35.308 -22.852 -16.238  0.00  0.00    +0.409 C 
BRANCH  20  23
ATOM     23  C   UNL     1      32.500 -23.575 -14.912  0.00  0.00    +0.134 C 
BRANCH  23  25
ATOM     24  O   UNL     1      28.840 -22.427 -16.892  0.00  0.00    -0.349 OA
ATOM     25  N   UNL     1      31.229 -24.239 -15.051  0.00  0.00    -0.312 N 
ATOM     26  N   UNL     1      30.119 -22.521 -16.358  0.00  0.00    -0.062 NA
ATOM     27  C   UNL     1      30.149 -23.704 -15.737  0.00  0.00    +0.171 C 
ATOM     28  C   UNL     1      28.929 -24.393 -15.843  0.00  0.00    +0.081 C 
ATOM     29  C   UNL     1      28.140 -23.548 -16.579  0.00  0.00    +0.215 C 
ATOM     30  H   UNL     1      31.121 -25.125 -14.634  0.00  0.00    +0.148 HD
ENDBRANCH  23  25
ENDBRANCH  20  23
ENDBRANCH   4  19
TORSDOF 4
ENDMDL
MODEL 4
REMARK VINA RESULT:     -11.0      5.884      9.058
REMARK  Name = 25184541
REMARK  4 active torsions:
REMARK  status: ('A' for Active; 'I' for Inactive)
REMARK    1  A    between atoms: C_4  and  N_19
REMARK    2  A    between atoms: C_5  and  N_11
REMARK    3  A    between atoms: C_20  and  C_23
REMARK    4  A    between atoms: C_23  and  N_25
REMARK                            x       y       z     vdW  Elec       q    Type
REMARK                         _______ _______ _______ _____ _____    ______ ____
ROOT
ATOM      1  F   UNL     1      37.308 -21.038 -18.189  0.00  0.00    -0.200 F 
ATOM      2  F   UNL     1      37.882 -22.399 -15.910  0.00  0.00    -0.200 F 
ATOM      3  F   UNL     1      33.480 -24.185 -15.869  0.00  0.00    -0.203 F 
ATOM      4  C   UNL     1      35.100 -21.913 -18.200  0.00  0.00    +0.089 C 
ATOM      5  C   UNL     1      35.689 -23.309 -15.858  0.00  0.00    +0.110 C 
ATOM      6  C   UNL     1      36.366 -21.807 -17.624  0.00  0.00    +0.182 C 
ATOM      7  C   UNL     1      34.128 -22.718 -17.605  0.00  0.00    +0.048 C 
ATOM      8  C   UNL     1      36.660 -22.506 -16.453  0.00  0.00    +0.184 C 
ATOM      9  C   UNL     1      34.423 -23.415 -16.434  0.00  0.00    +0.157 C 
ENDROOT
BRANCH   5  11
ATOM     10  O   UNL     1      36.900 -25.987 -11.217  0.00  0.00    -0.291 OA
ATOM     11  N   UNL     1      35.987 -24.018 -14.665  0.00  0.00    -0.282 N 
ATOM     12  C   UNL     1      35.485 -23.457 -13.398  0.00  0.00    +0.104 C 
ATOM     13  C   UNL     1      36.378 -23.868 -12.227  0.00  0.00    +0.091 C 
ATOM     14  C   UNL     1      36.559 -25.281 -14.653  0.00  0.00    +0.068 C 
ATOM     15  C   UNL     1      36.708 -25.346 -12.248  0.00  0.00    +0.176 C 
ATOM     16  C   UNL     1      36.891 -25.990 -13.569  0.00  0.00    +0.054 C 
ENDBRANCH   5  11
BRANCH   4  19
ATOM     17  O   UNL     1      33.689 -20.106 -21.028  0.00  0.00    -0.434 OA
ATOM     18  O   UNL     1      32.460 -20.851 -19.275  0.00  0.00    -0.226 OA
ATOM     19  N   UNL     1      34.796 -21.202 -19.396  0.00  0.00    -0.219 N 
ATOM     20  C   UNL     1      35.085 -19.943 -21.316  0.00  0.00    +0.210 C 
ATOM     21  C   UNL     1      35.773 -20.954 -20.423  0.00  0.00    +0.147 C 
ATOM     22  C   UNL     1      33.552 -20.739 -19.814  0.00  0.00    +0.409 C 
BRANCH  20  23
ATOM     23  C   UNL     1      35.485 -18.505 -21.014  0.00  0.00    +0.134 C 
BRANCH  23  25
ATOM     24  O   UNL     1      34.336 -14.408 -21.744  0.00  0.00    -0.349 OA
ATOM     25  N   UNL     1      35.433 -17.717 -22.219  0.00  0.00    -0.312 N 
ATOM     26  N   UNL     1      34.637 -15.656 -21.214  0.00  0.00    -0.062 NA
ATOM     27  C   UNL     1      35.030 -16.391 -22.259  0.00  0.00    +0.171 C 
ATOM     28  C   UNL     1      34.997 -15.667 -23.462  0.00  0.00    +0.081 C 
ATOM     29  C   UNL     1      34.555 -14.426 -23.085  0.00  0.00    +0.215 C 
ATOM     30  H   UNL     1      35.700 -18.147 -23.065  0.00  0.00    +0.148 HD
ENDBRANCH  23  25
ENDBRANCH  20  23
ENDBRANCH   4  19
TORSDOF 4
ENDMDL
MODEL 5
REMARK VINA RESULT:     -10.9     15.555     17.960
REMARK  Name = 25184541
REMARK  4 active torsions:
REMARK  status: ('A' for Active; 'I' for Inactive)
REMARK    1  A    between atoms: C_4  and  N_19
REMARK    2  A    between atoms: C_5  and  N_11
REMARK    3  A    between atoms: C_20  and  C_23
REMARK    4  A    between atoms: C_23  and  N_25
REMARK                            x       y       z     vdW  Elec       q    Type
REMARK                         _______ _______ _______ _____ _____    ______ ____
ROOT
ATOM      1  F   UNL     1      31.123 -11.173 -20.681  0.00  0.00    -0.200 F 
ATOM      2  F   UNL     1      31.956 -13.525 -21.754  0.00  0.00    -0.200 F 
ATOM      3  F   UNL     1      34.774 -11.157 -24.756  0.00  0.00    -0.203 F 
ATOM      4  C   UNL     1      32.521  -9.958 -22.167  0.00  0.00    +0.089 C 
ATOM      5  C   UNL     1      33.375 -12.373 -23.270  0.00  0.00    +0.110 C 
ATOM      6  C   UNL     1      32.017 -11.164 -21.680  0.00  0.00    +0.182 C 
ATOM      7  C   UNL     1      33.452  -9.959 -23.206  0.00  0.00    +0.048 C 
ATOM      8  C   UNL     1      32.445 -12.372 -22.232  0.00  0.00    +0.184 C 
ATOM      9  C   UNL     1      33.879 -11.167 -23.757  0.00  0.00    +0.157 C 
ENDROOT
BRANCH   5  11
ATOM     10  O   UNL     1      34.966 -17.155 -25.457  0.00  0.00    -0.291 OA
ATOM     11  N   UNL     1      33.808 -13.602 -23.834  0.00  0.00    -0.282 N 
ATOM     12  C   UNL     1      33.527 -13.831 -25.262  0.00  0.00    +0.104 C 
ATOM     13  C   UNL     1      33.410 -15.325 -25.563  0.00  0.00    +0.091 C 
ATOM     14  C   UNL     1      34.627 -14.499 -23.165  0.00  0.00    +0.068 C 
ATOM     15  C   UNL     1      34.535 -16.126 -24.941  0.00  0.00    +0.176 C 
ATOM     16  C   UNL     1      35.047 -15.682 -23.625  0.00  0.00    +0.054 C 
ENDBRANCH   5  11
BRANCH   4  19
ATOM     17  O   UNL     1      31.662  -7.047 -20.156  0.00  0.00    -0.434 OA
ATOM     18  O   UNL     1      32.701  -8.885 -19.327  0.00  0.00    -0.226 OA
ATOM     19  N   UNL     1      32.087  -8.723 -21.606  0.00  0.00    -0.219 N 
ATOM     20  C   UNL     1      31.364  -6.530 -21.459  0.00  0.00    +0.210 C 
ATOM     21  C   UNL     1      31.328  -7.753 -22.350  0.00  0.00    +0.147 C 
ATOM     22  C   UNL     1      32.217  -8.300 -20.286  0.00  0.00    +0.409 C 
BRANCH  20  23
ATOM     23  C   UNL     1      32.446  -5.533 -21.853  0.00  0.00    +0.134 C 
BRANCH  23  25
ATOM     24  O   UNL     1      34.891  -5.898 -25.393  0.00  0.00    -0.349 OA
ATOM     25  N   UNL     1      32.246  -5.101 -23.213  0.00  0.00    -0.312 N 
ATOM     26  N   UNL     1      34.339  -5.932 -24.118  0.00  0.00    -0.062 NA
ATOM     27  C   UNL     1      33.161  -5.312 -24.233  0.00  0.00    +0.171 C 
ATOM     28  C   UNL     1      32.917  -4.871 -25.544  0.00  0.00    +0.081 C 
ATOM     29  C   UNL     1      34.033  -5.263 -26.234  0.00  0.00    +0.215 C 
ATOM     30  H   UNL     1      31.409  -4.628 -23.430  0.00  0.00    +0.148 HD
ENDBRANCH  23  25
ENDBRANCH  20  23
ENDBRANCH   4  19
TORSDOF 4
ENDMDL
MODEL 6
REMARK VINA RESULT:     -10.8     15.867     18.201
REMARK  Name = 25184541
REMARK  4 active torsions:
REMARK  status: ('A' for Active; 'I' for Inactive)
REMARK    1  A    between atoms: C_4  and  N_19
REMARK    2  A    between atoms: C_5  and  N_11
REMARK    3  A    between atoms: C_20  and  C_23
REMARK    4  A    between atoms: C_23  and  N_25
REMARK                            x       y       z     vdW  Elec       q    Type
REMARK                         _______ _______ _______ _____ _____    ______ ____
ROOT
ATOM      1  F   UNL     1      33.996  -8.739 -23.654  0.00  0.00    -0.200 F 
ATOM      2  F   UNL     1      34.829 -11.098 -24.712  0.00  0.00    -0.200 F 
ATOM      3  F   UNL     1      31.885 -13.438 -21.810  0.00  0.00    -0.203 F 
ATOM      4  C   UNL     1      32.513  -9.877 -22.189  0.00  0.00    +0.089 C 
ATOM      5  C   UNL     1      33.369 -12.300 -23.275  0.00  0.00    +0.110 C 
ATOM      6  C   UNL     1      33.476  -9.888 -23.198  0.00  0.00    +0.182 C 
ATOM      7  C   UNL     1      31.978 -11.078 -21.724  0.00  0.00    +0.048 C 
ATOM      8  C   UNL     1      33.904 -11.100 -23.741  0.00  0.00    +0.184 C 
ATOM      9  C   UNL     1      32.406 -12.289 -22.266  0.00  0.00    +0.157 C 
ENDROOT
BRANCH   5  11
ATOM     10  O   UNL     1      34.978 -17.099 -25.410  0.00  0.00    -0.291 OA
ATOM     11  N   UNL     1      33.807 -13.533 -23.825  0.00  0.00    -0.282 N 
ATOM     12  C   UNL     1      33.554 -13.767 -25.257  0.00  0.00    +0.104 C 
ATOM     13  C   UNL     1      33.434 -15.261 -25.554  0.00  0.00    +0.091 C 
ATOM     14  C   UNL     1      34.606 -14.433 -23.135  0.00  0.00    +0.068 C 
ATOM     15  C   UNL     1      34.542 -16.066 -24.907  0.00  0.00    +0.176 C 
ATOM     16  C   UNL     1      35.029 -15.620 -23.582  0.00  0.00    +0.054 C 
ENDBRANCH   5  11
BRANCH   4  19
ATOM     17  O   UNL     1      31.657  -6.954 -20.195  0.00  0.00    -0.434 OA
ATOM     18  O   UNL     1      32.743  -8.765 -19.367  0.00  0.00    -0.226 OA
ATOM     19  N   UNL     1      32.073  -8.642 -21.633  0.00  0.00    -0.219 N 
ATOM     20  C   UNL     1      31.320  -6.458 -21.498  0.00  0.00    +0.210 C 
ATOM     21  C   UNL     1      31.282  -7.694 -22.371  0.00  0.00    +0.147 C 
ATOM     22  C   UNL     1      32.227  -8.200 -20.322  0.00  0.00    +0.409 C 
BRANCH  20  23
ATOM     23  C   UNL     1      32.377  -5.450 -21.929  0.00  0.00    +0.134 C 
BRANCH  23  25
ATOM     24  O   UNL     1      32.713  -3.628 -25.828  0.00  0.00    -0.349 OA
ATOM     25  N   UNL     1      33.006  -5.890 -23.149  0.00  0.00    -0.312 N 
ATOM     26  N   UNL     1      32.448  -3.955 -24.504  0.00  0.00    -0.062 NA
ATOM     27  C   UNL     1      33.010  -5.154 -24.324  0.00  0.00    +0.171 C 
ATOM     28  C   UNL     1      33.638  -5.628 -25.488  0.00  0.00    +0.081 C 
ATOM     29  C   UNL     1      33.423  -4.633 -26.404  0.00  0.00    +0.215 C 
ATOM     30  H   UNL     1      33.457  -6.766 -23.148  0.00  0.00    +0.148 HD
ENDBRANCH  23  25
ENDBRANCH  20  23
ENDBRANCH   4  19
TORSDOF 4
ENDMDL
MODEL 7
REMARK VINA RESULT:     -10.7      5.314      7.073
REMARK  Name = 25184541
REMARK  4 active torsions:
REMARK  status: ('A' for Active; 'I' for Inactive)
REMARK    1  A    between atoms: C_4  and  N_19
REMARK    2  A    between atoms: C_5  and  N_11
REMARK    3  A    between atoms: C_20  and  C_23
REMARK    4  A    between atoms: C_23  and  N_25
REMARK                            x       y       z     vdW  Elec       q    Type
REMARK                         _______ _______ _______ _____ _____    ______ ____
ROOT
ATOM      1  F   UNL     1      37.027 -22.026 -18.061  0.00  0.00    -0.200 F 
ATOM      2  F   UNL     1      37.212 -20.420 -20.244  0.00  0.00    -0.200 F 
ATOM      3  F   UNL     1      32.473 -20.204 -20.484  0.00  0.00    -0.203 F 
ATOM      4  C   UNL     1      34.656 -21.939 -18.151  0.00  0.00    +0.089 C 
ATOM      5  C   UNL     1      34.845 -20.291 -20.394  0.00  0.00    +0.110 C 
ATOM      6  C   UNL     1      35.908 -21.583 -18.651  0.00  0.00    +0.182 C 
ATOM      7  C   UNL     1      33.498 -21.470 -18.772  0.00  0.00    +0.048 C 
ATOM      8  C   UNL     1      36.003 -20.758 -19.773  0.00  0.00    +0.184 C 
ATOM      9  C   UNL     1      33.593 -20.647 -19.894  0.00  0.00    +0.157 C 
ENDROOT
BRANCH   5  11
ATOM     10  O   UNL     1      35.151 -17.004 -24.785  0.00  0.00    -0.291 OA
ATOM     11  N   UNL     1      34.941 -19.455 -21.537  0.00  0.00    -0.282 N 
ATOM     12  C   UNL     1      35.522 -18.114 -21.352  0.00  0.00    +0.104 C 
ATOM     13  C   UNL     1      34.977 -17.134 -22.390  0.00  0.00    +0.091 C 
ATOM     14  C   UNL     1      34.687 -19.898 -22.827  0.00  0.00    +0.068 C 
ATOM     15  C   UNL     1      34.999 -17.710 -23.790  0.00  0.00    +0.176 C 
ATOM     16  C   UNL     1      34.731 -19.159 -23.940  0.00  0.00    +0.054 C 
ENDBRANCH   5  11
BRANCH   4  19
ATOM     17  O   UNL     1      33.842 -24.322 -15.521  0.00  0.00    -0.434 OA
ATOM     18  O   UNL     1      32.592 -24.041 -17.393  0.00  0.00    -0.226 OA
ATOM     19  N   UNL     1      34.556 -22.779 -17.006  0.00  0.00    -0.219 N 
ATOM     20  C   UNL     1      35.146 -23.920 -15.081  0.00  0.00    +0.210 C 
ATOM     21  C   UNL     1      35.443 -22.668 -15.879  0.00  0.00    +0.147 C 
ATOM     22  C   UNL     1      33.577 -23.731 -16.736  0.00  0.00    +0.409 C 
BRANCH  20  23
ATOM     23  C   UNL     1      36.128 -25.052 -15.354  0.00  0.00    +0.134 C 
BRANCH  23  25
ATOM     24  O   UNL     1      39.757 -27.084 -14.198  0.00  0.00    -0.349 OA
ATOM     25  N   UNL     1      37.479 -24.586 -15.172  0.00  0.00    -0.312 N 
ATOM     26  N   UNL     1      38.463 -26.713 -14.539  0.00  0.00    -0.062 NA
ATOM     27  C   UNL     1      38.533 -25.402 -14.790  0.00  0.00    +0.171 C 
ATOM     28  C   UNL     1      39.834 -24.897 -14.625  0.00  0.00    +0.081 C 
ATOM     29  C   UNL     1      40.565 -25.993 -14.253  0.00  0.00    +0.215 C 
ATOM     30  H   UNL     1      37.664 -23.630 -15.326  0.00  0.00    +0.148 HD
ENDBRANCH  23  25
ENDBRANCH  20  23
ENDBRANCH   4  19
TORSDOF 4
ENDMDL
MODEL 8
REMARK VINA RESULT:     -10.6      5.909      9.261
REMARK  Name = 25184541
REMARK  4 active torsions:
REMARK  status: ('A' for Active; 'I' for Inactive)
REMARK    1  A    between atoms: C_4  and  N_19
REMARK    2  A    between atoms: C_5  and  N_11
REMARK    3  A    between atoms: C_20  and  C_23
REMARK    4  A    between atoms: C_23  and  N_25
REMARK                            x       y       z     vdW  Elec       q    Type
REMARK                         _______ _______ _______ _____ _____    ______ ____
ROOT
ATOM      1  F   UNL     1      33.162 -22.894 -18.074  0.00  0.00    -0.200 F 
ATOM      2  F   UNL     1      33.902 -24.206 -15.814  0.00  0.00    -0.200 F 
ATOM      3  F   UNL     1      38.193 -22.182 -16.044  0.00  0.00    -0.203 F 
ATOM      4  C   UNL     1      35.297 -21.864 -18.219  0.00  0.00    +0.089 C 
ATOM      5  C   UNL     1      36.057 -23.212 -15.899  0.00  0.00    +0.110 C 
ATOM      6  C   UNL     1      34.396 -22.716 -17.581  0.00  0.00    +0.182 C 
ATOM      7  C   UNL     1      36.578 -21.685 -17.697  0.00  0.00    +0.048 C 
ATOM      8  C   UNL     1      34.777 -23.390 -16.420  0.00  0.00    +0.184 C 
ATOM      9  C   UNL     1      36.958 -22.360 -16.537  0.00  0.00    +0.157 C 
ENDROOT
BRANCH   5  11
ATOM     10  O   UNL     1      37.625 -25.816 -11.322  0.00  0.00    -0.291 OA
ATOM     11  N   UNL     1      36.446 -23.901 -14.720  0.00  0.00    -0.282 N 
ATOM     12  C   UNL     1      36.150 -23.257 -13.428  0.00  0.00    +0.104 C 
ATOM     13  C   UNL     1      37.146 -23.698 -12.357  0.00  0.00    +0.091 C 
ATOM     14  C   UNL     1      36.916 -25.206 -14.720  0.00  0.00    +0.068 C 
ATOM     15  C   UNL     1      37.357 -25.198 -12.351  0.00  0.00    +0.176 C 
ATOM     16  C   UNL     1      37.324 -25.900 -13.653  0.00  0.00    +0.054 C 
ENDBRANCH   5  11
BRANCH   4  19
ATOM     17  O   UNL     1      33.690 -20.127 -20.986  0.00  0.00    -0.434 OA
ATOM     18  O   UNL     1      32.575 -20.892 -19.166  0.00  0.00    -0.226 OA
ATOM     19  N   UNL     1      34.912 -21.174 -19.404  0.00  0.00    -0.219 N 
ATOM     20  C   UNL     1      35.063 -19.925 -21.346  0.00  0.00    +0.210 C 
ATOM     21  C   UNL     1      35.826 -20.906 -20.481  0.00  0.00    +0.147 C 
ATOM     22  C   UNL     1      33.634 -20.751 -19.761  0.00  0.00    +0.409 C 
BRANCH  20  23
ATOM     23  C   UNL     1      35.434 -18.472 -21.076  0.00  0.00    +0.134 C 
BRANCH  23  25
ATOM     24  O   UNL     1      34.382 -14.363 -21.876  0.00  0.00    -0.349 OA
ATOM     25  N   UNL     1      35.370 -17.714 -22.299  0.00  0.00    -0.312 N 
ATOM     26  N   UNL     1      34.663 -15.606 -21.324  0.00  0.00    -0.062 NA
ATOM     27  C   UNL     1      35.003 -16.377 -22.361  0.00  0.00    +0.171 C 
ATOM     28  C   UNL     1      34.956 -15.682 -23.580  0.00  0.00    +0.081 C 
ATOM     29  C   UNL     1      34.560 -14.420 -23.222  0.00  0.00    +0.215 C 
ATOM     30  H   UNL     1      35.598 -18.172 -23.141  0.00  0.00    +0.148 HD
ENDBRANCH  23  25
ENDBRANCH  20  23
ENDBRANCH   4  19
TORSDOF 4
ENDMDL
MODEL 9
REMARK VINA RESULT:     -10.5      0.590      2.006
REMARK  Name = 25184541
REMARK  4 active torsions:
REMARK  status: ('A' for Active; 'I' for Inactive)
REMARK    1  A    between atoms: C_4  and  N_19
REMARK    2  A    between atoms: C_5  and  N_11
REMARK    3  A    between atoms: C_20  and  C_23
REMARK    4  A    between atoms: C_23  and  N_25
REMARK                            x       y       z     vdW  Elec       q    Type
REMARK                         _______ _______ _______ _____ _____    ______ ____
ROOT
ATOM      1  F   UNL     1      34.577 -25.037 -12.917  0.00  0.00    -0.200 F 
ATOM      2  F   UNL     1      31.904 -24.609 -13.138  0.00  0.00    -0.200 F 
ATOM      3  F   UNL     1      32.551 -22.810 -17.486  0.00  0.00    -0.203 F 
ATOM      4  C   UNL     1      34.937 -24.143 -15.088  0.00  0.00    +0.089 C 
ATOM      5  C   UNL     1      32.192 -23.703 -15.314  0.00  0.00    +0.110 C 
ATOM      6  C   UNL     1      34.086 -24.490 -14.039  0.00  0.00    +0.182 C 
ATOM      7  C   UNL     1      34.415 -23.577 -16.251  0.00  0.00    +0.048 C 
ATOM      8  C   UNL     1      32.713 -24.270 -14.152  0.00  0.00    +0.184 C 
ATOM      9  C   UNL     1      33.043 -23.357 -16.364  0.00  0.00    +0.157 C 
ENDROOT
BRANCH   5  11
ATOM     10  O   UNL     1      26.780 -22.825 -15.669  0.00  0.00    -0.291 OA
ATOM     11  N   UNL     1      30.795 -23.476 -15.429  0.00  0.00    -0.282 N 
ATOM     12  C   UNL     1      30.291 -22.142 -15.061  0.00  0.00    +0.104 C 
ATOM     13  C   UNL     1      28.840 -22.218 -14.586  0.00  0.00    +0.091 C 
ATOM     14  C   UNL     1      29.925 -24.374 -16.031  0.00  0.00    +0.068 C 
ATOM     15  C   UNL     1      27.977 -23.054 -15.507  0.00  0.00    +0.176 C 
ATOM     16  C   UNL     1      28.601 -24.235 -16.146  0.00  0.00    +0.054 C 
ENDBRANCH   5  11
BRANCH   4  19
ATOM     17  O   UNL     1      38.567 -24.044 -14.832  0.00  0.00    -0.434 OA
ATOM     18  O   UNL     1      37.270 -22.193 -15.023  0.00  0.00    -0.226 OA
ATOM     19  N   UNL     1      36.339 -24.367 -14.976  0.00  0.00    -0.219 N 
ATOM     20  C   UNL     1      38.349 -25.433 -14.554  0.00  0.00    +0.210 C 
ATOM     21  C   UNL     1      36.920 -25.683 -14.988  0.00  0.00    +0.147 C 
ATOM     22  C   UNL     1      37.350 -23.411 -14.944  0.00  0.00    +0.409 C 
BRANCH  20  23
ATOM     23  C   UNL     1      38.576 -25.679 -13.068  0.00  0.00    +0.134 C 
BRANCH  23  25
ATOM     24  O   UNL     1      35.550 -25.342 -10.008  0.00  0.00    -0.349 OA
ATOM     25  N   UNL     1      38.096 -24.555 -12.306  0.00  0.00    -0.312 N 
ATOM     26  N   UNL     1      36.443 -25.751 -10.990  0.00  0.00    -0.062 NA
ATOM     27  C   UNL     1      37.097 -24.642 -11.347  0.00  0.00    +0.171 C 
ATOM     28  C   UNL     1      36.665 -23.514 -10.630  0.00  0.00    +0.081 C 
ATOM     29  C   UNL     1      35.692 -24.007  -9.801  0.00  0.00    +0.215 C 
ATOM     30  H   UNL     1      38.500 -23.673 -12.476  0.00  0.00    +0.148 HD
ENDBRANCH  23  25
ENDBRANCH  20  23
ENDBRANCH   4  19
TORSDOF 4
ENDMDL
