MODEL 1
REMARK VINA RESULT:     -13.2      0.000      0.000
REMARK  Name = 10074640
REMARK  6 active torsions:
REMARK  status: ('A' for Active; 'I' for Inactive)
REMARK    1  A    between atoms: N_2  and  C_5
REMARK    2  A    between atoms: C_3  and  C_30
REMARK    3  A    between atoms: C_6  and  N_13
REMARK    4  A    between atoms: C_16  and  C_20
REMARK    5  A    between atoms: C_25  and  C_31
REMARK    6  A    between atoms: C_31  and  N_32
REMARK                            x       y       z     vdW  Elec       q    Type
REMARK                         _______ _______ _______ _____ _____    ______ ____
ROOT
ATOM      1  O   UNL     1      33.791 -23.912 -18.720  0.00  0.00    -0.270 OA
ATOM      2  N   UNL     1      33.242 -22.246 -17.162  0.00  0.00    -0.280 N 
ATOM      3  C   UNL     1      33.758 -22.720 -18.376  0.00  0.00    +0.249 C 
ATOM      4  H   UNL     1      33.285 -21.271 -17.031  0.00  0.00    +0.155 HD
ENDROOT
BRANCH   2   5
ATOM      5  C   UNL     1      32.668 -22.986 -16.100  0.00  0.00    +0.052 C 
ATOM      6  C   UNL     1      32.782 -23.814 -13.853  0.00  0.00    +0.048 C 
ATOM      7  C   UNL     1      33.349 -23.085 -14.899  0.00  0.00    +0.029 C 
ATOM      8  C   UNL     1      31.544 -24.431 -14.023  0.00  0.00    -0.008 C 
ATOM      9  C   UNL     1      31.437 -23.593 -16.286  0.00  0.00    +0.014 C 
ATOM     10  C   UNL     1      30.871 -24.321 -15.241  0.00  0.00    -0.002 C 
ATOM     11  C   UNL     1      30.914 -25.217 -12.920  0.00  0.00    +0.032 C 
BRANCH   6  13
ATOM     12  S   UNL     1      35.304 -24.436 -10.766  0.00  0.00    -0.059 S 
ATOM     13  N   UNL     1      33.476 -23.915 -12.627  0.00  0.00    -0.283 N 
ATOM     14  N   UNL     1      35.697 -24.341 -13.320  0.00  0.00    -0.384 NA
ATOM     15  C   UNL     1      34.789 -24.213 -12.384  0.00  0.00    +0.211 C 
ATOM     16  C   UNL     1      36.906 -24.642 -12.722  0.00  0.00    +0.124 C 
ATOM     17  C   UNL     1      36.890 -24.735 -11.346  0.00  0.00    +0.125 C 
ATOM     18  H   UNL     1      32.932 -23.744 -11.825  0.00  0.00    +0.155 HD
BRANCH  16  20
ATOM     19  N   UNL     1      39.448 -24.224 -15.401  0.00  0.00    -0.242 NA
ATOM     20  C   UNL     1      38.096 -24.843 -13.495  0.00  0.00    +0.046 C 
ATOM     21  C   UNL     1      39.033 -25.803 -13.132  0.00  0.00    +0.005 C 
ATOM     22  C   UNL     1      38.347 -24.086 -14.628  0.00  0.00    +0.101 C 
ATOM     23  C   UNL     1      40.179 -25.974 -13.901  0.00  0.00    +0.021 C 
ATOM     24  C   UNL     1      40.337 -25.167 -15.016  0.00  0.00    +0.099 C 
ENDBRANCH  16  20
ENDBRANCH   6  13
ENDBRANCH   2   5
BRANCH   3  30
ATOM     25  C   UNL     1      35.367 -19.788 -20.966  0.00  0.00    -0.043 C 
ATOM     26  C   UNL     1      36.225 -20.606 -20.244  0.00  0.00    -0.006 C 
ATOM     27  C   UNL     1      33.990 -19.918 -20.853  0.00  0.00    -0.006 C 
ATOM     28  C   UNL     1      35.693 -21.573 -19.390  0.00  0.00    +0.004 C 
ATOM     29  C   UNL     1      33.459 -20.885 -20.000  0.00  0.00    +0.004 C 
ATOM     30  C   UNL     1      34.311 -21.712 -19.269  0.00  0.00    +0.054 C 
BRANCH  25  31
ATOM     31  C   UNL     1      35.940 -18.745 -21.890  0.00  0.00    -0.050 C 
BRANCH  31  32
ATOM     32  N   UNL     1      35.020 -17.626 -22.083  0.00  0.00    +0.387 N 
ATOM     33  N   UNL     1      34.414 -14.822 -22.442  0.00  0.00    +0.383 N 
ATOM     34  C   UNL     1      35.110 -16.678 -20.966  0.00  0.00    -0.100 C 
ATOM     35  C   UNL     1      35.288 -16.944 -23.355  0.00  0.00    -0.100 C 
ATOM     36  C   UNL     1      34.148 -15.502 -21.169  0.00  0.00    -0.101 C 
ATOM     37  C   UNL     1      34.325 -15.771 -23.559  0.00  0.00    -0.101 C 
ATOM     38  C   UNL     1      33.493 -13.704 -22.636  0.00  0.00    -0.101 C 
ATOM     39  H   UNL     1      34.072 -18.000 -22.112  0.00  0.00    -0.079 HD
ATOM     40  H   UNL     1      35.362 -14.446 -22.413  0.00  0.00    -0.080 HD
ENDBRANCH  31  32
ENDBRANCH  25  31
ENDBRANCH   3  30
TORSDOF 6
ENDMDL
MODEL 2
REMARK VINA RESULT:     -10.5      1.746      5.172
REMARK  Name = 10074640
REMARK  6 active torsions:
REMARK  status: ('A' for Active; 'I' for Inactive)
REMARK    1  A    between atoms: N_2  and  C_5
REMARK    2  A    between atoms: C_3  and  C_30
REMARK    3  A    between atoms: C_6  and  N_13
REMARK    4  A    between atoms: C_16  and  C_20
REMARK    5  A    between atoms: C_25  and  C_31
REMARK    6  A    between atoms: C_31  and  N_32
REMARK                            x       y       z     vdW  Elec       q    Type
REMARK                         _______ _______ _______ _____ _____    ______ ____
ROOT
ATOM      1  O   UNL     1      34.056 -23.108 -18.160  0.00  0.00    -0.270 OA
ATOM      2  N   UNL     1      35.935 -22.170 -17.113  0.00  0.00    -0.280 N 
ATOM      3  C   UNL     1      34.981 -22.280 -18.134  0.00  0.00    +0.249 C 
ATOM      4  H   UNL     1      36.609 -21.462 -17.233  0.00  0.00    +0.155 HD
ENDROOT
BRANCH   2   5
ATOM      5  C   UNL     1      36.056 -22.943 -15.933  0.00  0.00    +0.052 C 
ATOM      6  C   UNL     1      35.167 -23.658 -13.824  0.00  0.00    +0.048 C 
ATOM      7  C   UNL     1      35.047 -22.895 -14.986  0.00  0.00    +0.029 C 
ATOM      8  C   UNL     1      36.293 -24.457 -13.627  0.00  0.00    -0.008 C 
ATOM      9  C   UNL     1      37.180 -23.731 -15.754  0.00  0.00    +0.014 C 
ATOM     10  C   UNL     1      37.300 -24.493 -14.592  0.00  0.00    -0.002 C 
ATOM     11  C   UNL     1      36.447 -25.283 -12.393  0.00  0.00    +0.032 C 
BRANCH   6  13
ATOM     12  S   UNL     1      31.792 -23.300 -11.644  0.00  0.00    -0.059 S 
ATOM     13  N   UNL     1      34.138 -23.610 -12.858  0.00  0.00    -0.283 N 
ATOM     14  N   UNL     1      32.180 -23.590 -14.184  0.00  0.00    -0.384 NA
ATOM     15  C   UNL     1      32.784 -23.519 -13.023  0.00  0.00    +0.211 C 
ATOM     16  C   UNL     1      30.819 -23.461 -13.981  0.00  0.00    +0.124 C 
ATOM     17  C   UNL     1      30.419 -23.297 -12.671  0.00  0.00    +0.125 C 
ATOM     18  H   UNL     1      34.443 -23.647 -11.923  0.00  0.00    +0.155 HD
BRANCH  16  20
ATOM     19  N   UNL     1      28.687 -22.313 -16.800  0.00  0.00    -0.242 NA
ATOM     20  C   UNL     1      29.890 -23.499 -15.072  0.00  0.00    +0.046 C 
ATOM     21  C   UNL     1      29.299 -24.693 -15.468  0.00  0.00    +0.005 C 
ATOM     22  C   UNL     1      29.555 -22.346 -15.764  0.00  0.00    +0.101 C 
ATOM     23  C   UNL     1      28.402 -24.699 -16.531  0.00  0.00    +0.021 C 
ATOM     24  C   UNL     1      28.132 -23.492 -17.157  0.00  0.00    +0.099 C 
ENDBRANCH  16  20
ENDBRANCH   6  13
ENDBRANCH   2   5
BRANCH   3  30
ATOM     25  C   UNL     1      35.414 -19.582 -21.364  0.00  0.00    -0.043 C 
ATOM     26  C   UNL     1      36.545 -20.051 -20.708  0.00  0.00    -0.006 C 
ATOM     27  C   UNL     1      34.144 -19.986 -20.976  0.00  0.00    -0.006 C 
ATOM     28  C   UNL     1      36.401 -20.941 -19.643  0.00  0.00    +0.004 C 
ATOM     29  C   UNL     1      34.001 -20.876 -19.912  0.00  0.00    +0.004 C 
ATOM     30  C   UNL     1      35.129 -21.353 -19.246  0.00  0.00    +0.054 C 
BRANCH  25  31
ATOM     31  C   UNL     1      35.569 -18.623 -22.514  0.00  0.00    -0.050 C 
BRANCH  31  32
ATOM     32  N   UNL     1      34.735 -17.434 -22.347  0.00  0.00    +0.387 N 
ATOM     33  N   UNL     1      34.336 -14.582 -22.095  0.00  0.00    +0.383 N 
ATOM     34  C   UNL     1      35.084 -16.722 -21.112  0.00  0.00    -0.100 C 
ATOM     35  C   UNL     1      34.861 -16.542 -23.505  0.00  0.00    -0.100 C 
ATOM     36  C   UNL     1      34.212 -15.474 -20.936  0.00  0.00    -0.101 C 
ATOM     37  C   UNL     1      33.987 -15.295 -23.330  0.00  0.00    -0.101 C 
ATOM     38  C   UNL     1      33.500 -13.395 -21.928  0.00  0.00    -0.101 C 
ATOM     39  H   UNL     1      33.764 -17.739 -22.279  0.00  0.00    -0.079 HD
ATOM     40  H   UNL     1      35.306 -14.276 -22.163  0.00  0.00    -0.080 HD
ENDBRANCH  31  32
ENDBRANCH  25  31
ENDBRANCH   3  30
TORSDOF 6
ENDMDL
