MODEL 1
REMARK VINA RESULT:     -11.2      0.000      0.000
REMARK  Name = 158376
REMARK  11 active torsions:
REMARK  status: ('A' for Active; 'I' for Inactive)
REMARK    1  A    between atoms: C_1  and  N_22
REMARK    2  A    between atoms: C_2  and  C_9
REMARK    3  A    between atoms: N_8  and  CA_11
REMARK    4  A    between atoms: CA_11  and  C_13
REMARK    5  A    between atoms: CA_11  and  CB_16
REMARK    6  A    between atoms: C_13  and  O_14
REMARK    7  A    between atoms: CB_16  and  CG_17
REMARK    8  A    between atoms: CG_17  and  CD_19
REMARK    9  A    between atoms: CD_19  and  OE1_20
REMARK   10  A    between atoms: N_22  and  C_24
REMARK   11  A    between atoms: C_24  and  C_29
REMARK                            x       y       z     vdW  Elec       q    Type
REMARK                         _______ _______ _______ _____ _____    ______ ____
ROOT
ATOM      1  C   UNL     1      35.493 -19.654 -20.629  0.00  0.00    +0.048 C 
ATOM      2  C   UNL     1      34.337 -21.740 -19.181  0.00  0.00    +0.053 C 
ATOM      3  C   UNL     1      36.302 -20.537 -19.913  0.00  0.00    +0.015 C 
ATOM      4  C   UNL     1      34.108 -19.814 -20.622  0.00  0.00    +0.015 C 
ATOM      5  C   UNL     1      35.724 -21.580 -19.189  0.00  0.00    +0.006 C 
ATOM      6  C   UNL     1      33.530 -20.857 -19.897  0.00  0.00    +0.006 C 
ENDROOT
BRANCH   2   9
ATOM      7  O   UNL     1      33.716 -23.982 -18.890  0.00  0.00    -0.270 OA
ATOM      8  N   UNL     1      33.211 -22.516 -17.164  0.00  0.00    -0.293 N 
ATOM      9  C   ACE A   0      33.722 -22.851 -18.410  0.00  0.00    +0.246 C 
ATOM     10  H   UNL     1      33.263 -21.579 -16.867  0.00  0.00    +0.150 HD
BRANCH   8  11
ATOM     11  CA  UNL     1      32.606 -23.487 -16.288  0.00  0.00    +0.172 C 
BRANCH  11  13
ATOM     12  OXT UNL     1      30.527 -22.344 -16.841  0.00  0.00    -0.248 OA
ATOM     13  C   UNL     1      31.153 -23.099 -16.107  0.00  0.00    +0.332 C 
BRANCH  13  14
ATOM     14  O   UNL     1      30.590 -23.722 -15.039  0.00  0.00    -0.479 OA
ATOM     15  H   UNL     1      30.568 -24.658 -15.001  0.00  0.00    +0.295 HD
ENDBRANCH  13  14
ENDBRANCH  11  13
BRANCH  11  16
ATOM     16  CB  UNL     1      33.371 -23.653 -14.969  0.00  0.00    +0.043 C 
BRANCH  16  17
ATOM     17  CG  UNL     1      34.678 -24.451 -15.052  0.00  0.00    +0.112 C 
BRANCH  17  19
ATOM     18  OE2 UNL     1      35.892 -22.386 -15.500  0.00  0.00    -0.250 OA
ATOM     19  CD  UNL     1      35.897 -23.598 -15.329  0.00  0.00    +0.314 C 
BRANCH  19  20
ATOM     20  OE1 UNL     1      37.026 -24.350 -15.409  0.00  0.00    -0.480 OA
ATOM     21  HE1 UNL     1      37.269 -24.743 -16.224  0.00  0.00    +0.295 HD
ENDBRANCH  19  20
ENDBRANCH  17  19
ENDBRANCH  16  17
ENDBRANCH  11  16
ENDBRANCH   8  11
ENDBRANCH   2   9
BRANCH   1  22
ATOM     22  N   UNL     1      36.076 -18.600 -21.362  0.00  0.00    -0.302 N 
ATOM     23  C   UNL     1      37.438 -18.709 -21.847  0.00  0.00    +0.112 C 
BRANCH  22  24
ATOM     24  C   UNL     1      35.317 -17.400 -21.654  0.00  0.00    +0.118 C 
BRANCH  24  29
ATOM     25  O   UNL     1      34.684 -17.580 -25.291  0.00  0.00    -0.427 OA
ATOM     26  N   UNL     1      33.947 -15.426 -26.013  0.00  0.00    -0.294 NA
ATOM     27  N   UNL     1      33.825 -13.779 -24.223  0.00  0.00    -0.317 NA
ATOM     28  N   UNL     1      33.257 -13.230 -26.427  0.00  0.00    -0.283 N 
ATOM     29  C   UNL     1      34.984 -17.178 -23.097  0.00  0.00    +0.031 C 
ATOM     30  C   UNL     1      34.536 -15.982 -23.708  0.00  0.00    +0.180 C 
ATOM     31  C   UNL     1      34.364 -16.275 -25.057  0.00  0.00    +0.281 C 
ATOM     32  C   UNL     1      35.058 -18.116 -24.101  0.00  0.00    +0.176 C 
ATOM     33  C   UNL     1      34.248 -14.679 -23.306  0.00  0.00    +0.181 C 
ATOM     34  C   UNL     1      33.702 -14.203 -25.501  0.00  0.00    +0.200 C 
ATOM     35  H   UNL     1      33.145 -13.469 -27.375  0.00  0.00    +0.156 HD
ATOM     36  H   UNL     1      33.060 -12.315 -26.122  0.00  0.00    +0.156 HD
ATOM     37  N   UNL     1      34.393 -14.286 -21.964  0.00  0.00    -0.335 N 
ATOM     38  H   UNL     1      34.185 -13.362 -21.696  0.00  0.00    +0.144 HD
ATOM     39  H   UNL     1      34.701 -14.935 -21.290  0.00  0.00    +0.144 HD
ENDBRANCH  24  29
ENDBRANCH  22  24
ENDBRANCH   1  22
TORSDOF 11
ENDMDL
MODEL 2
REMARK VINA RESULT:     -11.1      1.960      2.728
REMARK  Name = 158376
REMARK  11 active torsions:
REMARK  status: ('A' for Active; 'I' for Inactive)
REMARK    1  A    between atoms: C_1  and  N_22
REMARK    2  A    between atoms: C_2  and  C_9
REMARK    3  A    between atoms: N_8  and  CA_11
REMARK    4  A    between atoms: CA_11  and  C_13
REMARK    5  A    between atoms: CA_11  and  CB_16
REMARK    6  A    between atoms: C_13  and  O_14
REMARK    7  A    between atoms: CB_16  and  CG_17
REMARK    8  A    between atoms: CG_17  and  CD_19
REMARK    9  A    between atoms: CD_19  and  OE1_20
REMARK   10  A    between atoms: N_22  and  C_24
REMARK   11  A    between atoms: C_24  and  C_29
REMARK                            x       y       z     vdW  Elec       q    Type
REMARK                         _______ _______ _______ _____ _____    ______ ____
ROOT
ATOM      1  C   UNL     1      35.117 -20.167 -20.478  0.00  0.00    +0.048 C 
ATOM      2  C   UNL     1      33.857 -21.961 -18.751  0.00  0.00    +0.053 C 
ATOM      3  C   UNL     1      35.878 -21.064 -19.727  0.00  0.00    +0.015 C 
ATOM      4  C   UNL     1      33.727 -20.168 -20.366  0.00  0.00    +0.015 C 
ATOM      5  C   UNL     1      35.248 -21.960 -18.864  0.00  0.00    +0.006 C 
ATOM      6  C   UNL     1      33.097 -21.064 -19.502  0.00  0.00    +0.006 C 
ENDROOT
BRANCH   2   9
ATOM      7  O   UNL     1      33.575 -24.080 -17.789  0.00  0.00    -0.270 OA
ATOM      8  N   UNL     1      32.160 -22.394 -17.057  0.00  0.00    -0.293 N 
ATOM      9  C   ACE A   0      33.186 -22.916 -17.832  0.00  0.00    +0.246 C 
ATOM     10  H   UNL     1      31.920 -21.445 -17.164  0.00  0.00    +0.150 HD
BRANCH   8  11
ATOM     11  CA  UNL     1      31.430 -23.188 -16.101  0.00  0.00    +0.172 C 
BRANCH  11  13
ATOM     12  OXT UNL     1      29.393 -21.965 -16.636  0.00  0.00    -0.248 OA
ATOM     13  C   UNL     1      29.954 -23.029 -16.403  0.00  0.00    +0.332 C 
BRANCH  13  14
ATOM     14  O   UNL     1      29.309 -24.224 -16.426  0.00  0.00    -0.479 OA
ATOM     15  H   UNL     1      28.441 -24.295 -16.082  0.00  0.00    +0.295 HD
ENDBRANCH  13  14
ENDBRANCH  11  13
BRANCH  11  16
ATOM     16  CB  UNL     1      31.804 -22.861 -14.650  0.00  0.00    +0.043 C 
BRANCH  16  17
ATOM     17  CG  UNL     1      31.009 -23.606 -13.571  0.00  0.00    +0.112 C 
BRANCH  17  19
ATOM     18  OE2 UNL     1      30.560 -25.925 -14.170  0.00  0.00    -0.250 OA
ATOM     19  CD  UNL     1      31.236 -25.102 -13.569  0.00  0.00    +0.314 C 
BRANCH  19  20
ATOM     20  OE1 UNL     1      32.281 -25.447 -12.771  0.00  0.00    -0.480 OA
ATOM     21  HE1 UNL     1      32.601 -24.842 -12.131  0.00  0.00    +0.295 HD
ENDBRANCH  19  20
ENDBRANCH  17  19
ENDBRANCH  16  17
ENDBRANCH  11  16
ENDBRANCH   8  11
ENDBRANCH   2   9
BRANCH   1  22
ATOM     22  N   UNL     1      35.753 -19.261 -21.351  0.00  0.00    -0.302 N 
ATOM     23  C   UNL     1      37.195 -19.114 -21.334  0.00  0.00    +0.112 C 
BRANCH  22  24
ATOM     24  C   UNL     1      34.974 -18.476 -22.290  0.00  0.00    +0.118 C 
BRANCH  24  29
ATOM     25  O   UNL     1      34.515 -15.187 -20.668  0.00  0.00    -0.427 OA
ATOM     26  N   UNL     1      34.259 -13.553 -22.390  0.00  0.00    -0.294 NA
ATOM     27  N   UNL     1      34.367 -14.472 -24.643  0.00  0.00    -0.317 NA
ATOM     28  N   UNL     1      34.040 -12.184 -24.274  0.00  0.00    -0.283 N 
ATOM     29  C   UNL     1      34.770 -17.040 -21.920  0.00  0.00    +0.031 C 
ATOM     30  C   UNL     1      34.600 -15.938 -22.792  0.00  0.00    +0.180 C 
ATOM     31  C   UNL     1      34.447 -14.819 -21.979  0.00  0.00    +0.281 C 
ATOM     32  C   UNL     1      34.709 -16.531 -20.643  0.00  0.00    +0.176 C 
ATOM     33  C   UNL     1      34.554 -15.725 -24.169  0.00  0.00    +0.181 C 
ATOM     34  C   UNL     1      34.234 -13.477 -23.736  0.00  0.00    +0.200 C 
ATOM     35  H   UNL     1      33.935 -11.412 -23.672  0.00  0.00    +0.156 HD
ATOM     36  H   UNL     1      34.011 -12.056 -25.249  0.00  0.00    +0.156 HD
ATOM     37  N   UNL     1      34.698 -16.794 -25.072  0.00  0.00    -0.335 N 
ATOM     38  H   UNL     1      34.664 -16.627 -26.041  0.00  0.00    +0.144 HD
ATOM     39  H   UNL     1      34.833 -17.709 -24.735  0.00  0.00    +0.144 HD
ENDBRANCH  24  29
ENDBRANCH  22  24
ENDBRANCH   1  22
TORSDOF 11
ENDMDL
MODEL 3
REMARK VINA RESULT:     -11.0      3.838     11.038
REMARK  Name = 158376
REMARK  11 active torsions:
REMARK  status: ('A' for Active; 'I' for Inactive)
REMARK    1  A    between atoms: C_1  and  N_22
REMARK    2  A    between atoms: C_2  and  C_9
REMARK    3  A    between atoms: N_8  and  CA_11
REMARK    4  A    between atoms: CA_11  and  C_13
REMARK    5  A    between atoms: CA_11  and  CB_16
REMARK    6  A    between atoms: C_13  and  O_14
REMARK    7  A    between atoms: CB_16  and  CG_17
REMARK    8  A    between atoms: CG_17  and  CD_19
REMARK    9  A    between atoms: CD_19  and  OE1_20
REMARK   10  A    between atoms: N_22  and  C_24
REMARK   11  A    between atoms: C_24  and  C_29
REMARK                            x       y       z     vdW  Elec       q    Type
REMARK                         _______ _______ _______ _____ _____    ______ ____
ROOT
ATOM      1  C   UNL     1      34.260 -23.132 -16.099  0.00  0.00    +0.048 C 
ATOM      2  C   UNL     1      35.390 -21.983 -18.377  0.00  0.00    +0.053 C 
ATOM      3  C   UNL     1      35.587 -22.700 -16.077  0.00  0.00    +0.015 C 
ATOM      4  C   UNL     1      33.499 -22.989 -17.259  0.00  0.00    +0.015 C 
ATOM      5  C   UNL     1      36.151 -22.126 -17.216  0.00  0.00    +0.006 C 
ATOM      6  C   UNL     1      34.064 -22.415 -18.398  0.00  0.00    +0.006 C 
ENDROOT
BRANCH   2   9
ATOM      7  O   UNL     1      37.118 -21.714 -19.939  0.00  0.00    -0.270 OA
ATOM      8  N   UNL     1      35.199 -20.451 -20.262  0.00  0.00    -0.293 N 
ATOM      9  C   ACE A   0      35.991 -21.371 -19.589  0.00  0.00    +0.246 C 
ATOM     10  H   UNL     1      34.308 -20.240 -19.902  0.00  0.00    +0.150 HD
BRANCH   8  11
ATOM     11  CA  UNL     1      35.632 -19.790 -21.467  0.00  0.00    +0.172 C 
BRANCH  11  13
ATOM     12  OXT UNL     1      37.778 -18.683 -21.153  0.00  0.00    -0.248 OA
ATOM     13  C   UNL     1      36.557 -18.660 -21.065  0.00  0.00    +0.332 C 
BRANCH  13  14
ATOM     14  O   UNL     1      35.869 -17.576 -20.619  0.00  0.00    -0.479 OA
ATOM     15  H   UNL     1      35.091 -17.302 -21.060  0.00  0.00    +0.295 HD
ENDBRANCH  13  14
ENDBRANCH  11  13
BRANCH  11  16
ATOM     16  CB  UNL     1      34.461 -19.346 -22.353  0.00  0.00    +0.043 C 
BRANCH  16  17
ATOM     17  CG  UNL     1      34.824 -18.949 -23.789  0.00  0.00    +0.112 C 
BRANCH  17  19
ATOM     18  OE2 UNL     1      34.792 -16.595 -23.159  0.00  0.00    -0.250 OA
ATOM     19  CD  UNL     1      34.815 -17.455 -24.030  0.00  0.00    +0.314 C 
BRANCH  19  20
ATOM     20  OE1 UNL     1      34.794 -17.162 -25.357  0.00  0.00    -0.480 OA
ATOM     21  HE1 UNL     1      34.642 -17.841 -25.984  0.00  0.00    +0.295 HD
ENDBRANCH  19  20
ENDBRANCH  17  19
ENDBRANCH  16  17
ENDBRANCH  11  16
ENDBRANCH   8  11
ENDBRANCH   2   9
BRANCH   1  22
ATOM     22  N   UNL     1      33.689 -23.712 -14.948  0.00  0.00    -0.302 N 
ATOM     23  C   UNL     1      32.473 -23.167 -14.378  0.00  0.00    +0.112 C 
BRANCH  22  24
ATOM     24  C   UNL     1      34.301 -24.871 -14.328  0.00  0.00    +0.118 C 
BRANCH  24  29
ATOM     25  O   UNL     1      37.157 -23.739 -12.271  0.00  0.00    -0.427 OA
ATOM     26  N   UNL     1      39.064 -25.033 -12.893  0.00  0.00    -0.294 NA
ATOM     27  N   UNL     1      38.614 -26.671 -14.639  0.00  0.00    -0.317 NA
ATOM     28  N   UNL     1      40.747 -26.443 -13.702  0.00  0.00    -0.283 N 
ATOM     29  C   UNL     1      35.614 -24.625 -13.650  0.00  0.00    +0.031 C 
ATOM     30  C   UNL     1      36.845 -25.285 -13.882  0.00  0.00    +0.180 C 
ATOM     31  C   UNL     1      37.765 -24.709 -13.012  0.00  0.00    +0.281 C 
ATOM     32  C   UNL     1      35.858 -23.696 -12.665  0.00  0.00    +0.176 C 
ATOM     33  C   UNL     1      37.316 -26.300 -14.712  0.00  0.00    +0.181 C 
ATOM     34  C   UNL     1      39.397 -26.024 -13.746  0.00  0.00    +0.200 C 
ATOM     35  H   UNL     1      41.374 -26.014 -13.075  0.00  0.00    +0.156 HD
ATOM     36  H   UNL     1      41.059 -27.161 -14.298  0.00  0.00    +0.156 HD
ATOM     37  N   UNL     1      36.461 -26.943 -15.626  0.00  0.00    -0.335 N 
ATOM     38  H   UNL     1      36.809 -27.658 -16.206  0.00  0.00    +0.144 HD
ATOM     39  H   UNL     1      35.515 -26.679 -15.687  0.00  0.00    +0.144 HD
ENDBRANCH  24  29
ENDBRANCH  22  24
ENDBRANCH   1  22
TORSDOF 11
ENDMDL
MODEL 4
REMARK VINA RESULT:     -11.0      1.357      1.961
REMARK  Name = 158376
REMARK  11 active torsions:
REMARK  status: ('A' for Active; 'I' for Inactive)
REMARK    1  A    between atoms: C_1  and  N_22
REMARK    2  A    between atoms: C_2  and  C_9
REMARK    3  A    between atoms: N_8  and  CA_11
REMARK    4  A    between atoms: CA_11  and  C_13
REMARK    5  A    between atoms: CA_11  and  CB_16
REMARK    6  A    between atoms: C_13  and  O_14
REMARK    7  A    between atoms: CB_16  and  CG_17
REMARK    8  A    between atoms: CG_17  and  CD_19
REMARK    9  A    between atoms: CD_19  and  OE1_20
REMARK   10  A    between atoms: N_22  and  C_24
REMARK   11  A    between atoms: C_24  and  C_29
REMARK                            x       y       z     vdW  Elec       q    Type
REMARK                         _______ _______ _______ _____ _____    ______ ____
ROOT
ATOM      1  C   UNL     1      35.291 -20.049 -20.560  0.00  0.00    +0.048 C 
ATOM      2  C   UNL     1      34.078 -21.954 -18.921  0.00  0.00    +0.053 C 
ATOM      3  C   UNL     1      36.076 -20.914 -19.797  0.00  0.00    +0.015 C 
ATOM      4  C   UNL     1      33.900 -20.136 -20.504  0.00  0.00    +0.015 C 
ATOM      5  C   UNL     1      35.469 -21.866 -18.979  0.00  0.00    +0.006 C 
ATOM      6  C   UNL     1      33.294 -21.089 -19.684  0.00  0.00    +0.006 C 
ENDROOT
BRANCH   2   9
ATOM      7  O   UNL     1      33.576 -24.160 -18.308  0.00  0.00    -0.270 OA
ATOM      8  N   UNL     1      32.717 -22.473 -16.967  0.00  0.00    -0.293 N 
ATOM      9  C   ACE A   0      33.432 -22.968 -18.049  0.00  0.00    +0.246 C 
ATOM     10  H   UNL     1      32.659 -21.498 -16.844  0.00  0.00    +0.150 HD
BRANCH   8  11
ATOM     11  CA  UNL     1      32.056 -23.331 -16.017  0.00  0.00    +0.172 C 
BRANCH  11  13
ATOM     12  OXT UNL     1      29.908 -22.517 -16.829  0.00  0.00    -0.248 OA
ATOM     13  C   UNL     1      30.621 -22.859 -15.894  0.00  0.00    +0.332 C 
BRANCH  13  14
ATOM     14  O   UNL     1      30.186 -22.890 -14.607  0.00  0.00    -0.479 OA
ATOM     15  H   UNL     1      29.292 -23.095 -14.420  0.00  0.00    +0.295 HD
ENDBRANCH  13  14
ENDBRANCH  11  13
BRANCH  11  16
ATOM     16  CB  UNL     1      32.797 -23.415 -14.678  0.00  0.00    +0.043 C 
BRANCH  16  17
ATOM     17  CG  UNL     1      33.999 -24.367 -14.638  0.00  0.00    +0.112 C 
BRANCH  17  19
ATOM     18  OE2 UNL     1      36.412 -24.239 -14.954  0.00  0.00    -0.250 OA
ATOM     19  CD  UNL     1      35.330 -23.678 -14.843  0.00  0.00    +0.314 C 
BRANCH  19  20
ATOM     20  OE1 UNL     1      35.197 -22.325 -14.850  0.00  0.00    -0.480 OA
ATOM     21  HE1 UNL     1      35.772 -21.796 -14.332  0.00  0.00    +0.295 HD
ENDBRANCH  19  20
ENDBRANCH  17  19
ENDBRANCH  16  17
ENDBRANCH  11  16
ENDBRANCH   8  11
ENDBRANCH   2   9
BRANCH   1  22
ATOM     22  N   UNL     1      35.904 -19.087 -21.390  0.00  0.00    -0.302 N 
ATOM     23  C   UNL     1      37.334 -18.866 -21.324  0.00  0.00    +0.112 C 
BRANCH  22  24
ATOM     24  C   UNL     1      35.112 -18.317 -22.330  0.00  0.00    +0.118 C 
BRANCH  24  29
ATOM     25  O   UNL     1      34.452 -15.096 -20.640  0.00  0.00    -0.427 OA
ATOM     26  N   UNL     1      34.144 -13.436 -22.328  0.00  0.00    -0.294 NA
ATOM     27  N   UNL     1      34.342 -14.293 -24.600  0.00  0.00    -0.317 NA
ATOM     28  N   UNL     1      33.889 -12.035 -24.184  0.00  0.00    -0.283 N 
ATOM     29  C   UNL     1      34.827 -16.903 -21.931  0.00  0.00    +0.031 C 
ATOM     30  C   UNL     1      34.616 -15.790 -22.780  0.00  0.00    +0.180 C 
ATOM     31  C   UNL     1      34.390 -14.700 -21.944  0.00  0.00    +0.281 C 
ATOM     32  C   UNL     1      34.716 -16.429 -20.644  0.00  0.00    +0.176 C 
ATOM     33  C   UNL     1      34.585 -15.546 -24.152  0.00  0.00    +0.181 C 
ATOM     34  C   UNL     1      34.140 -13.329 -23.673  0.00  0.00    +0.200 C 
ATOM     35  H   UNL     1      33.733 -11.284 -23.566  0.00  0.00    +0.156 HD
ATOM     36  H   UNL     1      33.871 -11.885 -25.157  0.00  0.00    +0.156 HD
ATOM     37  N   UNL     1      34.800 -16.584 -25.076  0.00  0.00    -0.335 N 
ATOM     38  H   UNL     1      34.775 -16.396 -26.042  0.00  0.00    +0.144 HD
ATOM     39  H   UNL     1      34.977 -17.499 -24.759  0.00  0.00    +0.144 HD
ENDBRANCH  24  29
ENDBRANCH  22  24
ENDBRANCH   1  22
TORSDOF 11
ENDMDL
MODEL 5
REMARK VINA RESULT:     -10.7      1.675      2.518
REMARK  Name = 158376
REMARK  11 active torsions:
REMARK  status: ('A' for Active; 'I' for Inactive)
REMARK    1  A    between atoms: C_1  and  N_22
REMARK    2  A    between atoms: C_2  and  C_9
REMARK    3  A    between atoms: N_8  and  CA_11
REMARK    4  A    between atoms: CA_11  and  C_13
REMARK    5  A    between atoms: CA_11  and  CB_16
REMARK    6  A    between atoms: C_13  and  O_14
REMARK    7  A    between atoms: CB_16  and  CG_17
REMARK    8  A    between atoms: CG_17  and  CD_19
REMARK    9  A    between atoms: CD_19  and  OE1_20
REMARK   10  A    between atoms: N_22  and  C_24
REMARK   11  A    between atoms: C_24  and  C_29
REMARK                            x       y       z     vdW  Elec       q    Type
REMARK                         _______ _______ _______ _____ _____    ______ ____
ROOT
ATOM      1  C   UNL     1      34.826 -19.835 -21.286  0.00  0.00    +0.048 C 
ATOM      2  C   UNL     1      34.353 -21.502 -19.098  0.00  0.00    +0.053 C 
ATOM      3  C   UNL     1      33.523 -20.031 -20.828  0.00  0.00    +0.015 C 
ATOM      4  C   UNL     1      35.892 -20.471 -20.650  0.00  0.00    +0.015 C 
ATOM      5  C   UNL     1      33.287 -20.864 -19.734  0.00  0.00    +0.006 C 
ATOM      6  C   UNL     1      35.655 -21.305 -19.557  0.00  0.00    +0.006 C 
ENDROOT
BRANCH   2   9
ATOM      7  O   UNL     1      35.054 -22.921 -17.368  0.00  0.00    -0.270 OA
ATOM      8  N   UNL     1      32.775 -22.529 -17.552  0.00  0.00    -0.293 N 
ATOM      9  C   ACE A   0      34.102 -22.388 -17.933  0.00  0.00    +0.246 C 
ATOM     10  H   UNL     1      32.081 -22.061 -18.070  0.00  0.00    +0.150 HD
BRANCH   8  11
ATOM     11  CA  UNL     1      32.372 -23.335 -16.427  0.00  0.00    +0.172 C 
BRANCH  11  13
ATOM     12  OXT UNL     1      30.196 -22.308 -16.804  0.00  0.00    -0.248 OA
ATOM     13  C   UNL     1      30.878 -23.159 -16.248  0.00  0.00    +0.332 C 
BRANCH  13  14
ATOM     14  O   UNL     1      30.354 -24.094 -15.413  0.00  0.00    -0.479 OA
ATOM     15  H   UNL     1      30.744 -24.244 -14.575  0.00  0.00    +0.295 HD
ENDBRANCH  13  14
ENDBRANCH  11  13
BRANCH  11  16
ATOM     16  CB  UNL     1      33.187 -23.036 -15.163  0.00  0.00    +0.043 C 
BRANCH  16  17
ATOM     17  CG  UNL     1      33.840 -24.248 -14.487  0.00  0.00    +0.112 C 
BRANCH  17  19
ATOM     18  OE2 UNL     1      31.996 -24.730 -12.969  0.00  0.00    -0.250 OA
ATOM     19  CD  UNL     1      33.198 -24.632 -13.171  0.00  0.00    +0.314 C 
BRANCH  19  20
ATOM     20  OE1 UNL     1      34.128 -24.823 -12.198  0.00  0.00    -0.480 OA
ATOM     21  HE1 UNL     1      34.684 -24.116 -11.937  0.00  0.00    +0.295 HD
ENDBRANCH  19  20
ENDBRANCH  17  19
ENDBRANCH  16  17
ENDBRANCH  11  16
ENDBRANCH   8  11
ENDBRANCH   2   9
BRANCH   1  22
ATOM     22  N   UNL     1      35.066 -18.992 -22.390  0.00  0.00    -0.302 N 
ATOM     23  C   UNL     1      34.692 -19.409 -23.727  0.00  0.00    +0.112 C 
BRANCH  22  24
ATOM     24  C   UNL     1      35.675 -17.690 -22.201  0.00  0.00    +0.118 C 
BRANCH  24  29
ATOM     25  O   UNL     1      34.279 -15.157 -24.504  0.00  0.00    -0.427 OA
ATOM     26  N   UNL     1      32.986 -13.624 -23.207  0.00  0.00    -0.294 NA
ATOM     27  N   UNL     1      32.950 -14.137 -20.826  0.00  0.00    -0.317 NA
ATOM     28  N   UNL     1      31.799 -12.293 -21.694  0.00  0.00    -0.283 N 
ATOM     29  C   UNL     1      34.985 -16.547 -22.880  0.00  0.00    +0.031 C 
ATOM     30  C   UNL     1      34.182 -15.544 -22.284  0.00  0.00    +0.180 C 
ATOM     31  C   UNL     1      33.769 -14.711 -23.320  0.00  0.00    +0.281 C 
ATOM     32  C   UNL     1      35.013 -16.265 -24.226  0.00  0.00    +0.176 C 
ATOM     33  C   UNL     1      33.741 -15.220 -21.003  0.00  0.00    +0.181 C 
ATOM     34  C   UNL     1      32.626 -13.416 -21.924  0.00  0.00    +0.200 C 
ATOM     35  H   UNL     1      31.523 -11.722 -22.448  0.00  0.00    +0.156 HD
ATOM     36  H   UNL     1      31.499 -12.081 -20.781  0.00  0.00    +0.156 HD
ATOM     37  N   UNL     1      34.106 -16.001 -19.892  0.00  0.00    -0.335 N 
ATOM     38  H   UNL     1      33.786 -15.759 -18.993  0.00  0.00    +0.144 HD
ATOM     39  H   UNL     1      34.682 -16.790 -20.012  0.00  0.00    +0.144 HD
ENDBRANCH  24  29
ENDBRANCH  22  24
ENDBRANCH   1  22
TORSDOF 11
ENDMDL
MODEL 6
REMARK VINA RESULT:     -10.1      1.736      3.450
REMARK  Name = 158376
REMARK  11 active torsions:
REMARK  status: ('A' for Active; 'I' for Inactive)
REMARK    1  A    between atoms: C_1  and  N_22
REMARK    2  A    between atoms: C_2  and  C_9
REMARK    3  A    between atoms: N_8  and  CA_11
REMARK    4  A    between atoms: CA_11  and  C_13
REMARK    5  A    between atoms: CA_11  and  CB_16
REMARK    6  A    between atoms: C_13  and  O_14
REMARK    7  A    between atoms: CB_16  and  CG_17
REMARK    8  A    between atoms: CG_17  and  CD_19
REMARK    9  A    between atoms: CD_19  and  OE1_20
REMARK   10  A    between atoms: N_22  and  C_24
REMARK   11  A    between atoms: C_24  and  C_29
REMARK                            x       y       z     vdW  Elec       q    Type
REMARK                         _______ _______ _______ _____ _____    ______ ____
ROOT
ATOM      1  C   UNL     1      35.216 -20.197 -20.452  0.00  0.00    +0.048 C 
ATOM      2  C   UNL     1      33.958 -21.945 -18.677  0.00  0.00    +0.053 C 
ATOM      3  C   UNL     1      35.980 -21.043 -19.647  0.00  0.00    +0.015 C 
ATOM      4  C   UNL     1      33.824 -20.226 -20.370  0.00  0.00    +0.015 C 
ATOM      5  C   UNL     1      35.351 -21.916 -18.760  0.00  0.00    +0.006 C 
ATOM      6  C   UNL     1      33.195 -21.100 -19.481  0.00  0.00    +0.006 C 
ENDROOT
BRANCH   2   9
ATOM      7  O   UNL     1      33.359 -24.085 -17.932  0.00  0.00    -0.270 OA
ATOM      8  N   UNL     1      32.640 -22.286 -16.656  0.00  0.00    -0.293 N 
ATOM      9  C   ACE A   0      33.289 -22.875 -17.732  0.00  0.00    +0.246 C 
ATOM     10  H   UNL     1      32.639 -21.305 -16.582  0.00  0.00    +0.150 HD
BRANCH   8  11
ATOM     11  CA  UNL     1      31.966 -23.056 -15.641  0.00  0.00    +0.172 C 
BRANCH  11  13
ATOM     12  OXT UNL     1      32.968 -24.754 -14.211  0.00  0.00    -0.248 OA
ATOM     13  C   UNL     1      33.026 -23.650 -14.736  0.00  0.00    +0.332 C 
BRANCH  13  14
ATOM     14  O   UNL     1      34.094 -22.821 -14.593  0.00  0.00    -0.479 OA
ATOM     15  H   UNL     1      34.595 -22.569 -15.344  0.00  0.00    +0.295 HD
ENDBRANCH  13  14
ENDBRANCH  11  13
BRANCH  11  16
ATOM     16  CB  UNL     1      31.001 -24.094 -16.227  0.00  0.00    +0.043 C 
BRANCH  16  17
ATOM     17  CG  UNL     1      29.565 -24.048 -15.692  0.00  0.00    +0.112 C 
BRANCH  17  19
ATOM     18  OE2 UNL     1      28.592 -22.057 -16.707  0.00  0.00    -0.250 OA
ATOM     19  CD  UNL     1      28.610 -23.273 -16.574  0.00  0.00    +0.314 C 
BRANCH  19  20
ATOM     20  OE1 UNL     1      27.722 -24.096 -17.192  0.00  0.00    -0.480 OA
ATOM     21  HE1 UNL     1      27.272 -24.754 -16.699  0.00  0.00    +0.295 HD
ENDBRANCH  19  20
ENDBRANCH  17  19
ENDBRANCH  16  17
ENDBRANCH  11  16
ENDBRANCH   8  11
ENDBRANCH   2   9
BRANCH   1  22
ATOM     22  N   UNL     1      35.851 -19.315 -21.350  0.00  0.00    -0.302 N 
ATOM     23  C   UNL     1      37.294 -19.183 -21.352  0.00  0.00    +0.112 C 
BRANCH  22  24
ATOM     24  C   UNL     1      35.069 -18.539 -22.293  0.00  0.00    +0.118 C 
BRANCH  24  29
ATOM     25  O   UNL     1      34.537 -15.268 -20.655  0.00  0.00    -0.427 OA
ATOM     26  N   UNL     1      34.238 -13.633 -22.370  0.00  0.00    -0.294 NA
ATOM     27  N   UNL     1      34.360 -14.540 -24.627  0.00  0.00    -0.317 NA
ATOM     28  N   UNL     1      33.980 -12.262 -24.248  0.00  0.00    -0.283 N 
ATOM     29  C   UNL     1      34.832 -17.109 -21.916  0.00  0.00    +0.031 C 
ATOM     30  C   UNL     1      34.633 -16.008 -22.783  0.00  0.00    +0.180 C 
ATOM     31  C   UNL     1      34.457 -14.896 -21.965  0.00  0.00    +0.281 C 
ATOM     32  C   UNL     1      34.763 -16.607 -20.637  0.00  0.00    +0.176 C 
ATOM     33  C   UNL     1      34.578 -15.790 -24.159  0.00  0.00    +0.181 C 
ATOM     34  C   UNL     1      34.206 -13.552 -23.716  0.00  0.00    +0.200 C 
ATOM     35  H   UNL     1      33.859 -11.495 -23.642  0.00  0.00    +0.156 HD
ATOM     36  H   UNL     1      33.945 -12.131 -25.222  0.00  0.00    +0.156 HD
ATOM     37  N   UNL     1      34.744 -16.852 -25.067  0.00  0.00    -0.335 N 
ATOM     38  H   UNL     1      34.702 -16.682 -26.035  0.00  0.00    +0.144 HD
ATOM     39  H   UNL     1      34.902 -17.765 -24.734  0.00  0.00    +0.144 HD
ENDBRANCH  24  29
ENDBRANCH  22  24
ENDBRANCH   1  22
TORSDOF 11
ENDMDL
MODEL 7
REMARK VINA RESULT:     -10.1      3.275      5.070
REMARK  Name = 158376
REMARK  11 active torsions:
REMARK  status: ('A' for Active; 'I' for Inactive)
REMARK    1  A    between atoms: C_1  and  N_22
REMARK    2  A    between atoms: C_2  and  C_9
REMARK    3  A    between atoms: N_8  and  CA_11
REMARK    4  A    between atoms: CA_11  and  C_13
REMARK    5  A    between atoms: CA_11  and  CB_16
REMARK    6  A    between atoms: C_13  and  O_14
REMARK    7  A    between atoms: CB_16  and  CG_17
REMARK    8  A    between atoms: CG_17  and  CD_19
REMARK    9  A    between atoms: CD_19  and  OE1_20
REMARK   10  A    between atoms: N_22  and  C_24
REMARK   11  A    between atoms: C_24  and  C_29
REMARK                            x       y       z     vdW  Elec       q    Type
REMARK                         _______ _______ _______ _____ _____    ______ ____
ROOT
ATOM      1  C   UNL     1      34.616 -15.986 -23.015  0.00  0.00    +0.048 C 
ATOM      2  C   UNL     1      35.497 -18.280 -21.694  0.00  0.00    +0.053 C 
ATOM      3  C   UNL     1      34.707 -15.997 -21.623  0.00  0.00    +0.015 C 
ATOM      4  C   UNL     1      34.967 -17.120 -23.747  0.00  0.00    +0.015 C 
ATOM      5  C   UNL     1      35.147 -17.144 -20.963  0.00  0.00    +0.006 C 
ATOM      6  C   UNL     1      35.407 -18.268 -23.085  0.00  0.00    +0.006 C 
ENDROOT
BRANCH   2   9
ATOM      7  O   UNL     1      37.173 -19.688 -20.854  0.00  0.00    -0.270 OA
ATOM      8  N   UNL     1      34.975 -20.345 -20.510  0.00  0.00    -0.293 N 
ATOM      9  C   ACE A   0      35.967 -19.502 -20.991  0.00  0.00    +0.246 C 
ATOM     10  H   UNL     1      34.033 -20.109 -20.671  0.00  0.00    +0.150 HD
BRANCH   8  11
ATOM     11  CA  UNL     1      35.271 -21.555 -19.786  0.00  0.00    +0.172 C 
BRANCH  11  13
ATOM     12  OXT UNL     1      33.039 -21.357 -18.830  0.00  0.00    -0.248 OA
ATOM     13  C   UNL     1      33.973 -22.062 -19.191  0.00  0.00    +0.332 C 
BRANCH  13  14
ATOM     14  O   UNL     1      33.938 -23.420 -19.132  0.00  0.00    -0.479 OA
ATOM     15  H   UNL     1      34.723 -23.914 -19.258  0.00  0.00    +0.295 HD
ENDBRANCH  13  14
ENDBRANCH  11  13
BRANCH  11  16
ATOM     16  CB  UNL     1      36.393 -21.371 -18.758  0.00  0.00    +0.043 C 
BRANCH  16  17
ATOM     17  CG  UNL     1      36.181 -22.063 -17.406  0.00  0.00    +0.112 C 
BRANCH  17  19
ATOM     18  OE2 UNL     1      37.690 -22.541 -15.553  0.00  0.00    -0.250 OA
ATOM     19  CD  UNL     1      37.258 -21.758 -16.388  0.00  0.00    +0.314 C 
BRANCH  19  20
ATOM     20  OE1 UNL     1      37.680 -20.469 -16.478  0.00  0.00    -0.480 OA
ATOM     21  HE1 UNL     1      38.596 -20.273 -16.446  0.00  0.00    +0.295 HD
ENDBRANCH  19  20
ENDBRANCH  17  19
ENDBRANCH  16  17
ENDBRANCH  11  16
ENDBRANCH   8  11
ENDBRANCH   2   9
BRANCH   1  22
ATOM     22  N   UNL     1      34.172 -14.826 -23.683  0.00  0.00    -0.302 N 
ATOM     23  C   UNL     1      33.370 -14.933 -24.885  0.00  0.00    +0.112 C 
BRANCH  22  24
ATOM     24  C   UNL     1      34.500 -13.511 -23.168  0.00  0.00    +0.118 C 
BRANCH  24  29
ATOM     25  O   UNL     1      31.520 -12.339 -21.322  0.00  0.00    -0.427 OA
ATOM     26  N   UNL     1      31.308  -9.990 -21.693  0.00  0.00    -0.294 NA
ATOM     27  N   UNL     1      33.044  -9.060 -23.126  0.00  0.00    -0.317 NA
ATOM     28  N   UNL     1      31.353  -7.713 -22.229  0.00  0.00    -0.283 N 
ATOM     29  C   UNL     1      33.369 -12.762 -22.534  0.00  0.00    +0.031 C 
ATOM     30  C   UNL     1      33.080 -11.380 -22.638  0.00  0.00    +0.180 C 
ATOM     31  C   UNL     1      31.936 -11.164 -21.876  0.00  0.00    +0.281 C 
ATOM     32  C   UNL     1      32.392 -13.298 -21.727  0.00  0.00    +0.176 C 
ATOM     33  C   UNL     1      33.631 -10.269 -23.273  0.00  0.00    +0.181 C 
ATOM     34  C   UNL     1      31.935  -8.996 -22.355  0.00  0.00    +0.200 C 
ATOM     35  H   UNL     1      30.542  -7.593 -21.682  0.00  0.00    +0.156 HD
ATOM     36  H   UNL     1      31.758  -6.942 -22.686  0.00  0.00    +0.156 HD
ATOM     37  N   UNL     1      34.787 -10.387 -24.066  0.00  0.00    -0.335 N 
ATOM     38  H   UNL     1      35.164  -9.593 -24.507  0.00  0.00    +0.144 HD
ATOM     39  H   UNL     1      35.220 -11.264 -24.178  0.00  0.00    +0.144 HD
ENDBRANCH  24  29
ENDBRANCH  22  24
ENDBRANCH   1  22
TORSDOF 11
ENDMDL
MODEL 8
REMARK VINA RESULT:     -10.0      2.918     10.726
REMARK  Name = 158376
REMARK  11 active torsions:
REMARK  status: ('A' for Active; 'I' for Inactive)
REMARK    1  A    between atoms: C_1  and  N_22
REMARK    2  A    between atoms: C_2  and  C_9
REMARK    3  A    between atoms: N_8  and  CA_11
REMARK    4  A    between atoms: CA_11  and  C_13
REMARK    5  A    between atoms: CA_11  and  CB_16
REMARK    6  A    between atoms: C_13  and  O_14
REMARK    7  A    between atoms: CB_16  and  CG_17
REMARK    8  A    between atoms: CG_17  and  CD_19
REMARK    9  A    between atoms: CD_19  and  OE1_20
REMARK   10  A    between atoms: N_22  and  C_24
REMARK   11  A    between atoms: C_24  and  C_29
REMARK                            x       y       z     vdW  Elec       q    Type
REMARK                         _______ _______ _______ _____ _____    ______ ____
ROOT
ATOM      1  C   UNL     1      33.927 -21.954 -18.488  0.00  0.00    +0.048 C 
ATOM      2  C   UNL     1      34.648 -20.200 -20.535  0.00  0.00    +0.053 C 
ATOM      3  C   UNL     1      35.272 -21.774 -18.810  0.00  0.00    +0.015 C 
ATOM      4  C   UNL     1      32.942 -21.257 -19.189  0.00  0.00    +0.015 C 
ATOM      5  C   UNL     1      35.633 -20.897 -19.833  0.00  0.00    +0.006 C 
ATOM      6  C   UNL     1      33.304 -20.380 -20.213  0.00  0.00    +0.006 C 
ENDROOT
BRANCH   2   9
ATOM      7  O   UNL     1      35.381 -19.723 -22.710  0.00  0.00    -0.270 OA
ATOM      8  N   UNL     1      34.941 -17.914 -21.326  0.00  0.00    -0.293 N 
ATOM      9  C   ACE A   0      35.032 -19.267 -21.625  0.00  0.00    +0.246 C 
ATOM     10  H   UNL     1      34.651 -17.646 -20.425  0.00  0.00    +0.150 HD
BRANCH   8  11
ATOM     11  CA  UNL     1      35.255 -16.886 -22.286  0.00  0.00    +0.172 C 
BRANCH  11  13
ATOM     12  OXT UNL     1      34.998 -14.465 -22.214  0.00  0.00    -0.248 OA
ATOM     13  C   UNL     1      34.818 -15.560 -21.697  0.00  0.00    +0.332 C 
BRANCH  13  14
ATOM     14  O   UNL     1      34.154 -15.721 -20.522  0.00  0.00    -0.479 OA
ATOM     15  H   UNL     1      33.249 -15.491 -20.460  0.00  0.00    +0.295 HD
ENDBRANCH  13  14
ENDBRANCH  11  13
BRANCH  11  16
ATOM     16  CB  UNL     1      34.668 -17.171 -23.674  0.00  0.00    +0.043 C 
BRANCH  16  17
ATOM     17  CG  UNL     1      35.112 -16.222 -24.794  0.00  0.00    +0.112 C 
BRANCH  17  19
ATOM     18  OE2 UNL     1      33.598 -15.606 -26.601  0.00  0.00    -0.250 OA
ATOM     19  CD  UNL     1      33.971 -15.470 -25.444  0.00  0.00    +0.314 C 
BRANCH  19  20
ATOM     20  OE1 UNL     1      33.414 -14.571 -24.590  0.00  0.00    -0.480 OA
ATOM     21  HE1 UNL     1      32.617 -14.780 -24.145  0.00  0.00    +0.295 HD
ENDBRANCH  19  20
ENDBRANCH  17  19
ENDBRANCH  16  17
ENDBRANCH  11  16
ENDBRANCH   8  11
ENDBRANCH   2   9
BRANCH   1  22
ATOM     22  N   UNL     1      33.562 -22.839 -17.453  0.00  0.00    -0.302 N 
ATOM     23  C   UNL     1      32.205 -22.852 -16.942  0.00  0.00    +0.112 C 
BRANCH  22  24
ATOM     24  C   UNL     1      34.535 -23.758 -16.896  0.00  0.00    +0.118 C 
BRANCH  24  29
ATOM     25  O   UNL     1      33.895 -24.086 -13.270  0.00  0.00    -0.427 OA
ATOM     26  N   UNL     1      35.962 -23.732 -12.128  0.00  0.00    -0.294 NA
ATOM     27  N   UNL     1      37.839 -23.272 -13.611  0.00  0.00    -0.317 NA
ATOM     28  N   UNL     1      38.111 -23.345 -11.288  0.00  0.00    -0.283 N 
ATOM     29  C   UNL     1      34.575 -23.832 -15.401  0.00  0.00    +0.031 C 
ATOM     30  C   UNL     1      35.696 -23.651 -14.555  0.00  0.00    +0.180 C 
ATOM     31  C   UNL     1      35.232 -23.817 -13.254  0.00  0.00    +0.281 C 
ATOM     32  C   UNL     1      33.508 -24.092 -14.572  0.00  0.00    +0.176 C 
ATOM     33  C   UNL     1      37.052 -23.370 -14.708  0.00  0.00    +0.181 C 
ATOM     34  C   UNL     1      37.253 -23.457 -12.406  0.00  0.00    +0.200 C 
ATOM     35  H   UNL     1      37.752 -23.468 -10.379  0.00  0.00    +0.156 HD
ATOM     36  H   UNL     1      39.065 -23.145 -11.418  0.00  0.00    +0.156 HD
ATOM     37  N   UNL     1      37.615 -23.185 -15.983  0.00  0.00    -0.335 N 
ATOM     38  H   UNL     1      38.574 -22.986 -16.074  0.00  0.00    +0.144 HD
ATOM     39  H   UNL     1      37.049 -23.254 -16.786  0.00  0.00    +0.144 HD
ENDBRANCH  24  29
ENDBRANCH  22  24
ENDBRANCH   1  22
TORSDOF 11
ENDMDL
MODEL 9
REMARK VINA RESULT:     -10.0      3.579     10.215
REMARK  Name = 158376
REMARK  11 active torsions:
REMARK  status: ('A' for Active; 'I' for Inactive)
REMARK    1  A    between atoms: C_1  and  N_22
REMARK    2  A    between atoms: C_2  and  C_9
REMARK    3  A    between atoms: N_8  and  CA_11
REMARK    4  A    between atoms: CA_11  and  C_13
REMARK    5  A    between atoms: CA_11  and  CB_16
REMARK    6  A    between atoms: C_13  and  O_14
REMARK    7  A    between atoms: CB_16  and  CG_17
REMARK    8  A    between atoms: CG_17  and  CD_19
REMARK    9  A    between atoms: CD_19  and  OE1_20
REMARK   10  A    between atoms: N_22  and  C_24
REMARK   11  A    between atoms: C_24  and  C_29
REMARK                            x       y       z     vdW  Elec       q    Type
REMARK                         _______ _______ _______ _____ _____    ______ ____
ROOT
ATOM      1  C   UNL     1      35.406 -17.397 -22.144  0.00  0.00    +0.048 C 
ATOM      2  C   UNL     1      34.194 -15.074 -23.103  0.00  0.00    +0.053 C 
ATOM      3  C   UNL     1      34.940 -16.433 -21.249  0.00  0.00    +0.015 C 
ATOM      4  C   UNL     1      35.266 -17.199 -23.517  0.00  0.00    +0.015 C 
ATOM      5  C   UNL     1      34.334 -15.272 -21.729  0.00  0.00    +0.006 C 
ATOM      6  C   UNL     1      34.660 -16.037 -23.996  0.00  0.00    +0.006 C 
ENDROOT
BRANCH   2   9
ATOM      7  O   UNL     1      32.885 -13.889 -24.646  0.00  0.00    -0.270 OA
ATOM      8  N   UNL     1      33.733 -12.695 -22.847  0.00  0.00    -0.293 N 
ATOM      9  C   ACE A   0      33.549 -13.837 -23.613  0.00  0.00    +0.246 C 
ATOM     10  H   UNL     1      34.284 -12.753 -22.034  0.00  0.00    +0.150 HD
BRANCH   8  11
ATOM     11  CA  UNL     1      33.150 -11.424 -23.197  0.00  0.00    +0.172 C 
BRANCH  11  13
ATOM     12  OXT UNL     1      34.574  -9.485 -23.582  0.00  0.00    -0.248 OA
ATOM     13  C   UNL     1      34.214 -10.611 -23.905  0.00  0.00    +0.332 C 
BRANCH  13  14
ATOM     14  O   UNL     1      34.769 -11.293 -24.941  0.00  0.00    -0.479 OA
ATOM     15  H   UNL     1      34.258 -11.916 -25.418  0.00  0.00    +0.295 HD
ENDBRANCH  13  14
ENDBRANCH  11  13
BRANCH  11  16
ATOM     16  CB  UNL     1      32.522 -10.709 -21.995  0.00  0.00    +0.043 C 
BRANCH  16  17
ATOM     17  CG  UNL     1      31.348 -11.434 -21.325  0.00  0.00    +0.112 C 
BRANCH  17  19
ATOM     18  OE2 UNL     1      31.406 -11.426 -18.889  0.00  0.00    -0.250 OA
ATOM     19  CD  UNL     1      31.671 -11.976 -19.950  0.00  0.00    +0.314 C 
BRANCH  19  20
ATOM     20  OE1 UNL     1      32.343 -13.156 -20.022  0.00  0.00    -0.480 OA
ATOM     21  HE1 UNL     1      32.342 -13.739 -19.289  0.00  0.00    +0.295 HD
ENDBRANCH  19  20
ENDBRANCH  17  19
ENDBRANCH  16  17
ENDBRANCH  11  16
ENDBRANCH   8  11
ENDBRANCH   2   9
BRANCH   1  22
ATOM     22  N   UNL     1      36.017 -18.572 -21.659  0.00  0.00    -0.302 N 
ATOM     23  C   UNL     1      37.410 -18.563 -21.257  0.00  0.00    +0.112 C 
BRANCH  22  24
ATOM     24  C   UNL     1      35.257 -19.801 -21.543  0.00  0.00    +0.118 C 
BRANCH  24  29
ATOM     25  O   UNL     1      36.695 -21.691 -18.711  0.00  0.00    -0.427 OA
ATOM     26  N   UNL     1      34.888 -22.662 -17.488  0.00  0.00    -0.294 NA
ATOM     27  N   UNL     1      32.692 -22.156 -18.411  0.00  0.00    -0.317 NA
ATOM     28  N   UNL     1      32.934 -23.480 -16.496  0.00  0.00    -0.283 N 
ATOM     29  C   UNL     1      35.547 -20.631 -20.331  0.00  0.00    +0.031 C 
ATOM     30  C   UNL     1      34.617 -21.282 -19.486  0.00  0.00    +0.180 C 
ATOM     31  C   UNL     1      35.367 -21.921 -18.503  0.00  0.00    +0.281 C 
ATOM     32  C   UNL     1      36.793 -20.911 -19.819  0.00  0.00    +0.176 C 
ATOM     33  C   UNL     1      33.233 -21.422 -19.410  0.00  0.00    +0.181 C 
ATOM     34  C   UNL     1      33.541 -22.722 -17.524  0.00  0.00    +0.200 C 
ATOM     35  H   UNL     1      33.493 -23.921 -15.815  0.00  0.00    +0.156 HD
ATOM     36  H   UNL     1      31.955 -23.566 -16.462  0.00  0.00    +0.156 HD
ATOM     37  N   UNL     1      32.390 -20.814 -20.359  0.00  0.00    -0.335 N 
ATOM     38  H   UNL     1      31.415 -20.923 -20.291  0.00  0.00    +0.144 HD
ATOM     39  H   UNL     1      32.776 -20.279 -21.090  0.00  0.00    +0.144 HD
ENDBRANCH  24  29
ENDBRANCH  22  24
ENDBRANCH   1  22
TORSDOF 11
ENDMDL
