MODEL 1
REMARK VINA RESULT:     -12.6      0.000      0.000
REMARK  Name = 17748441
REMARK  5 active torsions:
REMARK  status: ('A' for Active; 'I' for Inactive)
REMARK    1  A    between atoms: C_2  and  N_10
REMARK    2  A    between atoms: C_3  and  O_24
REMARK    3  A    between atoms: C_12  and  C_16
REMARK    4  A    between atoms: C_16  and  C_18
REMARK    5  A    between atoms: O_24  and  C_27
REMARK                            x       y       z     vdW  Elec       q    Type
REMARK                         _______ _______ _______ _____ _____    ______ ____
ROOT
ATOM      1  F   UNL     1      31.201 -11.950 -19.270  0.00  0.00    -0.201 F 
ATOM      2  C   UNL     1      33.415 -14.140 -21.147  0.00  0.00    +0.054 C 
ATOM      3  C   UNL     1      31.926 -11.812 -21.525  0.00  0.00    +0.173 C 
ATOM      4  C   UNL     1      32.664 -13.615 -20.096  0.00  0.00    +0.047 C 
ATOM      5  C   UNL     1      33.421 -13.501 -22.387  0.00  0.00    +0.018 C 
ATOM      6  C   UNL     1      31.920 -12.450 -20.285  0.00  0.00    +0.176 C 
ATOM      7  C   UNL     1      32.676 -12.337 -22.576  0.00  0.00    +0.041 C 
ENDROOT
BRANCH   2  10
ATOM      8  O   UNL     1      35.859 -18.541 -23.209  0.00  0.00    -0.274 OA
ATOM      9  O   UNL     1      34.401 -16.160 -23.139  0.00  0.00    -0.252 OA
ATOM     10  N   UNL     1      34.170 -15.322 -20.957  0.00  0.00    -0.268 N 
ATOM     11  N   UNL     1      35.328 -17.275 -21.324  0.00  0.00    -0.239 N 
ATOM     12  C   UNL     1      35.905 -18.356 -21.997  0.00  0.00    +0.234 C 
ATOM     13  C   UNL     1      34.602 -16.229 -21.929  0.00  0.00    +0.310 C 
ATOM     14  H   UNL     1      34.420 -15.530 -20.027  0.00  0.00    +0.156 HD
ATOM     15  H   UNL     1      35.436 -17.242 -20.346  0.00  0.00    +0.159 HD
BRANCH  12  16
ATOM     16  C   UNL     1      36.609 -19.291 -21.031  0.00  0.00    +0.112 C 
BRANCH  16  18
ATOM     17  F   UNL     1      33.093 -22.775 -18.338  0.00  0.00    -0.204 F 
ATOM     18  C   UNL     1      35.669 -20.222 -20.311  0.00  0.00    -0.013 C 
ATOM     19  C   UNL     1      36.175 -21.191 -19.446  0.00  0.00    -0.001 C 
ATOM     20  C   UNL     1      34.292 -20.115 -20.510  0.00  0.00    -0.001 C 
ATOM     21  C   UNL     1      35.305 -22.054 -18.779  0.00  0.00    +0.029 C 
ATOM     22  C   UNL     1      33.422 -20.978 -19.844  0.00  0.00    +0.029 C 
ATOM     23  C   UNL     1      33.928 -21.947 -18.978  0.00  0.00    +0.140 C 
ENDBRANCH  16  18
ENDBRANCH  12  16
ENDBRANCH   2  10
BRANCH   3  24
ATOM     24  O   UNL     1      31.198 -10.677 -21.709  0.00  0.00    -0.451 OA
BRANCH  24  27
ATOM     25  N   UNL     1      33.250  -7.036 -21.726  0.00  0.00    -0.229 NA
ATOM     26  N   UNL     1      33.226  -7.028 -19.343  0.00  0.00    -0.343 N 
ATOM     27  C   UNL     1      31.877  -9.470 -21.714  0.00  0.00    +0.150 C 
ATOM     28  C   UNL     1      32.212  -8.852 -20.515  0.00  0.00    +0.071 C 
ATOM     29  C   UNL     1      32.229  -8.872 -22.919  0.00  0.00    +0.058 C 
ATOM     30  C   UNL     1      32.892  -7.646 -20.574  0.00  0.00    +0.128 C 
ATOM     31  C   UNL     1      32.909  -7.666 -22.871  0.00  0.00    +0.103 C 
ATOM     32  H   UNL     1      33.709  -6.171 -19.338  0.00  0.00    +0.144 HD
ATOM     33  H   UNL     1      32.974  -7.457 -18.493  0.00  0.00    +0.144 HD
ENDBRANCH  24  27
ENDBRANCH   3  24
TORSDOF 5
ENDMDL
MODEL 2
REMARK VINA RESULT:     -12.2      2.859     10.959
REMARK  Name = 17748441
REMARK  5 active torsions:
REMARK  status: ('A' for Active; 'I' for Inactive)
REMARK    1  A    between atoms: C_2  and  N_10
REMARK    2  A    between atoms: C_3  and  O_24
REMARK    3  A    between atoms: C_12  and  C_16
REMARK    4  A    between atoms: C_16  and  C_18
REMARK    5  A    between atoms: O_24  and  C_27
REMARK                            x       y       z     vdW  Elec       q    Type
REMARK                         _______ _______ _______ _____ _____    ______ ____
ROOT
ATOM      1  F   UNL     1      34.954 -18.614 -24.460  0.00  0.00    -0.201 F 
ATOM      2  C   UNL     1      34.674 -15.523 -22.564  0.00  0.00    +0.054 C 
ATOM      3  C   UNL     1      35.222 -18.224 -22.135  0.00  0.00    +0.173 C 
ATOM      4  C   UNL     1      34.677 -16.414 -23.638  0.00  0.00    +0.047 C 
ATOM      5  C   UNL     1      34.944 -15.985 -21.276  0.00  0.00    +0.018 C 
ATOM      6  C   UNL     1      34.951 -17.764 -23.423  0.00  0.00    +0.176 C 
ATOM      7  C   UNL     1      35.218 -17.335 -21.061  0.00  0.00    +0.041 C 
ENDROOT
BRANCH   2  10
ATOM      8  O   UNL     1      31.559 -11.157 -21.653  0.00  0.00    -0.274 OA
ATOM      9  O   UNL     1      32.462 -13.796 -21.496  0.00  0.00    -0.252 OA
ATOM     10  N   UNL     1      34.395 -14.153 -22.781  0.00  0.00    -0.268 N 
ATOM     11  N   UNL     1      33.424 -12.069 -22.716  0.00  0.00    -0.239 N 
ATOM     12  C   UNL     1      32.534 -11.042 -22.390  0.00  0.00    +0.234 C 
ATOM     13  C   UNL     1      33.344 -13.398 -22.253  0.00  0.00    +0.310 C 
ATOM     14  H   UNL     1      35.018 -13.675 -23.376  0.00  0.00    +0.156 HD
ATOM     15  H   UNL     1      34.169 -11.847 -23.321  0.00  0.00    +0.159 HD
BRANCH  12  16
ATOM     16  C   UNL     1      32.923  -9.742 -23.068  0.00  0.00    +0.112 C 
BRANCH  16  18
ATOM     17  F   UNL     1      30.519  -5.206 -20.746  0.00  0.00    -0.204 F 
ATOM     18  C   UNL     1      32.280  -8.530 -22.447  0.00  0.00    -0.013 C 
ATOM     19  C   UNL     1      31.311  -7.818 -23.152  0.00  0.00    -0.001 C 
ATOM     20  C   UNL     1      32.655  -8.119 -21.168  0.00  0.00    -0.001 C 
ATOM     21  C   UNL     1      30.715  -6.694 -22.577  0.00  0.00    +0.029 C 
ATOM     22  C   UNL     1      32.061  -6.996 -20.594  0.00  0.00    +0.029 C 
ATOM     23  C   UNL     1      31.090  -6.284 -21.297  0.00  0.00    +0.140 C 
ENDBRANCH  16  18
ENDBRANCH  12  16
ENDBRANCH   2  10
BRANCH   3  24
ATOM     24  O   UNL     1      35.487 -19.543 -21.925  0.00  0.00    -0.451 OA
BRANCH  24  27
ATOM     25  N   UNL     1      33.343 -21.500 -18.918  0.00  0.00    -0.229 NA
ATOM     26  N   UNL     1      35.374 -22.439 -18.101  0.00  0.00    -0.343 N 
ATOM     27  C   UNL     1      34.777 -20.192 -20.929  0.00  0.00    +0.150 C 
ATOM     28  C   UNL     1      35.440 -20.996 -20.009  0.00  0.00    +0.071 C 
ATOM     29  C   UNL     1      33.398 -20.041 -20.845  0.00  0.00    +0.058 C 
ATOM     30  C   UNL     1      34.684 -21.623 -19.031  0.00  0.00    +0.128 C 
ATOM     31  C   UNL     1      32.732 -20.710 -19.830  0.00  0.00    +0.103 C 
ATOM     32  H   UNL     1      34.877 -22.903 -17.389  0.00  0.00    +0.144 HD
ATOM     33  H   UNL     1      36.352 -22.541 -18.166  0.00  0.00    +0.144 HD
ENDBRANCH  24  27
ENDBRANCH   3  24
TORSDOF 5
ENDMDL
MODEL 3
REMARK VINA RESULT:     -12.0      5.428     12.441
REMARK  Name = 17748441
REMARK  5 active torsions:
REMARK  status: ('A' for Active; 'I' for Inactive)
REMARK    1  A    between atoms: C_2  and  N_10
REMARK    2  A    between atoms: C_3  and  O_24
REMARK    3  A    between atoms: C_12  and  C_16
REMARK    4  A    between atoms: C_16  and  C_18
REMARK    5  A    between atoms: O_24  and  C_27
REMARK                            x       y       z     vdW  Elec       q    Type
REMARK                         _______ _______ _______ _____ _____    ______ ____
ROOT
ATOM      1  F   UNL     1      33.568 -23.853 -15.814  0.00  0.00    -0.201 F 
ATOM      2  C   UNL     1      35.461 -21.837 -18.176  0.00  0.00    +0.054 C 
ATOM      3  C   UNL     1      35.818 -23.106 -15.718  0.00  0.00    +0.173 C 
ATOM      4  C   UNL     1      34.406 -22.541 -17.595  0.00  0.00    +0.047 C 
ATOM      5  C   UNL     1      36.694 -21.767 -17.527  0.00  0.00    +0.018 C 
ATOM      6  C   UNL     1      34.585 -23.176 -16.366  0.00  0.00    +0.176 C 
ATOM      7  C   UNL     1      36.872 -22.401 -16.298  0.00  0.00    +0.041 C 
ENDROOT
BRANCH   2  10
ATOM      8  O   UNL     1      37.268 -18.428 -22.011  0.00  0.00    -0.274 OA
ATOM      9  O   UNL     1      37.226 -19.893 -19.633  0.00  0.00    -0.252 OA
ATOM     10  N   UNL     1      35.281 -21.192 -19.422  0.00  0.00    -0.268 N 
ATOM     11  N   UNL     1      35.593 -19.878 -21.284  0.00  0.00    -0.239 N 
ATOM     12  C   UNL     1      36.184 -18.980 -22.177  0.00  0.00    +0.234 C 
ATOM     13  C   UNL     1      36.143 -20.291 -20.054  0.00  0.00    +0.310 C 
ATOM     14  H   UNL     1      34.446 -21.403 -19.901  0.00  0.00    +0.156 HD
ATOM     15  H   UNL     1      34.717 -20.253 -21.535  0.00  0.00    +0.159 HD
BRANCH  12  16
ATOM     16  C   UNL     1      35.312 -18.765 -23.399  0.00  0.00    +0.112 C 
BRANCH  16  18
ATOM     17  F   UNL     1      33.787 -13.390 -24.134  0.00  0.00    -0.204 F 
ATOM     18  C   UNL     1      34.905 -17.328 -23.596  0.00  0.00    -0.013 C 
ATOM     19  C   UNL     1      34.758 -16.489 -22.493  0.00  0.00    -0.001 C 
ATOM     20  C   UNL     1      34.675 -16.837 -24.881  0.00  0.00    -0.001 C 
ATOM     21  C   UNL     1      34.380 -15.158 -22.674  0.00  0.00    +0.029 C 
ATOM     22  C   UNL     1      34.296 -15.508 -25.063  0.00  0.00    +0.029 C 
ATOM     23  C   UNL     1      34.150 -14.667 -23.959  0.00  0.00    +0.140 C 
ENDBRANCH  16  18
ENDBRANCH  12  16
ENDBRANCH   2  10
BRANCH   3  24
ATOM     24  O   UNL     1      35.991 -23.724 -14.517  0.00  0.00    -0.451 OA
BRANCH  24  27
ATOM     25  N   UNL     1      38.215 -27.262 -14.457  0.00  0.00    -0.229 NA
ATOM     26  N   UNL     1      40.071 -26.063 -13.566  0.00  0.00    -0.343 N 
ATOM     27  C   UNL     1      36.728 -24.896 -14.497  0.00  0.00    +0.150 C 
ATOM     28  C   UNL     1      38.041 -24.888 -14.038  0.00  0.00    +0.071 C 
ATOM     29  C   UNL     1      36.159 -26.086 -14.936  0.00  0.00    +0.058 C 
ATOM     30  C   UNL     1      38.735 -26.087 -14.038  0.00  0.00    +0.128 C 
ATOM     31  C   UNL     1      36.937 -27.232 -14.896  0.00  0.00    +0.103 C 
ATOM     32  H   UNL     1      40.602 -26.891 -13.549  0.00  0.00    +0.144 HD
ATOM     33  H   UNL     1      40.469 -25.217 -13.257  0.00  0.00    +0.144 HD
ENDBRANCH  24  27
ENDBRANCH   3  24
TORSDOF 5
ENDMDL
MODEL 4
REMARK VINA RESULT:     -12.0      3.983     10.509
REMARK  Name = 17748441
REMARK  5 active torsions:
REMARK  status: ('A' for Active; 'I' for Inactive)
REMARK    1  A    between atoms: C_2  and  N_10
REMARK    2  A    between atoms: C_3  and  O_24
REMARK    3  A    between atoms: C_12  and  C_16
REMARK    4  A    between atoms: C_16  and  C_18
REMARK    5  A    between atoms: O_24  and  C_27
REMARK                            x       y       z     vdW  Elec       q    Type
REMARK                         _______ _______ _______ _____ _____    ______ ____
ROOT
ATOM      1  F   UNL     1      36.625 -22.307 -19.089  0.00  0.00    -0.201 F 
ATOM      2  C   UNL     1      34.448 -19.817 -20.601  0.00  0.00    +0.054 C 
ATOM      3  C   UNL     1      34.256 -22.194 -19.154  0.00  0.00    +0.173 C 
ATOM      4  C   UNL     1      35.605 -20.484 -20.198  0.00  0.00    +0.047 C 
ATOM      5  C   UNL     1      33.195 -20.340 -20.280  0.00  0.00    +0.018 C 
ATOM      6  C   UNL     1      35.509 -21.672 -19.474  0.00  0.00    +0.176 C 
ATOM      7  C   UNL     1      33.099 -21.528 -19.557  0.00  0.00    +0.041 C 
ENDROOT
BRANCH   2  10
ATOM      8  O   UNL     1      34.922 -17.243 -25.369  0.00  0.00    -0.274 OA
ATOM      9  O   UNL     1      34.707 -19.357 -23.557  0.00  0.00    -0.252 OA
ATOM     10  N   UNL     1      34.544 -18.612 -21.335  0.00  0.00    -0.268 N 
ATOM     11  N   UNL     1      34.732 -17.090 -23.050  0.00  0.00    -0.239 N 
ATOM     12  C   UNL     1      34.856 -16.573 -24.342  0.00  0.00    +0.234 C 
ATOM     13  C   UNL     1      34.664 -18.459 -22.720  0.00  0.00    +0.310 C 
ATOM     14  H   UNL     1      34.526 -17.781 -20.806  0.00  0.00    +0.156 HD
ATOM     15  H   UNL     1      34.690 -16.444 -22.307  0.00  0.00    +0.159 HD
BRANCH  12  16
ATOM     16  C   UNL     1      34.901 -15.057 -24.326  0.00  0.00    +0.112 C 
BRANCH  16  18
ATOM     17  F   UNL     1      32.219 -12.791 -19.918  0.00  0.00    -0.204 F 
ATOM     18  C   UNL     1      34.184 -14.452 -23.148  0.00  0.00    -0.013 C 
ATOM     19  C   UNL     1      33.048 -13.670 -23.350  0.00  0.00    -0.001 C 
ATOM     20  C   UNL     1      34.657 -14.672 -21.854  0.00  0.00    -0.001 C 
ATOM     21  C   UNL     1      32.383 -13.109 -22.259  0.00  0.00    +0.029 C 
ATOM     22  C   UNL     1      33.994 -14.111 -20.763  0.00  0.00    +0.029 C 
ATOM     23  C   UNL     1      32.856 -13.330 -20.965  0.00  0.00    +0.140 C 
ENDBRANCH  16  18
ENDBRANCH  12  16
ENDBRANCH   2  10
BRANCH   3  24
ATOM     24  O   UNL     1      34.162 -23.355 -18.449  0.00  0.00    -0.451 OA
BRANCH  24  27
ATOM     25  N   UNL     1      32.992 -23.106 -14.444  0.00  0.00    -0.229 NA
ATOM     26  N   UNL     1      35.284 -23.080 -13.792  0.00  0.00    -0.343 N 
ATOM     27  C   UNL     1      33.775 -23.273 -17.122  0.00  0.00    +0.150 C 
ATOM     28  C   UNL     1      34.734 -23.218 -16.117  0.00  0.00    +0.071 C 
ATOM     29  C   UNL     1      32.426 -23.245 -16.790  0.00  0.00    +0.058 C 
ATOM     30  C   UNL     1      34.294 -23.135 -14.805  0.00  0.00    +0.128 C 
ATOM     31  C   UNL     1      32.089 -23.161 -15.448  0.00  0.00    +0.103 C 
ATOM     32  H   UNL     1      35.017 -23.021 -12.847  0.00  0.00    +0.144 HD
ATOM     33  H   UNL     1      36.238 -23.100 -14.034  0.00  0.00    +0.144 HD
ENDBRANCH  24  27
ENDBRANCH   3  24
TORSDOF 5
ENDMDL
MODEL 5
REMARK VINA RESULT:     -12.0      5.350      8.886
REMARK  Name = 17748441
REMARK  5 active torsions:
REMARK  status: ('A' for Active; 'I' for Inactive)
REMARK    1  A    between atoms: C_2  and  N_10
REMARK    2  A    between atoms: C_3  and  O_24
REMARK    3  A    between atoms: C_12  and  C_16
REMARK    4  A    between atoms: C_16  and  C_18
REMARK    5  A    between atoms: O_24  and  C_27
REMARK                            x       y       z     vdW  Elec       q    Type
REMARK                         _______ _______ _______ _____ _____    ______ ____
ROOT
ATOM      1  F   UNL     1      37.088 -20.991 -19.887  0.00  0.00    -0.201 F 
ATOM      2  C   UNL     1      33.618 -21.594 -18.981  0.00  0.00    +0.054 C 
ATOM      3  C   UNL     1      35.094 -20.127 -20.839  0.00  0.00    +0.173 C 
ATOM      4  C   UNL     1      35.011 -21.657 -18.972  0.00  0.00    +0.047 C 
ATOM      5  C   UNL     1      32.963 -20.796 -19.920  0.00  0.00    +0.018 C 
ATOM      6  C   UNL     1      35.749 -20.924 -19.901  0.00  0.00    +0.176 C 
ATOM      7  C   UNL     1      33.701 -20.062 -20.848  0.00  0.00    +0.041 C 
ENDROOT
BRANCH   2  10
ATOM      8  O   UNL     1      33.345 -24.282 -14.260  0.00  0.00    -0.274 OA
ATOM      9  O   UNL     1      34.441 -22.797 -16.356  0.00  0.00    -0.252 OA
ATOM     10  N   UNL     1      32.868 -22.337 -18.039  0.00  0.00    -0.268 N 
ATOM     11  N   UNL     1      32.249 -23.545 -16.183  0.00  0.00    -0.239 N 
ATOM     12  C   UNL     1      32.333 -24.202 -14.952  0.00  0.00    +0.234 C 
ATOM     13  C   UNL     1      33.309 -22.875 -16.826  0.00  0.00    +0.310 C 
ATOM     14  H   UNL     1      31.923 -22.494 -18.266  0.00  0.00    +0.156 HD
ATOM     15  H   UNL     1      31.376 -23.553 -16.640  0.00  0.00    +0.159 HD
BRANCH  12  16
ATOM     16  C   UNL     1      31.001 -24.814 -14.563  0.00  0.00    +0.112 C 
BRANCH  16  18
ATOM     17  F   UNL     1      26.573 -22.059 -16.696  0.00  0.00    -0.204 F 
ATOM     18  C   UNL     1      29.817 -24.078 -15.132  0.00  0.00    -0.013 C 
ATOM     19  C   UNL     1      29.064 -24.654 -16.155  0.00  0.00    -0.001 C 
ATOM     20  C   UNL     1      29.474 -22.819 -14.638  0.00  0.00    -0.001 C 
ATOM     21  C   UNL     1      27.968 -23.972 -16.683  0.00  0.00    +0.029 C 
ATOM     22  C   UNL     1      28.379 -22.137 -15.167  0.00  0.00    +0.029 C 
ATOM     23  C   UNL     1      27.625 -22.713 -16.189  0.00  0.00    +0.140 C 
ENDBRANCH  16  18
ENDBRANCH  12  16
ENDBRANCH   2  10
BRANCH   3  24
ATOM     24  O   UNL     1      35.814 -19.410 -21.745  0.00  0.00    -0.451 OA
BRANCH  24  27
ATOM     25  N   UNL     1      34.509 -15.541 -22.636  0.00  0.00    -0.229 NA
ATOM     26  N   UNL     1      34.584 -16.066 -24.959  0.00  0.00    -0.343 N 
ATOM     27  C   UNL     1      35.382 -18.128 -22.040  0.00  0.00    +0.150 C 
ATOM     28  C   UNL     1      35.200 -17.740 -23.363  0.00  0.00    +0.071 C 
ATOM     29  C   UNL     1      35.128 -17.224 -21.016  0.00  0.00    +0.058 C 
ATOM     30  C   UNL     1      34.765 -16.446 -23.605  0.00  0.00    +0.128 C 
ATOM     31  C   UNL     1      34.697 -15.953 -21.363  0.00  0.00    +0.103 C 
ATOM     32  H   UNL     1      34.277 -15.157 -25.177  0.00  0.00    +0.144 HD
ATOM     33  H   UNL     1      34.766 -16.712 -25.680  0.00  0.00    +0.144 HD
ENDBRANCH  24  27
ENDBRANCH   3  24
TORSDOF 5
ENDMDL
MODEL 6
REMARK VINA RESULT:     -11.8      5.004      8.139
REMARK  Name = 17748441
REMARK  5 active torsions:
REMARK  status: ('A' for Active; 'I' for Inactive)
REMARK    1  A    between atoms: C_2  and  N_10
REMARK    2  A    between atoms: C_3  and  O_24
REMARK    3  A    between atoms: C_12  and  C_16
REMARK    4  A    between atoms: C_16  and  C_18
REMARK    5  A    between atoms: O_24  and  C_27
REMARK                            x       y       z     vdW  Elec       q    Type
REMARK                         _______ _______ _______ _____ _____    ______ ____
ROOT
ATOM      1  F   UNL     1      37.993 -18.478 -21.701  0.00  0.00    -0.201 F 
ATOM      2  C   UNL     1      35.919 -20.785 -19.802  0.00  0.00    +0.054 C 
ATOM      3  C   UNL     1      35.659 -18.888 -21.830  0.00  0.00    +0.173 C 
ATOM      4  C   UNL     1      37.040 -20.090 -20.254  0.00  0.00    +0.047 C 
ATOM      5  C   UNL     1      34.668 -20.530 -20.363  0.00  0.00    +0.018 C 
ATOM      6  C   UNL     1      36.910 -19.142 -21.269  0.00  0.00    +0.176 C 
ATOM      7  C   UNL     1      34.538 -19.582 -21.377  0.00  0.00    +0.041 C 
ENDROOT
BRANCH   2  10
ATOM      8  O   UNL     1      37.919 -22.244 -14.958  0.00  0.00    -0.274 OA
ATOM      9  O   UNL     1      37.406 -20.654 -17.196  0.00  0.00    -0.252 OA
ATOM     10  N   UNL     1      36.049 -21.746 -18.772  0.00  0.00    -0.268 N 
ATOM     11  N   UNL     1      36.638 -22.814 -16.822  0.00  0.00    -0.239 N 
ATOM     12  C   UNL     1      37.220 -23.045 -15.572  0.00  0.00    +0.234 C 
ATOM     13  C   UNL     1      36.760 -21.628 -17.574  0.00  0.00    +0.310 C 
ATOM     14  H   UNL     1      35.584 -22.602 -18.919  0.00  0.00    +0.156 HD
ATOM     15  H   UNL     1      36.098 -23.541 -17.209  0.00  0.00    +0.159 HD
BRANCH  12  16
ATOM     16  C   UNL     1      36.881 -24.431 -15.056  0.00  0.00    +0.112 C 
BRANCH  16  18
ATOM     17  F   UNL     1      35.614 -24.512  -9.566  0.00  0.00    -0.204 F 
ATOM     18  C   UNL     1      36.542 -24.453 -13.588  0.00  0.00    -0.013 C 
ATOM     19  C   UNL     1      35.223 -24.271 -13.174  0.00  0.00    -0.001 C 
ATOM     20  C   UNL     1      37.548 -24.655 -12.643  0.00  0.00    -0.001 C 
ATOM     21  C   UNL     1      34.909 -24.291 -11.815  0.00  0.00    +0.029 C 
ATOM     22  C   UNL     1      37.235 -24.674 -11.284  0.00  0.00    +0.029 C 
ATOM     23  C   UNL     1      35.915 -24.493 -10.870  0.00  0.00    +0.140 C 
ENDBRANCH  16  18
ENDBRANCH  12  16
ENDBRANCH   2  10
BRANCH   3  24
ATOM     24  O   UNL     1      35.532 -17.961 -22.819  0.00  0.00    -0.451 OA
BRANCH  24  27
ATOM     25  N   UNL     1      33.728 -14.319 -21.845  0.00  0.00    -0.229 NA
ATOM     26  N   UNL     1      33.355 -13.901 -24.161  0.00  0.00    -0.343 N 
ATOM     27  C   UNL     1      34.935 -16.754 -22.497  0.00  0.00    +0.150 C 
ATOM     28  C   UNL     1      34.442 -15.928 -23.501  0.00  0.00    +0.071 C 
ATOM     29  C   UNL     1      34.825 -16.363 -21.167  0.00  0.00    +0.058 C 
ATOM     30  C   UNL     1      33.853 -14.731 -23.126  0.00  0.00    +0.128 C 
ATOM     31  C   UNL     1      34.219 -15.147 -20.896  0.00  0.00    +0.103 C 
ATOM     32  H   UNL     1      32.928 -13.042 -23.940  0.00  0.00    +0.144 HD
ATOM     33  H   UNL     1      33.435 -14.184 -25.100  0.00  0.00    +0.144 HD
ENDBRANCH  24  27
ENDBRANCH   3  24
TORSDOF 5
ENDMDL
MODEL 7
REMARK VINA RESULT:     -11.7      3.015     10.496
REMARK  Name = 17748441
REMARK  5 active torsions:
REMARK  status: ('A' for Active; 'I' for Inactive)
REMARK    1  A    between atoms: C_2  and  N_10
REMARK    2  A    between atoms: C_3  and  O_24
REMARK    3  A    between atoms: C_12  and  C_16
REMARK    4  A    between atoms: C_16  and  C_18
REMARK    5  A    between atoms: O_24  and  C_27
REMARK                            x       y       z     vdW  Elec       q    Type
REMARK                         _______ _______ _______ _____ _____    ______ ____
ROOT
ATOM      1  F   UNL     1      35.008 -17.254 -25.142  0.00  0.00    -0.201 F 
ATOM      2  C   UNL     1      34.058 -14.694 -22.739  0.00  0.00    +0.054 C 
ATOM      3  C   UNL     1      35.248 -17.217 -22.782  0.00  0.00    +0.173 C 
ATOM      4  C   UNL     1      34.240 -15.359 -23.952  0.00  0.00    +0.047 C 
ATOM      5  C   UNL     1      34.471 -15.292 -21.548  0.00  0.00    +0.018 C 
ATOM      6  C   UNL     1      34.835 -16.620 -23.973  0.00  0.00    +0.176 C 
ATOM      7  C   UNL     1      35.066 -16.553 -21.570  0.00  0.00    +0.041 C 
ENDROOT
BRANCH   2  10
ATOM      8  O   UNL     1      30.765 -11.092 -20.336  0.00  0.00    -0.274 OA
ATOM      9  O   UNL     1      32.155 -13.478 -20.760  0.00  0.00    -0.252 OA
ATOM     10  N   UNL     1      33.454 -13.415 -22.716  0.00  0.00    -0.268 N 
ATOM     11  N   UNL     1      32.199 -11.586 -22.108  0.00  0.00    -0.239 N 
ATOM     12  C   UNL     1      31.327 -10.772 -21.380  0.00  0.00    +0.234 C 
ATOM     13  C   UNL     1      32.570 -12.901 -21.763  0.00  0.00    +0.310 C 
ATOM     14  H   UNL     1      33.684 -12.815 -23.463  0.00  0.00    +0.156 HD
ATOM     15  H   UNL     1      32.585 -11.210 -22.932  0.00  0.00    +0.159 HD
BRANCH  12  16
ATOM     16  C   UNL     1      31.154  -9.419 -22.044  0.00  0.00    +0.112 C 
BRANCH  16  18
ATOM     17  F   UNL     1      36.038  -6.889 -23.263  0.00  0.00    -0.204 F 
ATOM     18  C   UNL     1      32.459  -8.743 -22.370  0.00  0.00    -0.013 C 
ATOM     19  C   UNL     1      32.777  -7.521 -21.780  0.00  0.00    -0.001 C 
ATOM     20  C   UNL     1      33.351  -9.340 -23.261  0.00  0.00    -0.001 C 
ATOM     21  C   UNL     1      33.986  -6.894 -22.082  0.00  0.00    +0.029 C 
ATOM     22  C   UNL     1      34.559  -8.713 -23.564  0.00  0.00    +0.029 C 
ATOM     23  C   UNL     1      34.878  -7.490 -22.973  0.00  0.00    +0.140 C 
ENDBRANCH  16  18
ENDBRANCH  12  16
ENDBRANCH   2  10
BRANCH   3  24
ATOM     24  O   UNL     1      35.827 -18.449 -22.803  0.00  0.00    -0.451 OA
BRANCH  24  27
ATOM     25  N   UNL     1      35.212 -20.941 -19.504  0.00  0.00    -0.229 NA
ATOM     26  N   UNL     1      32.885 -21.011 -20.010  0.00  0.00    -0.343 N 
ATOM     27  C   UNL     1      35.623 -19.274 -21.709  0.00  0.00    +0.150 C 
ATOM     28  C   UNL     1      34.345 -19.730 -21.408  0.00  0.00    +0.071 C 
ATOM     29  C   UNL     1      36.695 -19.651 -20.910  0.00  0.00    +0.058 C 
ATOM     30  C   UNL     1      34.194 -20.554 -20.304  0.00  0.00    +0.128 C 
ATOM     31  C   UNL     1      36.440 -20.478 -19.828  0.00  0.00    +0.103 C 
ATOM     32  H   UNL     1      32.731 -21.598 -19.235  0.00  0.00    +0.144 HD
ATOM     33  H   UNL     1      32.129 -20.741 -20.580  0.00  0.00    +0.144 HD
ENDBRANCH  24  27
ENDBRANCH   3  24
TORSDOF 5
ENDMDL
MODEL 8
REMARK VINA RESULT:     -11.5      5.220     11.770
REMARK  Name = 17748441
REMARK  5 active torsions:
REMARK  status: ('A' for Active; 'I' for Inactive)
REMARK    1  A    between atoms: C_2  and  N_10
REMARK    2  A    between atoms: C_3  and  O_24
REMARK    3  A    between atoms: C_12  and  C_16
REMARK    4  A    between atoms: C_16  and  C_18
REMARK    5  A    between atoms: O_24  and  C_27
REMARK                            x       y       z     vdW  Elec       q    Type
REMARK                         _______ _______ _______ _____ _____    ______ ____
ROOT
ATOM      1  F   UNL     1      32.147 -23.720 -16.445  0.00  0.00    -0.201 F 
ATOM      2  C   UNL     1      34.493 -21.888 -18.535  0.00  0.00    +0.054 C 
ATOM      3  C   UNL     1      34.477 -23.366 -16.169  0.00  0.00    +0.173 C 
ATOM      4  C   UNL     1      33.302 -22.446 -18.069  0.00  0.00    +0.047 C 
ATOM      5  C   UNL     1      35.675 -22.070 -17.817  0.00  0.00    +0.018 C 
ATOM      6  C   UNL     1      33.294 -23.185 -16.886  0.00  0.00    +0.176 C 
ATOM      7  C   UNL     1      35.667 -22.808 -16.634  0.00  0.00    +0.041 C 
ENDROOT
BRANCH   2  10
ATOM      8  O   UNL     1      37.102 -18.629 -22.022  0.00  0.00    -0.274 OA
ATOM      9  O   UNL     1      36.663 -20.218 -19.768  0.00  0.00    -0.252 OA
ATOM     10  N   UNL     1      34.502 -21.138 -19.734  0.00  0.00    -0.268 N 
ATOM     11  N   UNL     1      35.151 -19.784 -21.476  0.00  0.00    -0.239 N 
ATOM     12  C   UNL     1      35.945 -18.955 -22.273  0.00  0.00    +0.234 C 
ATOM     13  C   UNL     1      35.549 -20.375 -20.261  0.00  0.00    +0.310 C 
ATOM     14  H   UNL     1      33.669 -21.155 -20.261  0.00  0.00    +0.156 HD
ATOM     15  H   UNL     1      34.236 -19.969 -21.790  0.00  0.00    +0.159 HD
BRANCH  12  16
ATOM     16  C   UNL     1      35.195 -18.496 -23.509  0.00  0.00    +0.112 C 
BRANCH  16  18
ATOM     17  F   UNL     1      33.985 -12.993 -23.472  0.00  0.00    -0.204 F 
ATOM     18  C   UNL     1      34.872 -17.025 -23.499  0.00  0.00    -0.013 C 
ATOM     19  C   UNL     1      34.928 -16.307 -22.305  0.00  0.00    -0.001 C 
ATOM     20  C   UNL     1      34.516 -16.381 -24.684  0.00  0.00    -0.001 C 
ATOM     21  C   UNL     1      34.629 -14.945 -22.296  0.00  0.00    +0.029 C 
ATOM     22  C   UNL     1      34.216 -15.019 -24.675  0.00  0.00    +0.029 C 
ATOM     23  C   UNL     1      34.273 -14.300 -23.481  0.00  0.00    +0.140 C 
ENDBRANCH  16  18
ENDBRANCH  12  16
ENDBRANCH   2  10
BRANCH   3  24
ATOM     24  O   UNL     1      34.468 -24.086 -15.013  0.00  0.00    -0.451 OA
BRANCH  24  27
ATOM     25  N   UNL     1      38.117 -24.663 -13.058  0.00  0.00    -0.229 NA
ATOM     26  N   UNL     1      37.619 -22.830 -11.619  0.00  0.00    -0.343 N 
ATOM     27  C   UNL     1      35.677 -24.276 -14.366  0.00  0.00    +0.150 C 
ATOM     28  C   UNL     1      36.042 -23.449 -13.309  0.00  0.00    +0.071 C 
ATOM     29  C   UNL     1      36.531 -25.297 -14.768  0.00  0.00    +0.058 C 
ATOM     30  C   UNL     1      37.262 -23.682 -12.694  0.00  0.00    +0.128 C 
ATOM     31  C   UNL     1      37.729 -25.447 -14.088  0.00  0.00    +0.103 C 
ATOM     32  H   UNL     1      38.476 -22.959 -11.153  0.00  0.00    +0.144 HD
ATOM     33  H   UNL     1      37.009 -22.109 -11.339  0.00  0.00    +0.144 HD
ENDBRANCH  24  27
ENDBRANCH   3  24
TORSDOF 5
ENDMDL
MODEL 9
REMARK VINA RESULT:     -11.5      4.664      7.459
REMARK  Name = 17748441
REMARK  5 active torsions:
REMARK  status: ('A' for Active; 'I' for Inactive)
REMARK    1  A    between atoms: C_2  and  N_10
REMARK    2  A    between atoms: C_3  and  O_24
REMARK    3  A    between atoms: C_12  and  C_16
REMARK    4  A    between atoms: C_16  and  C_18
REMARK    5  A    between atoms: O_24  and  C_27
REMARK                            x       y       z     vdW  Elec       q    Type
REMARK                         _______ _______ _______ _____ _____    ______ ____
ROOT
ATOM      1  F   UNL     1      38.089 -18.456 -21.679  0.00  0.00    -0.201 F 
ATOM      2  C   UNL     1      35.547 -20.516 -20.089  0.00  0.00    +0.054 C 
ATOM      3  C   UNL     1      35.781 -18.683 -22.179  0.00  0.00    +0.173 C 
ATOM      4  C   UNL     1      36.782 -19.930 -20.369  0.00  0.00    +0.047 C 
ATOM      5  C   UNL     1      34.430 -20.184 -20.855  0.00  0.00    +0.018 C 
ATOM      6  C   UNL     1      36.899 -19.014 -21.414  0.00  0.00    +0.176 C 
ATOM      7  C   UNL     1      34.546 -19.267 -21.900  0.00  0.00    +0.041 C 
ENDROOT
BRANCH   2  10
ATOM      8  O   UNL     1      37.354 -22.512 -15.362  0.00  0.00    -0.274 OA
ATOM      9  O   UNL     1      37.224 -20.879 -17.625  0.00  0.00    -0.252 OA
ATOM     10  N   UNL     1      35.428 -21.445 -19.029  0.00  0.00    -0.268 N 
ATOM     11  N   UNL     1      35.785 -22.620 -17.085  0.00  0.00    -0.239 N 
ATOM     12  C   UNL     1      36.364 -23.023 -15.878  0.00  0.00    +0.234 C 
ATOM     13  C   UNL     1      36.244 -21.567 -17.900  0.00  0.00    +0.310 C 
ATOM     14  H   UNL     1      34.680 -22.082 -19.095  0.00  0.00    +0.156 HD
ATOM     15  H   UNL     1      34.990 -23.114 -17.391  0.00  0.00    +0.159 HD
BRANCH  12  16
ATOM     16  C   UNL     1      35.609 -24.190 -15.269  0.00  0.00    +0.112 C 
BRANCH  16  18
ATOM     17  F   UNL     1      30.250 -22.976 -14.022  0.00  0.00    -0.204 F 
ATOM     18  C   UNL     1      34.177 -23.865 -14.936  0.00  0.00    -0.013 C 
ATOM     19  C   UNL     1      33.729 -23.959 -13.619  0.00  0.00    -0.001 C 
ATOM     20  C   UNL     1      33.298 -23.470 -15.944  0.00  0.00    -0.001 C 
ATOM     21  C   UNL     1      32.402 -23.658 -13.310  0.00  0.00    +0.029 C 
ATOM     22  C   UNL     1      31.971 -23.171 -15.636  0.00  0.00    +0.029 C 
ATOM     23  C   UNL     1      31.523 -23.264 -14.319  0.00  0.00    +0.140 C 
ENDBRANCH  16  18
ENDBRANCH  12  16
ENDBRANCH   2  10
BRANCH   3  24
ATOM     24  O   UNL     1      35.894 -17.787 -23.198  0.00  0.00    -0.451 OA
BRANCH  24  27
ATOM     25  N   UNL     1      33.513 -14.356 -23.039  0.00  0.00    -0.229 NA
ATOM     26  N   UNL     1      33.042 -14.593 -25.363  0.00  0.00    -0.343 N 
ATOM     27  C   UNL     1      35.105 -16.650 -23.146  0.00  0.00    +0.150 C 
ATOM     28  C   UNL     1      34.466 -16.190 -24.292  0.00  0.00    +0.071 C 
ATOM     29  C   UNL     1      34.949 -15.964 -21.947  0.00  0.00    +0.058 C 
ATOM     30  C   UNL     1      33.688 -15.049 -24.186  0.00  0.00    +0.128 C 
ATOM     31  C   UNL     1      34.150 -14.832 -21.946  0.00  0.00    +0.103 C 
ATOM     32  H   UNL     1      32.479 -13.786 -25.334  0.00  0.00    +0.144 HD
ATOM     33  H   UNL     1      33.157 -15.084 -26.209  0.00  0.00    +0.144 HD
ENDBRANCH  24  27
ENDBRANCH   3  24
TORSDOF 5
ENDMDL
