MODEL 1
REMARK VINA RESULT:     -11.5      0.000      0.000
REMARK  Name = 5496659
REMARK  9 active torsions:
REMARK  status: ('A' for Active; 'I' for Inactive)
REMARK    1  A    between atoms: C_1  and  N_4
REMARK    2  A    between atoms: C_1  and  C_20
REMARK    3  A    between atoms: C_5  and  C_7
REMARK    4  A    between atoms: C_10  and  C_15
REMARK    5  A    between atoms: C_20  and  C_22
REMARK    6  A    between atoms: C_20  and  C_25
REMARK    7  A    between atoms: C_22  and  O_23
REMARK    8  A    between atoms: C_25  and  C_26
REMARK    9  A    between atoms: C_29  and  C_34
REMARK                            x       y       z     vdW  Elec       q    Type
REMARK                         _______ _______ _______ _____ _____    ______ ____
ROOT
ATOM      1  C   UNL     1      33.482 -23.833 -15.800  0.00  0.00    +0.083 C 
ATOM      2  C   UNL     1      32.160 -23.584 -15.077  0.00  0.00    +0.022 C 
ENDROOT
BRANCH   1   4
ATOM      3  O   UNL     1      33.730 -24.238 -18.631  0.00  0.00    -0.270 OA
ATOM      4  N   UNL     1      33.702 -22.816 -16.801  0.00  0.00    -0.302 N 
ATOM      5  C   UNL     1      33.809 -23.111 -18.151  0.00  0.00    +0.246 C 
ATOM      6  H   UNL     1      33.780 -21.877 -16.513  0.00  0.00    +0.150 HD
BRANCH   5   7
ATOM      7  C   UNL     1      34.060 -21.955 -19.050  0.00  0.00    +0.053 C 
ATOM      8  C   UNL     1      35.364 -21.640 -19.432  0.00  0.00    +0.005 C 
ATOM      9  C   UNL     1      32.993 -21.185 -19.511  0.00  0.00    +0.005 C 
ATOM     10  C   UNL     1      34.532 -19.784 -20.737  0.00  0.00    +0.000 C 
ATOM     11  C   UNL     1      35.600 -20.554 -20.276  0.00  0.00    +0.000 C 
ATOM     12  C   UNL     1      33.228 -20.100 -20.354  0.00  0.00    +0.000 C 
BRANCH  10  15
ATOM     13  O   UNL     1      35.454 -15.491 -24.064  0.00  0.00    -0.163 OA
ATOM     14  N   UNL     1      35.242 -16.484 -23.295  0.00  0.00    -0.127 N 
ATOM     15  C   UNL     1      34.775 -18.657 -21.611  0.00  0.00    +0.003 C 
ATOM     16  C   UNL     1      34.869 -18.849 -22.985  0.00  0.00    +0.022 C 
ATOM     17  C   UNL     1      34.914 -17.380 -21.078  0.00  0.00    +0.022 C 
ATOM     18  C   UNL     1      35.102 -17.757 -23.814  0.00  0.00    +0.121 C 
ATOM     19  C   UNL     1      35.147 -16.304 -21.928  0.00  0.00    +0.121 C 
ENDBRANCH  10  15
ENDBRANCH   5   7
ENDBRANCH   1   4
BRANCH   1  20
ATOM     20  C   UNL     1      34.670 -23.969 -14.820  0.00  0.00    +0.121 C 
BRANCH  20  22
ATOM     21  O   UNL     1      35.826 -21.889 -14.290  0.00  0.00    -0.250 OA
ATOM     22  C   UNL     1      35.692 -22.856 -15.030  0.00  0.00    +0.319 C 
BRANCH  22  23
ATOM     23  O   UNL     1      36.420 -23.106 -16.157  0.00  0.00    -0.444 OA
ATOM     24  C   UNL     1      37.550 -22.252 -16.362  0.00  0.00    +0.256 C 
ENDBRANCH  22  23
ENDBRANCH  20  22
BRANCH  20  25
ATOM     25  C   UNL     1      35.361 -25.344 -14.935  0.00  0.00    +0.039 C 
BRANCH  25  26
ATOM     26  C   UNL     1      36.572 -25.467 -14.039  0.00  0.00    -0.021 C 
ATOM     27  C   UNL     1      37.814 -25.793 -14.586  0.00  0.00    -0.002 C 
ATOM     28  C   UNL     1      36.448 -25.258 -12.666  0.00  0.00    -0.004 C 
ATOM     29  C   UNL     1      38.930 -25.909 -13.759  0.00  0.00    +0.030 C 
ATOM     30  C   UNL     1      37.565 -25.373 -11.840  0.00  0.00    -0.000 C 
ATOM     31  C   UNL     1      38.806 -25.700 -12.386  0.00  0.00    +0.003 C 
BRANCH  29  34
ATOM     32  N   UNL     1      41.194 -26.916 -13.579  0.00  0.00    -0.343 N 
ATOM     33  N   UNL     1      40.499 -25.926 -15.579  0.00  0.00    -0.285 NA
ATOM     34  C   UNL     1      40.225 -26.251 -14.329  0.00  0.00    +0.117 C 
ATOM     35  H   UNL     1      42.063 -27.137 -13.984  0.00  0.00    +0.144 HD
ATOM     36  H   UNL     1      41.009 -27.164 -12.644  0.00  0.00    +0.144 HD
ATOM     37  H   UNL     1      41.376 -26.157 -15.966  0.00  0.00    +0.188 HD
ENDBRANCH  29  34
ENDBRANCH  25  26
ENDBRANCH  20  25
ENDBRANCH   1  20
TORSDOF 9
ENDMDL
MODEL 2
REMARK VINA RESULT:     -11.3      1.487      2.646
REMARK  Name = 5496659
REMARK  9 active torsions:
REMARK  status: ('A' for Active; 'I' for Inactive)
REMARK    1  A    between atoms: C_1  and  N_4
REMARK    2  A    between atoms: C_1  and  C_20
REMARK    3  A    between atoms: C_5  and  C_7
REMARK    4  A    between atoms: C_10  and  C_15
REMARK    5  A    between atoms: C_20  and  C_22
REMARK    6  A    between atoms: C_20  and  C_25
REMARK    7  A    between atoms: C_22  and  O_23
REMARK    8  A    between atoms: C_25  and  C_26
REMARK    9  A    between atoms: C_29  and  C_34
REMARK                            x       y       z     vdW  Elec       q    Type
REMARK                         _______ _______ _______ _____ _____    ______ ____
ROOT
ATOM      1  C   UNL     1      32.444 -23.575 -15.632  0.00  0.00    +0.083 C 
ATOM      2  C   UNL     1      31.277 -23.013 -14.822  0.00  0.00    +0.022 C 
ENDROOT
BRANCH   1   4
ATOM      3  O   UNL     1      33.754 -24.242 -18.098  0.00  0.00    -0.270 OA
ATOM      4  N   UNL     1      32.797 -22.664 -16.695  0.00  0.00    -0.302 N 
ATOM      5  C   UNL     1      33.432 -23.083 -17.854  0.00  0.00    +0.246 C 
ATOM      6  H   UNL     1      32.580 -21.709 -16.592  0.00  0.00    +0.150 HD
BRANCH   5   7
ATOM      7  C   UNL     1      33.750 -22.019 -18.840  0.00  0.00    +0.053 C 
ATOM      8  C   UNL     1      32.729 -21.227 -19.367  0.00  0.00    +0.005 C 
ATOM      9  C   UNL     1      35.070 -21.811 -19.240  0.00  0.00    +0.005 C 
ATOM     10  C   UNL     1      34.349 -20.020 -20.693  0.00  0.00    +0.000 C 
ATOM     11  C   UNL     1      33.028 -20.228 -20.293  0.00  0.00    +0.000 C 
ATOM     12  C   UNL     1      35.369 -20.812 -20.166  0.00  0.00    +0.000 C 
BRANCH  10  15
ATOM     13  O   UNL     1      35.532 -16.081 -24.357  0.00  0.00    -0.163 OA
ATOM     14  N   UNL     1      35.259 -16.992 -23.510  0.00  0.00    -0.127 N 
ATOM     15  C   UNL     1      34.660 -18.986 -21.655  0.00  0.00    +0.003 C 
ATOM     16  C   UNL     1      34.694 -19.285 -23.013  0.00  0.00    +0.022 C 
ATOM     17  C   UNL     1      34.926 -17.691 -21.224  0.00  0.00    +0.022 C 
ATOM     18  C   UNL     1      34.994 -18.282 -23.927  0.00  0.00    +0.121 C 
ATOM     19  C   UNL     1      35.223 -16.705 -22.159  0.00  0.00    +0.121 C 
ENDBRANCH  10  15
ENDBRANCH   5   7
ENDBRANCH   1   4
BRANCH   1  20
ATOM     20  C   UNL     1      33.652 -23.946 -14.741  0.00  0.00    +0.121 C 
BRANCH  20  22
ATOM     21  O   UNL     1      32.412 -25.518 -13.350  0.00  0.00    -0.250 OA
ATOM     22  C   UNL     1      33.199 -24.583 -13.431  0.00  0.00    +0.319 C 
BRANCH  22  23
ATOM     23  O   UNL     1      33.803 -23.954 -12.381  0.00  0.00    -0.444 OA
ATOM     24  C   UNL     1      34.837 -24.698 -11.729  0.00  0.00    +0.256 C 
ENDBRANCH  22  23
ENDBRANCH  20  22
BRANCH  20  25
ATOM     25  C   UNL     1      34.551 -22.726 -14.448  0.00  0.00    +0.039 C 
BRANCH  25  26
ATOM     26  C   UNL     1      35.966 -22.910 -14.945  0.00  0.00    -0.021 C 
ATOM     27  C   UNL     1      36.762 -23.930 -14.424  0.00  0.00    -0.002 C 
ATOM     28  C   UNL     1      36.478 -22.057 -15.924  0.00  0.00    -0.004 C 
ATOM     29  C   UNL     1      38.068 -24.097 -14.881  0.00  0.00    +0.030 C 
ATOM     30  C   UNL     1      37.784 -22.225 -16.381  0.00  0.00    -0.000 C 
ATOM     31  C   UNL     1      38.580 -23.245 -15.859  0.00  0.00    +0.003 C 
BRANCH  29  34
ATOM     32  N   UNL     1      38.998 -25.370 -12.961  0.00  0.00    -0.343 N 
ATOM     33  N   UNL     1      39.580 -25.945 -15.151  0.00  0.00    -0.285 NA
ATOM     34  C   UNL     1      38.899 -25.160 -14.336  0.00  0.00    +0.117 C 
ATOM     35  H   UNL     1      39.566 -26.095 -12.615  0.00  0.00    +0.144 HD
ATOM     36  H   UNL     1      38.500 -24.793 -12.339  0.00  0.00    +0.144 HD
ATOM     37  H   UNL     1      40.144 -26.666 -14.783  0.00  0.00    +0.188 HD
ENDBRANCH  29  34
ENDBRANCH  25  26
ENDBRANCH  20  25
ENDBRANCH   1  20
TORSDOF 9
ENDMDL
MODEL 3
REMARK VINA RESULT:     -10.8      3.951     11.078
REMARK  Name = 5496659
REMARK  9 active torsions:
REMARK  status: ('A' for Active; 'I' for Inactive)
REMARK    1  A    between atoms: C_1  and  N_4
REMARK    2  A    between atoms: C_1  and  C_20
REMARK    3  A    between atoms: C_5  and  C_7
REMARK    4  A    between atoms: C_10  and  C_15
REMARK    5  A    between atoms: C_20  and  C_22
REMARK    6  A    between atoms: C_20  and  C_25
REMARK    7  A    between atoms: C_22  and  O_23
REMARK    8  A    between atoms: C_25  and  C_26
REMARK    9  A    between atoms: C_29  and  C_34
REMARK                            x       y       z     vdW  Elec       q    Type
REMARK                         _______ _______ _______ _____ _____    ______ ____
ROOT
ATOM      1  C   UNL     1      35.928 -19.316 -21.346  0.00  0.00    +0.083 C 
ATOM      2  C   UNL     1      37.326 -18.850 -20.944  0.00  0.00    +0.022 C 
ENDROOT
BRANCH   1   4
ATOM      3  O   UNL     1      36.728 -21.835 -20.224  0.00  0.00    -0.270 OA
ATOM      4  N   UNL     1      35.299 -20.009 -20.246  0.00  0.00    -0.302 N 
ATOM      5  C   UNL     1      35.760 -21.228 -19.773  0.00  0.00    +0.246 C 
ATOM      6  H   UNL     1      34.512 -19.601 -19.817  0.00  0.00    +0.150 HD
BRANCH   5   7
ATOM      7  C   UNL     1      34.988 -21.823 -18.653  0.00  0.00    +0.053 C 
ATOM      8  C   UNL     1      33.605 -21.970 -18.759  0.00  0.00    +0.005 C 
ATOM      9  C   UNL     1      35.645 -22.235 -17.494  0.00  0.00    +0.005 C 
ATOM     10  C   UNL     1      33.537 -22.941 -16.548  0.00  0.00    +0.000 C 
ATOM     11  C   UNL     1      32.879 -22.529 -17.707  0.00  0.00    +0.000 C 
ATOM     12  C   UNL     1      34.921 -22.793 -16.442  0.00  0.00    +0.000 C 
BRANCH  10  15
ATOM     13  O   UNL     1      30.677 -25.144 -12.388  0.00  0.00    -0.163 OA
ATOM     14  N   UNL     1      31.338 -24.634 -13.349  0.00  0.00    -0.127 N 
ATOM     15  C   UNL     1      32.786 -23.519 -15.455  0.00  0.00    +0.003 C 
ATOM     16  C   UNL     1      31.397 -23.445 -15.449  0.00  0.00    +0.022 C 
ATOM     17  C   UNL     1      33.451 -24.149 -14.409  0.00  0.00    +0.022 C 
ATOM     18  C   UNL     1      30.687 -24.005 -14.393  0.00  0.00    +0.121 C 
ATOM     19  C   UNL     1      32.717 -24.702 -13.365  0.00  0.00    +0.121 C 
ENDBRANCH  10  15
ENDBRANCH   5   7
ENDBRANCH   1   4
BRANCH   1  20
ATOM     20  C   UNL     1      35.060 -18.161 -21.894  0.00  0.00    +0.121 C 
BRANCH  20  22
ATOM     21  O   UNL     1      34.437 -19.183 -24.018  0.00  0.00    -0.250 OA
ATOM     22  C   UNL     1      34.928 -18.238 -23.412  0.00  0.00    +0.319 C 
BRANCH  22  23
ATOM     23  O   UNL     1      35.438 -17.105 -23.977  0.00  0.00    -0.444 OA
ATOM     24  C   UNL     1      34.715 -16.600 -25.104  0.00  0.00    +0.256 C 
ENDBRANCH  22  23
ENDBRANCH  20  22
BRANCH  20  25
ATOM     25  C   UNL     1      35.610 -16.778 -21.486  0.00  0.00    +0.039 C 
BRANCH  25  26
ATOM     26  C   UNL     1      34.519 -15.755 -21.266  0.00  0.00    -0.021 C 
ATOM     27  C   UNL     1      34.469 -14.609 -22.060  0.00  0.00    -0.002 C 
ATOM     28  C   UNL     1      33.565 -15.956 -20.269  0.00  0.00    -0.004 C 
ATOM     29  C   UNL     1      33.464 -13.664 -21.856  0.00  0.00    +0.030 C 
ATOM     30  C   UNL     1      32.560 -15.011 -20.066  0.00  0.00    -0.000 C 
ATOM     31  C   UNL     1      32.509 -13.865 -20.858  0.00  0.00    +0.003 C 
BRANCH  29  34
ATOM     32  N   UNL     1      34.230 -12.323 -23.801  0.00  0.00    -0.343 N 
ATOM     33  N   UNL     1      32.579 -11.491 -22.372  0.00  0.00    -0.285 NA
ATOM     34  C   UNL     1      33.412 -12.468 -22.682  0.00  0.00    +0.117 C 
ATOM     35  H   UNL     1      34.179 -11.505 -24.345  0.00  0.00    +0.144 HD
ATOM     36  H   UNL     1      34.859 -13.040 -24.046  0.00  0.00    +0.144 HD
ATOM     37  H   UNL     1      32.542 -10.679 -22.931  0.00  0.00    +0.188 HD
ENDBRANCH  29  34
ENDBRANCH  25  26
ENDBRANCH  20  25
ENDBRANCH   1  20
TORSDOF 9
ENDMDL
MODEL 4
REMARK VINA RESULT:     -10.8      6.012     10.702
REMARK  Name = 5496659
REMARK  9 active torsions:
REMARK  status: ('A' for Active; 'I' for Inactive)
REMARK    1  A    between atoms: C_1  and  N_4
REMARK    2  A    between atoms: C_1  and  C_20
REMARK    3  A    between atoms: C_5  and  C_7
REMARK    4  A    between atoms: C_10  and  C_15
REMARK    5  A    between atoms: C_20  and  C_22
REMARK    6  A    between atoms: C_20  and  C_25
REMARK    7  A    between atoms: C_22  and  O_23
REMARK    8  A    between atoms: C_25  and  C_26
REMARK    9  A    between atoms: C_29  and  C_34
REMARK                            x       y       z     vdW  Elec       q    Type
REMARK                         _______ _______ _______ _____ _____    ______ ____
ROOT
ATOM      1  C   UNL     1      34.142 -15.973 -22.240  0.00  0.00    +0.083 C 
ATOM      2  C   UNL     1      34.731 -16.233 -20.854  0.00  0.00    +0.022 C 
ENDROOT
BRANCH   1   4
ATOM      3  O   UNL     1      32.185 -14.343 -20.916  0.00  0.00    -0.270 OA
ATOM      4  N   UNL     1      33.926 -14.558 -22.432  0.00  0.00    -0.302 N 
ATOM      5  C   UNL     1      32.951 -13.854 -21.742  0.00  0.00    +0.246 C 
ATOM      6  H   UNL     1      34.492 -14.075 -23.077  0.00  0.00    +0.150 HD
BRANCH   5   7
ATOM      7  C   UNL     1      32.838 -12.410 -22.072  0.00  0.00    +0.053 C 
ATOM      8  C   UNL     1      33.642 -11.857 -23.067  0.00  0.00    +0.005 C 
ATOM      9  C   UNL     1      31.927 -11.608 -21.385  0.00  0.00    +0.005 C 
ATOM     10  C   UNL     1      32.626  -9.698 -22.690  0.00  0.00    +0.000 C 
ATOM     11  C   UNL     1      33.537 -10.501 -23.376  0.00  0.00    +0.000 C 
ATOM     12  C   UNL     1      31.821 -10.252 -21.693  0.00  0.00    +0.000 C 
BRANCH  10  15
ATOM     13  O   UNL     1      32.209  -4.341 -23.903  0.00  0.00    -0.163 OA
ATOM     14  N   UNL     1      32.305  -5.579 -23.622  0.00  0.00    -0.127 N 
ATOM     15  C   UNL     1      32.516  -8.291 -23.007  0.00  0.00    +0.003 C 
ATOM     16  C   UNL     1      33.644  -7.575 -23.395  0.00  0.00    +0.022 C 
ATOM     17  C   UNL     1      31.283  -7.653 -22.927  0.00  0.00    +0.022 C 
ATOM     18  C   UNL     1      33.525  -6.223 -23.699  0.00  0.00    +0.121 C 
ATOM     19  C   UNL     1      31.191  -6.299 -23.236  0.00  0.00    +0.121 C 
ENDBRANCH  10  15
ENDBRANCH   5   7
ENDBRANCH   1   4
BRANCH   1  20
ATOM     20  C   UNL     1      34.995 -16.601 -23.367  0.00  0.00    +0.121 C 
BRANCH  20  22
ATOM     21  O   UNL     1      35.360 -16.097 -25.724  0.00  0.00    -0.250 OA
ATOM     22  C   UNL     1      34.665 -15.982 -24.722  0.00  0.00    +0.319 C 
BRANCH  22  23
ATOM     23  O   UNL     1      33.492 -15.290 -24.638  0.00  0.00    -0.444 OA
ATOM     24  C   UNL     1      33.162 -14.499 -25.784  0.00  0.00    +0.256 C 
ENDBRANCH  22  23
ENDBRANCH  20  22
BRANCH  20  25
ATOM     25  C   UNL     1      34.825 -18.134 -23.435  0.00  0.00    +0.039 C 
BRANCH  25  26
ATOM     26  C   UNL     1      35.440 -18.843 -22.250  0.00  0.00    -0.021 C 
ATOM     27  C   UNL     1      34.675 -19.734 -21.496  0.00  0.00    -0.002 C 
ATOM     28  C   UNL     1      36.771 -18.606 -21.909  0.00  0.00    -0.004 C 
ATOM     29  C   UNL     1      35.242 -20.386 -20.402  0.00  0.00    +0.030 C 
ATOM     30  C   UNL     1      37.338 -19.259 -20.816  0.00  0.00    -0.000 C 
ATOM     31  C   UNL     1      36.573 -20.149 -20.061  0.00  0.00    +0.003 C 
BRANCH  29  34
ATOM     32  N   UNL     1      35.023 -22.410 -18.979  0.00  0.00    -0.343 N 
ATOM     33  N   UNL     1      33.142 -21.124 -19.497  0.00  0.00    -0.285 NA
ATOM     34  C   UNL     1      34.443 -21.313 -19.615  0.00  0.00    +0.117 C 
ATOM     35  H   UNL     1      34.464 -23.024 -18.451  0.00  0.00    +0.144 HD
ATOM     36  H   UNL     1      35.992 -22.569 -19.057  0.00  0.00    +0.144 HD
ATOM     37  H   UNL     1      32.599 -21.751 -18.964  0.00  0.00    +0.188 HD
ENDBRANCH  29  34
ENDBRANCH  25  26
ENDBRANCH  20  25
ENDBRANCH   1  20
TORSDOF 9
ENDMDL
MODEL 5
REMARK VINA RESULT:     -10.7      8.253     16.233
REMARK  Name = 5496659
REMARK  9 active torsions:
REMARK  status: ('A' for Active; 'I' for Inactive)
REMARK    1  A    between atoms: C_1  and  N_4
REMARK    2  A    between atoms: C_1  and  C_20
REMARK    3  A    between atoms: C_5  and  C_7
REMARK    4  A    between atoms: C_10  and  C_15
REMARK    5  A    between atoms: C_20  and  C_22
REMARK    6  A    between atoms: C_20  and  C_25
REMARK    7  A    between atoms: C_22  and  O_23
REMARK    8  A    between atoms: C_25  and  C_26
REMARK    9  A    between atoms: C_29  and  C_34
REMARK                            x       y       z     vdW  Elec       q    Type
REMARK                         _______ _______ _______ _____ _____    ______ ____
ROOT
ATOM      1  C   UNL     1      31.632  -8.612 -21.901  0.00  0.00    +0.083 C 
ATOM      2  C   UNL     1      30.980  -8.208 -23.222  0.00  0.00    +0.022 C 
ENDROOT
BRANCH   1   4
ATOM      3  O   UNL     1      30.463 -11.078 -21.012  0.00  0.00    -0.270 OA
ATOM      4  N   UNL     1      32.210  -9.930 -22.013  0.00  0.00    -0.302 N 
ATOM      5  C   UNL     1      31.566 -11.067 -21.551  0.00  0.00    +0.246 C 
ATOM      6  H   UNL     1      33.097 -10.025 -22.432  0.00  0.00    +0.150 HD
BRANCH   5   7
ATOM      7  C   UNL     1      32.305 -12.344 -21.718  0.00  0.00    +0.053 C 
ATOM      8  C   UNL     1      32.233 -13.326 -20.730  0.00  0.00    +0.005 C 
ATOM      9  C   UNL     1      33.072 -12.562 -22.862  0.00  0.00    +0.005 C 
ATOM     10  C   UNL     1      33.695 -14.743 -22.031  0.00  0.00    +0.000 C 
ATOM     11  C   UNL     1      32.928 -14.525 -20.886  0.00  0.00    +0.000 C 
ATOM     12  C   UNL     1      33.767 -13.761 -23.019  0.00  0.00    +0.000 C 
BRANCH  10  15
ATOM     13  O   UNL     1      36.451 -19.472 -22.651  0.00  0.00    -0.163 OA
ATOM     14  N   UNL     1      35.813 -18.380 -22.508  0.00  0.00    -0.127 N 
ATOM     15  C   UNL     1      34.418 -15.986 -22.193  0.00  0.00    +0.003 C 
ATOM     16  C   UNL     1      34.664 -16.486 -23.467  0.00  0.00    +0.022 C 
ATOM     17  C   UNL     1      34.869 -16.681 -21.077  0.00  0.00    +0.022 C 
ATOM     18  C   UNL     1      35.360 -17.681 -23.611  0.00  0.00    +0.121 C 
ATOM     19  C   UNL     1      35.564 -17.874 -21.247  0.00  0.00    +0.121 C 
ENDBRANCH  10  15
ENDBRANCH   5   7
ENDBRANCH   1   4
BRANCH   1  20
ATOM     20  C   UNL     1      32.647  -7.558 -21.402  0.00  0.00    +0.121 C 
BRANCH  20  22
ATOM     21  O   UNL     1      33.262  -6.620 -19.237  0.00  0.00    -0.250 OA
ATOM     22  C   UNL     1      32.632  -7.451 -19.880  0.00  0.00    +0.319 C 
BRANCH  22  23
ATOM     23  O   UNL     1      31.819  -8.416 -19.359  0.00  0.00    -0.444 OA
ATOM     24  C   UNL     1      32.486  -9.469 -18.655  0.00  0.00    +0.256 C 
ENDBRANCH  22  23
ENDBRANCH  20  22
BRANCH  20  25
ATOM     25  C   UNL     1      32.395  -6.170 -22.027  0.00  0.00    +0.039 C 
BRANCH  25  26
ATOM     26  C   UNL     1      33.232  -5.924 -23.261  0.00  0.00    -0.021 C 
ATOM     27  C   UNL     1      32.802  -5.011 -24.225  0.00  0.00    -0.002 C 
ATOM     28  C   UNL     1      34.433  -6.611 -23.438  0.00  0.00    -0.004 C 
ATOM     29  C   UNL     1      33.574  -4.787 -25.365  0.00  0.00    +0.030 C 
ATOM     30  C   UNL     1      35.205  -6.385 -24.577  0.00  0.00    -0.000 C 
ATOM     31  C   UNL     1      34.775  -5.474 -25.541  0.00  0.00    +0.003 C 
BRANCH  29  34
ATOM     32  N   UNL     1      33.792  -3.700 -27.588  0.00  0.00    -0.343 N 
ATOM     33  N   UNL     1      32.068  -3.081 -26.136  0.00  0.00    -0.285 NA
ATOM     34  C   UNL     1      33.125  -3.837 -26.371  0.00  0.00    +0.117 C 
ATOM     35  H   UNL     1      33.471  -3.051 -28.254  0.00  0.00    +0.144 HD
ATOM     36  H   UNL     1      34.583  -4.253 -27.780  0.00  0.00    +0.144 HD
ATOM     37  H   UNL     1      31.762  -2.437 -26.817  0.00  0.00    +0.188 HD
ENDBRANCH  29  34
ENDBRANCH  25  26
ENDBRANCH  20  25
ENDBRANCH   1  20
TORSDOF 9
ENDMDL
MODEL 6
REMARK VINA RESULT:     -10.7      1.903      2.493
REMARK  Name = 5496659
REMARK  9 active torsions:
REMARK  status: ('A' for Active; 'I' for Inactive)
REMARK    1  A    between atoms: C_1  and  N_4
REMARK    2  A    between atoms: C_1  and  C_20
REMARK    3  A    between atoms: C_5  and  C_7
REMARK    4  A    between atoms: C_10  and  C_15
REMARK    5  A    between atoms: C_20  and  C_22
REMARK    6  A    between atoms: C_20  and  C_25
REMARK    7  A    between atoms: C_22  and  O_23
REMARK    8  A    between atoms: C_25  and  C_26
REMARK    9  A    between atoms: C_29  and  C_34
REMARK                            x       y       z     vdW  Elec       q    Type
REMARK                         _______ _______ _______ _____ _____    ______ ____
ROOT
ATOM      1  C   UNL     1      33.570 -23.855 -16.276  0.00  0.00    +0.083 C 
ATOM      2  C   UNL     1      32.138 -23.839 -15.744  0.00  0.00    +0.022 C 
ENDROOT
BRANCH   1   4
ATOM      3  O   UNL     1      33.944 -24.072 -19.114  0.00  0.00    -0.270 OA
ATOM      4  N   UNL     1      33.768 -22.768 -17.206  0.00  0.00    -0.302 N 
ATOM      5  C   UNL     1      33.940 -22.974 -18.566  0.00  0.00    +0.246 C 
ATOM      6  H   UNL     1      33.781 -21.845 -16.860  0.00  0.00    +0.150 HD
BRANCH   5   7
ATOM      7  C   UNL     1      34.158 -21.753 -19.384  0.00  0.00    +0.053 C 
ATOM      8  C   UNL     1      35.454 -21.361 -19.720  0.00  0.00    +0.005 C 
ATOM      9  C   UNL     1      33.068 -20.999 -19.816  0.00  0.00    +0.005 C 
ATOM     10  C   UNL     1      34.567 -19.461 -20.920  0.00  0.00    +0.000 C 
ATOM     11  C   UNL     1      35.659 -20.215 -20.488  0.00  0.00    +0.000 C 
ATOM     12  C   UNL     1      33.271 -19.853 -20.583  0.00  0.00    +0.000 C 
BRANCH  10  15
ATOM     13  O   UNL     1      35.372 -14.929 -23.946  0.00  0.00    -0.163 OA
ATOM     14  N   UNL     1      35.185 -15.976 -23.247  0.00  0.00    -0.127 N 
ATOM     15  C   UNL     1      34.778 -18.271 -21.715  0.00  0.00    +0.003 C 
ATOM     16  C   UNL     1      34.765 -17.018 -21.110  0.00  0.00    +0.022 C 
ATOM     17  C   UNL     1      34.994 -18.377 -23.085  0.00  0.00    +0.022 C 
ATOM     18  C   UNL     1      34.969 -15.882 -21.885  0.00  0.00    +0.121 C 
ATOM     19  C   UNL     1      35.196 -17.225 -23.838  0.00  0.00    +0.121 C 
ENDBRANCH  10  15
ENDBRANCH   5   7
ENDBRANCH   1   4
BRANCH   1  20
ATOM     20  C   UNL     1      34.618 -23.863 -15.140  0.00  0.00    +0.121 C 
BRANCH  20  22
ATOM     21  O   UNL     1      35.717 -21.735 -14.684  0.00  0.00    -0.250 OA
ATOM     22  C   UNL     1      35.661 -22.768 -15.339  0.00  0.00    +0.319 C 
BRANCH  22  23
ATOM     23  O   UNL     1      36.508 -23.119 -16.351  0.00  0.00    -0.444 OA
ATOM     24  C   UNL     1      37.635 -22.257 -16.537  0.00  0.00    +0.256 C 
ENDBRANCH  22  23
ENDBRANCH  20  22
BRANCH  20  25
ATOM     25  C   UNL     1      35.315 -25.234 -15.005  0.00  0.00    +0.039 C 
BRANCH  25  26
ATOM     26  C   UNL     1      36.235 -25.307 -13.808  0.00  0.00    -0.021 C 
ATOM     27  C   UNL     1      35.814 -24.815 -12.573  0.00  0.00    -0.002 C 
ATOM     28  C   UNL     1      37.507 -25.864 -13.940  0.00  0.00    -0.004 C 
ATOM     29  C   UNL     1      36.664 -24.881 -11.470  0.00  0.00    +0.030 C 
ATOM     30  C   UNL     1      38.357 -25.930 -12.837  0.00  0.00    -0.000 C 
ATOM     31  C   UNL     1      37.937 -25.437 -11.602  0.00  0.00    +0.003 C 
BRANCH  29  34
ATOM     32  N   UNL     1      36.725 -23.169  -9.672  0.00  0.00    -0.343 N 
ATOM     33  N   UNL     1      35.340 -25.041  -9.471  0.00  0.00    -0.285 NA
ATOM     34  C   UNL     1      36.226 -24.366 -10.182  0.00  0.00    +0.117 C 
ATOM     35  H   UNL     1      36.415 -22.839  -8.798  0.00  0.00    +0.144 HD
ATOM     36  H   UNL     1      37.388 -22.653 -10.185  0.00  0.00    +0.144 HD
ATOM     37  H   UNL     1      35.042 -24.693  -8.598  0.00  0.00    +0.188 HD
ENDBRANCH  29  34
ENDBRANCH  25  26
ENDBRANCH  20  25
ENDBRANCH   1  20
TORSDOF 9
ENDMDL
MODEL 7
REMARK VINA RESULT:     -10.5      3.035     11.055
REMARK  Name = 5496659
REMARK  9 active torsions:
REMARK  status: ('A' for Active; 'I' for Inactive)
REMARK    1  A    between atoms: C_1  and  N_4
REMARK    2  A    between atoms: C_1  and  C_20
REMARK    3  A    between atoms: C_5  and  C_7
REMARK    4  A    between atoms: C_10  and  C_15
REMARK    5  A    between atoms: C_20  and  C_22
REMARK    6  A    between atoms: C_20  and  C_25
REMARK    7  A    between atoms: C_22  and  O_23
REMARK    8  A    between atoms: C_25  and  C_26
REMARK    9  A    between atoms: C_29  and  C_34
REMARK                            x       y       z     vdW  Elec       q    Type
REMARK                         _______ _______ _______ _____ _____    ______ ____
ROOT
ATOM      1  C   UNL     1      36.700 -19.497 -20.757  0.00  0.00    +0.083 C 
ATOM      2  C   UNL     1      37.999 -18.696 -20.826  0.00  0.00    +0.022 C 
ENDROOT
BRANCH   1   4
ATOM      3  O   UNL     1      36.005 -22.240 -20.271  0.00  0.00    -0.270 OA
ATOM      4  N   UNL     1      36.581 -20.141 -19.470  0.00  0.00    -0.302 N 
ATOM      5  C   UNL     1      36.238 -21.478 -19.336  0.00  0.00    +0.246 C 
ATOM      6  H   UNL     1      36.748 -19.611 -18.657  0.00  0.00    +0.150 HD
BRANCH   5   7
ATOM      7  C   UNL     1      36.132 -21.984 -17.944  0.00  0.00    +0.053 C 
ATOM      8  C   UNL     1      34.947 -22.572 -17.504  0.00  0.00    +0.005 C 
ATOM      9  C   UNL     1      37.218 -21.871 -17.076  0.00  0.00    +0.005 C 
ATOM     10  C   UNL     1      35.933 -22.934 -15.328  0.00  0.00    +0.000 C 
ATOM     11  C   UNL     1      34.846 -23.047 -16.196  0.00  0.00    +0.000 C 
ATOM     12  C   UNL     1      37.119 -22.345 -15.768  0.00  0.00    +0.000 C 
BRANCH  10  15
ATOM     13  O   UNL     1      35.543 -24.804 -10.161  0.00  0.00    -0.163 OA
ATOM     14  N   UNL     1      35.633 -24.371 -11.355  0.00  0.00    -0.127 N 
ATOM     15  C   UNL     1      35.830 -23.424 -13.971  0.00  0.00    +0.003 C 
ATOM     16  C   UNL     1      34.682 -24.090 -13.556  0.00  0.00    +0.022 C 
ATOM     17  C   UNL     1      36.880 -23.231 -13.079  0.00  0.00    +0.022 C 
ATOM     18  C   UNL     1      34.596 -24.557 -12.249  0.00  0.00    +0.121 C 
ATOM     19  C   UNL     1      36.769 -23.708 -11.777  0.00  0.00    +0.121 C 
ENDBRANCH  10  15
ENDBRANCH   5   7
ENDBRANCH   1   4
BRANCH   1  20
ATOM     20  C   UNL     1      35.462 -18.639 -21.109  0.00  0.00    +0.121 C 
BRANCH  20  22
ATOM     21  O   UNL     1      34.046 -20.025 -22.528  0.00  0.00    -0.250 OA
ATOM     22  C   UNL     1      34.256 -19.515 -21.435  0.00  0.00    +0.319 C 
BRANCH  22  23
ATOM     23  O   UNL     1      33.462 -19.633 -20.331  0.00  0.00    -0.444 OA
ATOM     24  C   UNL     1      32.833 -20.907 -20.161  0.00  0.00    +0.256 C 
ENDBRANCH  22  23
ENDBRANCH  20  22
BRANCH  20  25
ATOM     25  C   UNL     1      35.742 -17.673 -22.279  0.00  0.00    +0.039 C 
BRANCH  25  26
ATOM     26  C   UNL     1      34.926 -16.403 -22.196  0.00  0.00    -0.021 C 
ATOM     27  C   UNL     1      34.580 -15.719 -23.361  0.00  0.00    -0.002 C 
ATOM     28  C   UNL     1      34.522 -15.913 -20.954  0.00  0.00    -0.004 C 
ATOM     29  C   UNL     1      33.830 -14.546 -23.284  0.00  0.00    +0.030 C 
ATOM     30  C   UNL     1      33.772 -14.741 -20.877  0.00  0.00    -0.000 C 
ATOM     31  C   UNL     1      33.426 -14.056 -22.042  0.00  0.00    +0.003 C 
BRANCH  29  34
ATOM     32  N   UNL     1      32.783 -14.463 -25.535  0.00  0.00    -0.343 N 
ATOM     33  N   UNL     1      33.802 -12.561 -24.638  0.00  0.00    -0.285 NA
ATOM     34  C   UNL     1      33.471 -13.832 -24.500  0.00  0.00    +0.117 C 
ATOM     35  H   UNL     1      32.550 -13.960 -26.348  0.00  0.00    +0.144 HD
ATOM     36  H   UNL     1      32.530 -15.410 -25.451  0.00  0.00    +0.144 HD
ATOM     37  H   UNL     1      33.560 -12.075 -25.461  0.00  0.00    +0.188 HD
ENDBRANCH  29  34
ENDBRANCH  25  26
ENDBRANCH  20  25
ENDBRANCH   1  20
TORSDOF 9
ENDMDL
MODEL 8
REMARK VINA RESULT:     -10.5      7.044     15.013
REMARK  Name = 5496659
REMARK  9 active torsions:
REMARK  status: ('A' for Active; 'I' for Inactive)
REMARK    1  A    between atoms: C_1  and  N_4
REMARK    2  A    between atoms: C_1  and  C_20
REMARK    3  A    between atoms: C_5  and  C_7
REMARK    4  A    between atoms: C_10  and  C_15
REMARK    5  A    between atoms: C_20  and  C_22
REMARK    6  A    between atoms: C_20  and  C_25
REMARK    7  A    between atoms: C_22  and  O_23
REMARK    8  A    between atoms: C_25  and  C_26
REMARK    9  A    between atoms: C_29  and  C_34
REMARK                            x       y       z     vdW  Elec       q    Type
REMARK                         _______ _______ _______ _____ _____    ______ ____
ROOT
ATOM      1  C   UNL     1      33.392 -11.036 -23.375  0.00  0.00    +0.083 C 
ATOM      2  C   UNL     1      34.590 -10.290 -23.960  0.00  0.00    +0.022 C 
ENDROOT
BRANCH   1   4
ATOM      3  O   UNL     1      33.548 -13.443 -24.932  0.00  0.00    -0.270 OA
ATOM      4  N   UNL     1      33.799 -12.341 -22.908  0.00  0.00    -0.302 N 
ATOM      5  C   UNL     1      33.842 -13.449 -23.740  0.00  0.00    +0.246 C 
ATOM      6  H   UNL     1      34.054 -12.448 -21.962  0.00  0.00    +0.150 HD
BRANCH   5   7
ATOM      7  C   UNL     1      34.257 -14.724 -23.101  0.00  0.00    +0.053 C 
ATOM      8  C   UNL     1      34.653 -15.803 -23.890  0.00  0.00    +0.005 C 
ATOM      9  C   UNL     1      34.249 -14.843 -21.711  0.00  0.00    +0.005 C 
ATOM     10  C   UNL     1      35.035 -17.119 -21.900  0.00  0.00    +0.000 C 
ATOM     11  C   UNL     1      35.042 -17.001 -23.290  0.00  0.00    +0.000 C 
ATOM     12  C   UNL     1      34.638 -16.039 -21.111  0.00  0.00    +0.000 C 
BRANCH  10  15
ATOM     13  O   UNL     1      36.563 -21.846 -19.521  0.00  0.00    -0.163 OA
ATOM     14  N   UNL     1      36.210 -20.754 -20.072  0.00  0.00    -0.127 N 
ATOM     15  C   UNL     1      35.436 -18.361 -21.276  0.00  0.00    +0.003 C 
ATOM     16  C   UNL     1      36.780 -18.605 -21.011  0.00  0.00    +0.022 C 
ATOM     17  C   UNL     1      34.480 -19.313 -20.940  0.00  0.00    +0.022 C 
ATOM     18  C   UNL     1      37.153 -19.802 -20.410  0.00  0.00    +0.121 C 
ATOM     19  C   UNL     1      34.879 -20.502 -20.340  0.00  0.00    +0.121 C 
ENDBRANCH  10  15
ENDBRANCH   5   7
ENDBRANCH   1   4
BRANCH   1  20
ATOM     20  C   UNL     1      32.665 -10.215 -22.285  0.00  0.00    +0.121 C 
BRANCH  20  22
ATOM     21  O   UNL     1      31.192 -12.078 -21.732  0.00  0.00    -0.250 OA
ATOM     22  C   UNL     1      31.855 -11.118 -21.359  0.00  0.00    +0.319 C 
BRANCH  22  23
ATOM     23  O   UNL     1      31.984 -10.688 -20.070  0.00  0.00    -0.444 OA
ATOM     24  C   UNL     1      30.836 -10.885 -19.238  0.00  0.00    +0.256 C 
ENDBRANCH  22  23
ENDBRANCH  20  22
BRANCH  20  25
ATOM     25  C   UNL     1      31.751  -9.130 -22.891  0.00  0.00    +0.039 C 
BRANCH  25  26
ATOM     26  C   UNL     1      31.890  -7.794 -22.198  0.00  0.00    -0.021 C 
ATOM     27  C   UNL     1      31.379  -6.642 -22.795  0.00  0.00    -0.002 C 
ATOM     28  C   UNL     1      32.531  -7.713 -20.962  0.00  0.00    -0.004 C 
ATOM     29  C   UNL     1      31.509  -5.409 -22.156  0.00  0.00    +0.030 C 
ATOM     30  C   UNL     1      32.660  -6.481 -20.323  0.00  0.00    -0.000 C 
ATOM     31  C   UNL     1      32.150  -5.328 -20.920  0.00  0.00    +0.003 C 
BRANCH  29  34
ATOM     32  N   UNL     1      31.299  -3.869 -24.093  0.00  0.00    -0.343 N 
ATOM     33  N   UNL     1      30.177  -3.410 -22.095  0.00  0.00    -0.285 NA
ATOM     34  C   UNL     1      30.977  -4.207 -22.779  0.00  0.00    +0.117 C 
ATOM     35  H   UNL     1      30.929  -3.051 -24.495  0.00  0.00    +0.144 HD
ATOM     36  H   UNL     1      31.897  -4.449 -24.618  0.00  0.00    +0.144 HD
ATOM     37  H   UNL     1      29.816  -2.595 -22.516  0.00  0.00    +0.188 HD
ENDBRANCH  29  34
ENDBRANCH  25  26
ENDBRANCH  20  25
ENDBRANCH   1  20
TORSDOF 9
ENDMDL
MODEL 9
REMARK VINA RESULT:     -10.4      2.707     10.878
REMARK  Name = 5496659
REMARK  9 active torsions:
REMARK  status: ('A' for Active; 'I' for Inactive)
REMARK    1  A    between atoms: C_1  and  N_4
REMARK    2  A    between atoms: C_1  and  C_20
REMARK    3  A    between atoms: C_5  and  C_7
REMARK    4  A    between atoms: C_10  and  C_15
REMARK    5  A    between atoms: C_20  and  C_22
REMARK    6  A    between atoms: C_20  and  C_25
REMARK    7  A    between atoms: C_22  and  O_23
REMARK    8  A    between atoms: C_25  and  C_26
REMARK    9  A    between atoms: C_29  and  C_34
REMARK                            x       y       z     vdW  Elec       q    Type
REMARK                         _______ _______ _______ _____ _____    ______ ____
ROOT
ATOM      1  C   UNL     1      34.753 -19.329 -21.783  0.00  0.00    +0.083 C 
ATOM      2  C   UNL     1      34.956 -20.181 -23.034  0.00  0.00    +0.022 C 
ENDROOT
BRANCH   1   4
ATOM      3  O   UNL     1      32.768 -20.877 -20.403  0.00  0.00    -0.270 OA
ATOM      4  N   UNL     1      34.954 -20.128 -20.597  0.00  0.00    -0.302 N 
ATOM      5  C   UNL     1      33.928 -20.845 -20.000  0.00  0.00    +0.246 C 
ATOM      6  H   UNL     1      35.853 -20.166 -20.197  0.00  0.00    +0.150 HD
BRANCH   5   7
ATOM      7  C   UNL     1      34.291 -21.597 -18.772  0.00  0.00    +0.053 C 
ATOM      8  C   UNL     1      33.306 -22.272 -18.051  0.00  0.00    +0.005 C 
ATOM      9  C   UNL     1      35.616 -21.628 -18.340  0.00  0.00    +0.005 C 
ATOM     10  C   UNL     1      34.973 -23.010 -16.465  0.00  0.00    +0.000 C 
ATOM     11  C   UNL     1      33.647 -22.978 -16.897  0.00  0.00    +0.000 C 
ATOM     12  C   UNL     1      35.958 -22.334 -17.187  0.00  0.00    +0.000 C 
BRANCH  10  15
ATOM     13  O   UNL     1      36.327 -25.787 -11.905  0.00  0.00    -0.163 OA
ATOM     14  N   UNL     1      36.014 -25.146 -12.959  0.00  0.00    -0.127 N 
ATOM     15  C   UNL     1      35.328 -23.740 -15.268  0.00  0.00    +0.003 C 
ATOM     16  C   UNL     1      36.579 -24.339 -15.163  0.00  0.00    +0.022 C 
ATOM     17  C   UNL     1      34.420 -23.843 -14.220  0.00  0.00    +0.022 C 
ATOM     18  C   UNL     1      36.909 -25.037 -14.007  0.00  0.00    +0.121 C 
ATOM     19  C   UNL     1      34.774 -24.547 -13.073  0.00  0.00    +0.121 C 
ENDBRANCH  10  15
ENDBRANCH   5   7
ENDBRANCH   1   4
BRANCH   1  20
ATOM     20  C   UNL     1      35.627 -18.053 -21.794  0.00  0.00    +0.121 C 
BRANCH  20  22
ATOM     21  O   UNL     1      37.962 -18.705 -22.060  0.00  0.00    -0.250 OA
ATOM     22  C   UNL     1      37.048 -18.351 -21.325  0.00  0.00    +0.319 C 
BRANCH  22  23
ATOM     23  O   UNL     1      37.136 -18.164 -19.975  0.00  0.00    -0.444 OA
ATOM     24  C   UNL     1      37.938 -19.119 -19.273  0.00  0.00    +0.256 C 
ENDBRANCH  22  23
ENDBRANCH  20  22
BRANCH  20  25
ATOM     25  C   UNL     1      35.017 -16.926 -20.935  0.00  0.00    +0.039 C 
BRANCH  25  26
ATOM     26  C   UNL     1      34.508 -15.769 -21.764  0.00  0.00    -0.021 C 
ATOM     27  C   UNL     1      34.303 -15.930 -23.135  0.00  0.00    -0.002 C 
ATOM     28  C   UNL     1      34.246 -14.540 -21.160  0.00  0.00    -0.004 C 
ATOM     29  C   UNL     1      33.836 -14.862 -23.900  0.00  0.00    +0.030 C 
ATOM     30  C   UNL     1      33.779 -13.472 -21.925  0.00  0.00    -0.000 C 
ATOM     31  C   UNL     1      33.575 -13.633 -23.296  0.00  0.00    +0.003 C 
BRANCH  29  34
ATOM     32  N   UNL     1      32.668 -14.281 -26.013  0.00  0.00    -0.343 N 
ATOM     33  N   UNL     1      34.345 -15.909 -26.002  0.00  0.00    -0.285 NA
ATOM     34  C   UNL     1      33.625 -15.030 -25.330  0.00  0.00    +0.117 C 
ATOM     35  H   UNL     1      32.541 -14.411 -26.981  0.00  0.00    +0.144 HD
ATOM     36  H   UNL     1      32.120 -13.623 -25.528  0.00  0.00    +0.144 HD
ATOM     37  H   UNL     1      34.202 -16.024 -26.971  0.00  0.00    +0.188 HD
ENDBRANCH  29  34
ENDBRANCH  25  26
ENDBRANCH  20  25
ENDBRANCH   1  20
TORSDOF 9
ENDMDL
