MODEL 1
REMARK VINA RESULT:     -11.7      0.000      0.000
REMARK  Name = 6323454
REMARK  1 active torsions:
REMARK  status: ('A' for Active; 'I' for Inactive)
REMARK    1  A    between atoms: C_18  and  O_22
REMARK                            x       y       z     vdW  Elec       q    Type
REMARK                         _______ _______ _______ _____ _____    ______ ____
ROOT
ATOM      1  O   UNL     1      34.419 -24.650 -13.123  0.00  0.00    -0.350 OA
ATOM      2  O   UNL     1      37.506 -22.951 -13.281  0.00  0.00    -0.445 OA
ATOM      3  O   UNL     1      37.930 -22.500 -16.002  0.00  0.00    -0.287 OA
ATOM      4  O   UNL     1      38.374 -22.870 -11.146  0.00  0.00    -0.250 OA
ATOM      5  O   UNL     1      32.787 -23.561 -16.917  0.00  0.00    -0.287 OA
ATOM      6  C   UNL     1      35.413 -23.708 -12.780  0.00  0.00    +0.171 C 
ATOM      7  C   UNL     1      36.470 -23.738 -13.855  0.00  0.00    +0.221 C 
ATOM      8  C   UNL     1      35.864 -23.276 -15.144  0.00  0.00    +0.060 C 
ATOM      9  C   UNL     1      33.683 -24.222 -14.301  0.00  0.00    +0.141 C 
ATOM     10  C   UNL     1      34.557 -23.529 -15.355  0.00  0.00    +0.046 C 
ATOM     11  C   UNL     1      36.261 -24.006 -11.569  0.00  0.00    +0.143 C 
ATOM     12  C   UNL     1      37.501 -23.218 -11.926  0.00  0.00    +0.320 C 
ATOM     13  C   UNL     1      36.725 -22.639 -16.169  0.00  0.00    +0.195 C 
ATOM     14  C   UNL     1      33.929 -23.197 -16.665  0.00  0.00    +0.197 C 
ATOM     15  C   UNL     1      32.517 -23.349 -13.824  0.00  0.00    +0.037 C 
ATOM     16  C   UNL     1      36.079 -22.177 -17.410  0.00  0.00    +0.045 C 
ATOM     17  C   UNL     1      34.732 -22.446 -17.648  0.00  0.00    +0.075 C 
ATOM     18  C   UNL     1      34.134 -22.010 -18.838  0.00  0.00    +0.137 C 
ATOM     19  C   UNL     1      36.831 -21.474 -18.359  0.00  0.00    +0.003 C 
ATOM     20  C   UNL     1      34.885 -21.306 -19.780  0.00  0.00    +0.037 C 
ATOM     21  C   UNL     1      36.231 -21.039 -19.542  0.00  0.00    +0.003 C 
ENDROOT
BRANCH  18  22
ATOM     22  O   UNL     1      32.821 -22.233 -19.130  0.00  0.00    -0.505 OA
ATOM     23  H   UNL     1      32.380 -22.975 -18.765  0.00  0.00    +0.292 HD
ENDBRANCH  18  22
TORSDOF 1
ENDMDL
MODEL 2
REMARK VINA RESULT:     -10.5      1.754      4.462
REMARK  Name = 6323454
REMARK  1 active torsions:
REMARK  status: ('A' for Active; 'I' for Inactive)
REMARK    1  A    between atoms: C_18  and  O_22
REMARK                            x       y       z     vdW  Elec       q    Type
REMARK                         _______ _______ _______ _____ _____    ______ ____
ROOT
ATOM      1  O   UNL     1      33.210 -24.142 -12.730  0.00  0.00    -0.350 OA
ATOM      2  O   UNL     1      30.854 -24.437 -15.339  0.00  0.00    -0.445 OA
ATOM      3  O   UNL     1      31.798 -22.741 -17.343  0.00  0.00    -0.287 OA
ATOM      4  O   UNL     1      29.134 -25.774 -14.584  0.00  0.00    -0.250 OA
ATOM      5  O   UNL     1      36.545 -22.619 -14.922  0.00  0.00    -0.287 OA
ATOM      6  C   UNL     1      32.335 -24.778 -13.637  0.00  0.00    +0.171 C 
ATOM      7  C   UNL     1      31.896 -23.754 -14.653  0.00  0.00    +0.221 C 
ATOM      8  C   UNL     1      33.090 -23.311 -15.442  0.00  0.00    +0.060 C 
ATOM      9  C   UNL     1      34.461 -23.785 -13.378  0.00  0.00    +0.141 C 
ATOM     10  C   UNL     1      34.289 -23.306 -14.827  0.00  0.00    +0.046 C 
ATOM     11  C   UNL     1      30.993 -25.219 -13.110  0.00  0.00    +0.143 C 
ATOM     12  C   UNL     1      30.197 -25.204 -14.396  0.00  0.00    +0.320 C 
ATOM     13  C   UNL     1      32.906 -22.819 -16.828  0.00  0.00    +0.195 C 
ATOM     14  C   UNL     1      35.489 -22.767 -15.525  0.00  0.00    +0.197 C 
ATOM     15  C   UNL     1      35.403 -24.986 -13.254  0.00  0.00    +0.037 C 
ATOM     16  C   UNL     1      34.113 -22.419 -17.575  0.00  0.00    +0.045 C 
ATOM     17  C   UNL     1      35.357 -22.394 -16.946  0.00  0.00    +0.075 C 
ATOM     18  C   UNL     1      36.493 -22.002 -17.665  0.00  0.00    +0.137 C 
ATOM     19  C   UNL     1      34.001 -22.051 -18.921  0.00  0.00    +0.003 C 
ATOM     20  C   UNL     1      36.379 -21.639 -19.007  0.00  0.00    +0.037 C 
ATOM     21  C   UNL     1      35.136 -21.663 -19.634  0.00  0.00    +0.003 C 
ENDROOT
BRANCH  18  22
ATOM     22  O   UNL     1      37.739 -21.962 -17.114  0.00  0.00    -0.505 OA
ATOM     23  H   UNL     1      38.124 -22.745 -16.770  0.00  0.00    +0.292 HD
ENDBRANCH  18  22
TORSDOF 1
ENDMDL
MODEL 3
REMARK VINA RESULT:     -10.3      2.063      5.727
REMARK  Name = 6323454
REMARK  1 active torsions:
REMARK  status: ('A' for Active; 'I' for Inactive)
REMARK    1  A    between atoms: C_18  and  O_22
REMARK                            x       y       z     vdW  Elec       q    Type
REMARK                         _______ _______ _______ _____ _____    ______ ____
ROOT
ATOM      1  O   UNL     1      32.068 -23.068 -14.522  0.00  0.00    -0.350 OA
ATOM      2  O   UNL     1      34.282 -22.865 -17.262  0.00  0.00    -0.445 OA
ATOM      3  O   UNL     1      36.825 -23.108 -16.139  0.00  0.00    -0.287 OA
ATOM      4  O   UNL     1      33.031 -22.403 -19.143  0.00  0.00    -0.250 OA
ATOM      5  O   UNL     1      34.607 -24.979 -11.667  0.00  0.00    -0.287 OA
ATOM      6  C   UNL     1      32.580 -23.324 -15.813  0.00  0.00    +0.171 C 
ATOM      7  C   UNL     1      33.981 -22.769 -15.875  0.00  0.00    +0.221 C 
ATOM      8  C   UNL     1      34.843 -23.525 -14.911  0.00  0.00    +0.060 C 
ATOM      9  C   UNL     1      32.764 -23.860 -13.522  0.00  0.00    +0.141 C 
ATOM     10  C   UNL     1      34.267 -24.013 -13.795  0.00  0.00    +0.046 C 
ATOM     11  C   UNL     1      31.952 -22.581 -16.966  0.00  0.00    +0.143 C 
ATOM     12  C   UNL     1      33.108 -22.598 -17.940  0.00  0.00    +0.320 C 
ATOM     13  C   UNL     1      36.299 -23.637 -15.168  0.00  0.00    +0.195 C 
ATOM     14  C   UNL     1      35.098 -24.671 -12.747  0.00  0.00    +0.197 C 
ATOM     15  C   UNL     1      32.037 -25.203 -13.409  0.00  0.00    +0.037 C 
ATOM     16  C   UNL     1      37.103 -24.413 -14.206  0.00  0.00    +0.045 C 
ATOM     17  C   UNL     1      36.523 -24.910 -13.040  0.00  0.00    +0.075 C 
ATOM     18  C   UNL     1      37.302 -25.635 -12.130  0.00  0.00    +0.137 C 
ATOM     19  C   UNL     1      38.460 -24.637 -14.464  0.00  0.00    +0.003 C 
ATOM     20  C   UNL     1      38.654 -25.861 -12.391  0.00  0.00    +0.037 C 
ATOM     21  C   UNL     1      39.232 -25.362 -13.555  0.00  0.00    +0.003 C 
ENDROOT
BRANCH  18  22
ATOM     22  O   UNL     1      36.797 -26.156 -10.975  0.00  0.00    -0.505 OA
ATOM     23  H   UNL     1      36.894 -27.070 -10.792  0.00  0.00    +0.292 HD
ENDBRANCH  18  22
TORSDOF 1
ENDMDL
MODEL 4
REMARK VINA RESULT:     -10.2      2.109      5.301
REMARK  Name = 6323454
REMARK  1 active torsions:
REMARK  status: ('A' for Active; 'I' for Inactive)
REMARK    1  A    between atoms: C_18  and  O_22
REMARK                            x       y       z     vdW  Elec       q    Type
REMARK                         _______ _______ _______ _____ _____    ______ ____
ROOT
ATOM      1  O   UNL     1      36.654 -23.915 -14.853  0.00  0.00    -0.350 OA
ATOM      2  O   UNL     1      35.292 -22.004 -17.487  0.00  0.00    -0.445 OA
ATOM      3  O   UNL     1      32.627 -22.814 -17.647  0.00  0.00    -0.287 OA
ATOM      4  O   UNL     1      37.010 -20.794 -18.438  0.00  0.00    -0.250 OA
ATOM      5  O   UNL     1      33.067 -25.011 -12.810  0.00  0.00    -0.287 OA
ATOM      6  C   UNL     1      36.387 -22.773 -15.639  0.00  0.00    +0.171 C 
ATOM      7  C   UNL     1      35.293 -23.127 -16.614  0.00  0.00    +0.221 C 
ATOM      8  C   UNL     1      34.041 -23.428 -15.849  0.00  0.00    +0.060 C 
ATOM      9  C   UNL     1      35.535 -24.215 -13.975  0.00  0.00    +0.141 C 
ATOM     10  C   UNL     1      34.164 -23.962 -14.618  0.00  0.00    +0.046 C 
ATOM     11  C   UNL     1      37.461 -22.327 -16.599  0.00  0.00    +0.143 C 
ATOM     12  C   UNL     1      36.608 -21.605 -17.617  0.00  0.00    +0.320 C 
ATOM     13  C   UNL     1      32.723 -23.211 -16.493  0.00  0.00    +0.195 C 
ATOM     14  C   UNL     1      32.955 -24.388 -13.859  0.00  0.00    +0.197 C 
ATOM     15  C   UNL     1      35.742 -23.426 -12.679  0.00  0.00    +0.037 C 
ATOM     16  C   UNL     1      31.519 -23.496 -15.692  0.00  0.00    +0.045 C 
ATOM     17  C   UNL     1      31.632 -24.063 -14.423  0.00  0.00    +0.075 C 
ATOM     18  C   UNL     1      30.478 -24.338 -13.678  0.00  0.00    +0.137 C 
ATOM     19  C   UNL     1      30.255 -23.205 -16.219  0.00  0.00    +0.003 C 
ATOM     20  C   UNL     1      29.219 -24.044 -14.204  0.00  0.00    +0.037 C 
ATOM     21  C   UNL     1      29.108 -23.479 -15.472  0.00  0.00    +0.003 C 
ENDROOT
BRANCH  18  22
ATOM     22  O   UNL     1      30.517 -24.885 -12.430  0.00  0.00    -0.505 OA
ATOM     23  H   UNL     1      30.652 -24.335 -11.682  0.00  0.00    +0.292 HD
ENDBRANCH  18  22
TORSDOF 1
ENDMDL
MODEL 5
REMARK VINA RESULT:     -10.2      1.883      6.187
REMARK  Name = 6323454
REMARK  1 active torsions:
REMARK  status: ('A' for Active; 'I' for Inactive)
REMARK    1  A    between atoms: C_18  and  O_22
REMARK                            x       y       z     vdW  Elec       q    Type
REMARK                         _______ _______ _______ _____ _____    ______ ____
ROOT
ATOM      1  O   UNL     1      37.239 -22.245 -17.844  0.00  0.00    -0.350 OA
ATOM      2  O   UNL     1      34.244 -21.287 -19.442  0.00  0.00    -0.445 OA
ATOM      3  O   UNL     1      32.238 -22.670 -18.081  0.00  0.00    -0.287 OA
ATOM      4  O   UNL     1      34.803 -19.966 -21.248  0.00  0.00    -0.250 OA
ATOM      5  O   UNL     1      35.673 -23.628 -14.118  0.00  0.00    -0.287 OA
ATOM      6  C   UNL     1      36.288 -21.385 -18.434  0.00  0.00    +0.171 C 
ATOM      7  C   UNL     1      35.016 -22.169 -18.637  0.00  0.00    +0.221 C 
ATOM      8  C   UNL     1      34.471 -22.562 -17.298  0.00  0.00    +0.060 C 
ATOM      9  C   UNL     1      36.858 -22.585 -16.483  0.00  0.00    +0.141 C 
ATOM     10  C   UNL     1      35.347 -22.780 -16.297  0.00  0.00    +0.046 C 
ATOM     11  C   UNL     1      36.547 -20.933 -19.849  0.00  0.00    +0.143 C 
ATOM     12  C   UNL     1      35.129 -20.649 -20.289  0.00  0.00    +0.320 C 
ATOM     13  C   UNL     1      33.013 -22.780 -17.139  0.00  0.00    +0.195 C 
ATOM     14  C   UNL     1      34.871 -23.285 -14.979  0.00  0.00    +0.197 C 
ATOM     15  C   UNL     1      37.441 -21.511 -15.560  0.00  0.00    +0.037 C 
ATOM     16  C   UNL     1      32.520 -23.141 -15.798  0.00  0.00    +0.045 C 
ATOM     17  C   UNL     1      33.417 -23.384 -14.758  0.00  0.00    +0.075 C 
ATOM     18  C   UNL     1      32.934 -23.736 -13.491  0.00  0.00    +0.137 C 
ATOM     19  C   UNL     1      31.143 -23.251 -15.575  0.00  0.00    +0.003 C 
ATOM     20  C   UNL     1      31.560 -23.842 -13.271  0.00  0.00    +0.037 C 
ATOM     21  C   UNL     1      30.666 -23.600 -14.311  0.00  0.00    +0.003 C 
ENDROOT
BRANCH  18  22
ATOM     22  O   UNL     1      33.754 -23.980 -12.429  0.00  0.00    -0.505 OA
ATOM     23  H   UNL     1      34.154 -23.266 -11.974  0.00  0.00    +0.292 HD
ENDBRANCH  18  22
TORSDOF 1
ENDMDL
MODEL 6
REMARK VINA RESULT:      -9.6      2.417      5.463
REMARK  Name = 6323454
REMARK  1 active torsions:
REMARK  status: ('A' for Active; 'I' for Inactive)
REMARK    1  A    between atoms: C_18  and  O_22
REMARK                            x       y       z     vdW  Elec       q    Type
REMARK                         _______ _______ _______ _____ _____    ______ ____
ROOT
ATOM      1  O   UNL     1      30.666 -23.848 -13.632  0.00  0.00    -0.350 OA
ATOM      2  O   UNL     1      29.812 -23.418 -17.028  0.00  0.00    -0.445 OA
ATOM      3  O   UNL     1      31.975 -22.046 -18.136  0.00  0.00    -0.287 OA
ATOM      4  O   UNL     1      27.664 -24.205 -17.317  0.00  0.00    -0.250 OA
ATOM      5  O   UNL     1      34.900 -23.335 -13.870  0.00  0.00    -0.287 OA
ATOM      6  C   UNL     1      30.187 -24.192 -14.915  0.00  0.00    +0.171 C 
ATOM      7  C   UNL     1      30.547 -23.073 -15.860  0.00  0.00    +0.221 C 
ATOM      8  C   UNL     1      32.039 -22.988 -15.964  0.00  0.00    +0.060 C 
ATOM      9  C   UNL     1      32.119 -23.862 -13.599  0.00  0.00    +0.141 C 
ATOM     10  C   UNL     1      32.769 -23.338 -14.887  0.00  0.00    +0.046 C 
ATOM     11  C   UNL     1      28.692 -24.230 -15.109  0.00  0.00    +0.143 C 
ATOM     12  C   UNL     1      28.622 -23.971 -16.597  0.00  0.00    +0.320 C 
ATOM     13  C   UNL     1      32.654 -22.448 -17.200  0.00  0.00    +0.195 C 
ATOM     14  C   UNL     1      34.249 -23.163 -14.893  0.00  0.00    +0.197 C 
ATOM     15  C   UNL     1      32.557 -25.287 -13.245  0.00  0.00    +0.037 C 
ATOM     16  C   UNL     1      34.126 -22.408 -17.267  0.00  0.00    +0.045 C 
ATOM     17  C   UNL     1      34.893 -22.752 -16.154  0.00  0.00    +0.075 C 
ATOM     18  C   UNL     1      36.291 -22.699 -16.230  0.00  0.00    +0.137 C 
ATOM     19  C   UNL     1      34.752 -22.008 -18.453  0.00  0.00    +0.003 C 
ATOM     20  C   UNL     1      36.913 -22.303 -17.414  0.00  0.00    +0.037 C 
ATOM     21  C   UNL     1      36.145 -21.958 -18.524  0.00  0.00    +0.003 C 
ENDROOT
BRANCH  18  22
ATOM     22  O   UNL     1      37.100 -23.029 -15.183  0.00  0.00    -0.505 OA
ATOM     23  H   UNL     1      37.106 -22.499 -14.411  0.00  0.00    +0.292 HD
ENDBRANCH  18  22
TORSDOF 1
ENDMDL
MODEL 7
REMARK VINA RESULT:      -9.6      1.262      6.495
REMARK  Name = 6323454
REMARK  1 active torsions:
REMARK  status: ('A' for Active; 'I' for Inactive)
REMARK    1  A    between atoms: C_18  and  O_22
REMARK                            x       y       z     vdW  Elec       q    Type
REMARK                         _______ _______ _______ _____ _____    ______ ____
ROOT
ATOM      1  O   UNL     1      36.773 -21.622 -18.867  0.00  0.00    -0.350 OA
ATOM      2  O   UNL     1      33.254 -21.811 -18.702  0.00  0.00    -0.445 OA
ATOM      3  O   UNL     1      32.735 -23.556 -16.587  0.00  0.00    -0.287 OA
ATOM      4  O   UNL     1      32.402 -20.614 -20.479  0.00  0.00    -0.250 OA
ATOM      5  O   UNL     1      37.765 -22.946 -14.929  0.00  0.00    -0.287 OA
ATOM      6  C   UNL     1      35.436 -21.166 -18.859  0.00  0.00    +0.171 C 
ATOM      7  C   UNL     1      34.557 -22.314 -18.435  0.00  0.00    +0.221 C 
ATOM      8  C   UNL     1      34.895 -22.687 -17.024  0.00  0.00    +0.060 C 
ATOM      9  C   UNL     1      37.237 -21.892 -17.517  0.00  0.00    +0.141 C 
ATOM     10  C   UNL     1      36.164 -22.507 -16.608  0.00  0.00    +0.046 C 
ATOM     11  C   UNL     1      34.811 -20.833 -20.191  0.00  0.00    +0.143 C 
ATOM     12  C   UNL     1      33.354 -21.045 -19.847  0.00  0.00    +0.320 C 
ATOM     13  C   UNL     1      33.859 -23.312 -16.167  0.00  0.00    +0.195 C 
ATOM     14  C   UNL     1      36.584 -22.968 -15.255  0.00  0.00    +0.197 C 
ATOM     15  C   UNL     1      37.816 -20.587 -16.960  0.00  0.00    +0.037 C 
ATOM     16  C   UNL     1      34.230 -23.638 -14.778  0.00  0.00    +0.045 C 
ATOM     17  C   UNL     1      35.543 -23.471 -14.340  0.00  0.00    +0.075 C 
ATOM     18  C   UNL     1      35.883 -23.795 -13.020  0.00  0.00    +0.137 C 
ATOM     19  C   UNL     1      33.256 -24.129 -13.901  0.00  0.00    +0.003 C 
ATOM     20  C   UNL     1      34.909 -24.281 -12.146  0.00  0.00    +0.037 C 
ATOM     21  C   UNL     1      33.598 -24.448 -12.586  0.00  0.00    +0.003 C 
ENDROOT
BRANCH  18  22
ATOM     22  O   UNL     1      37.145 -23.649 -12.525  0.00  0.00    -0.505 OA
ATOM     23  H   UNL     1      37.873 -23.582 -13.111  0.00  0.00    +0.292 HD
ENDBRANCH  18  22
TORSDOF 1
ENDMDL
MODEL 8
REMARK VINA RESULT:      -9.5      7.962     11.457
REMARK  Name = 6323454
REMARK  1 active torsions:
REMARK  status: ('A' for Active; 'I' for Inactive)
REMARK    1  A    between atoms: C_18  and  O_22
REMARK                            x       y       z     vdW  Elec       q    Type
REMARK                         _______ _______ _______ _____ _____    ______ ____
ROOT
ATOM      1  O   UNL     1      35.622 -16.465 -24.268  0.00  0.00    -0.350 OA
ATOM      2  O   UNL     1      34.511 -17.707 -21.158  0.00  0.00    -0.445 OA
ATOM      3  O   UNL     1      33.833 -15.435 -19.687  0.00  0.00    -0.287 OA
ATOM      4  O   UNL     1      34.838 -19.990 -21.156  0.00  0.00    -0.250 OA
ATOM      5  O   UNL     1      33.822 -12.592 -24.197  0.00  0.00    -0.287 OA
ATOM      6  C   UNL     1      34.924 -17.296 -23.364  0.00  0.00    +0.171 C 
ATOM      7  C   UNL     1      35.023 -16.676 -21.993  0.00  0.00    +0.221 C 
ATOM      8  C   UNL     1      34.312 -15.358 -22.005  0.00  0.00    +0.060 C 
ATOM      9  C   UNL     1      34.933 -15.198 -24.445  0.00  0.00    +0.141 C 
ATOM     10  C   UNL     1      34.295 -14.658 -23.157  0.00  0.00    +0.046 C 
ATOM     11  C   UNL     1      35.511 -18.656 -23.081  0.00  0.00    +0.143 C 
ATOM     12  C   UNL     1      34.928 -18.904 -21.708  0.00  0.00    +0.320 C 
ATOM     13  C   UNL     1      33.730 -14.831 -20.748  0.00  0.00    +0.195 C 
ATOM     14  C   UNL     1      33.704 -13.291 -23.197  0.00  0.00    +0.197 C 
ATOM     15  C   UNL     1      33.923 -15.378 -25.582  0.00  0.00    +0.037 C 
ATOM     16  C   UNL     1      33.016 -13.543 -20.814  0.00  0.00    +0.045 C 
ATOM     17  C   UNL     1      33.005 -12.802 -21.995  0.00  0.00    +0.075 C 
ATOM     18  C   UNL     1      32.332 -11.574 -22.040  0.00  0.00    +0.137 C 
ATOM     19  C   UNL     1      32.358 -13.060 -19.677  0.00  0.00    +0.003 C 
ATOM     20  C   UNL     1      31.674 -11.096 -20.906  0.00  0.00    +0.037 C 
ATOM     21  C   UNL     1      31.688 -11.837 -19.727  0.00  0.00    +0.003 C 
ENDROOT
BRANCH  18  22
ATOM     22  O   UNL     1      32.275 -10.803 -23.163  0.00  0.00    -0.505 OA
ATOM     23  H   UNL     1      32.792 -11.028 -23.911  0.00  0.00    +0.292 HD
ENDBRANCH  18  22
TORSDOF 1
ENDMDL
MODEL 9
REMARK VINA RESULT:      -9.4      2.082      4.831
REMARK  Name = 6323454
REMARK  1 active torsions:
REMARK  status: ('A' for Active; 'I' for Inactive)
REMARK    1  A    between atoms: C_18  and  O_22
REMARK                            x       y       z     vdW  Elec       q    Type
REMARK                         _______ _______ _______ _____ _____    ______ ____
ROOT
ATOM      1  O   UNL     1      35.903 -22.338 -16.419  0.00  0.00    -0.350 OA
ATOM      2  O   UNL     1      35.959 -24.614 -13.724  0.00  0.00    -0.445 OA
ATOM      3  O   UNL     1      33.334 -24.658 -12.777  0.00  0.00    -0.287 OA
ATOM      4  O   UNL     1      38.148 -25.258 -13.393  0.00  0.00    -0.250 OA
ATOM      5  O   UNL     1      31.725 -22.356 -17.308  0.00  0.00    -0.287 OA
ATOM      6  C   UNL     1      36.212 -23.519 -15.709  0.00  0.00    +0.171 C 
ATOM      7  C   UNL     1      35.387 -23.531 -14.447  0.00  0.00    +0.221 C 
ATOM      8  C   UNL     1      33.938 -23.614 -14.816  0.00  0.00    +0.060 C 
ATOM      9  C   UNL     1      34.544 -22.380 -16.931  0.00  0.00    +0.141 C 
ATOM     10  C   UNL     1      33.546 -23.049 -15.975  0.00  0.00    +0.046 C 
ATOM     11  C   UNL     1      37.596 -23.632 -15.121  0.00  0.00    +0.143 C 
ATOM     12  C   UNL     1      37.314 -24.596 -13.990  0.00  0.00    +0.320 C 
ATOM     13  C   UNL     1      32.979 -24.232 -13.869  0.00  0.00    +0.195 C 
ATOM     14  C   UNL     1      32.101 -22.999 -16.336  0.00  0.00    +0.197 C 
ATOM     15  C   UNL     1      34.591 -23.048 -18.308  0.00  0.00    +0.037 C 
ATOM     16  C   UNL     1      31.567 -24.315 -14.286  0.00  0.00    +0.045 C 
ATOM     17  C   UNL     1      31.146 -23.721 -15.475  0.00  0.00    +0.075 C 
ATOM     18  C   UNL     1      29.800 -23.799 -15.853  0.00  0.00    +0.137 C 
ATOM     19  C   UNL     1      30.646 -24.986 -13.473  0.00  0.00    +0.003 C 
ATOM     20  C   UNL     1      28.884 -24.471 -15.043  0.00  0.00    +0.037 C 
ATOM     21  C   UNL     1      29.306 -25.063 -13.855  0.00  0.00    +0.003 C 
ENDROOT
BRANCH  18  22
ATOM     22  O   UNL     1      29.322 -23.247 -17.005  0.00  0.00    -0.505 OA
ATOM     23  H   UNL     1      29.774 -22.528 -17.401  0.00  0.00    +0.292 HD
ENDBRANCH  18  22
TORSDOF 1
ENDMDL
