MODEL 1
REMARK VINA RESULT:     -11.3      0.000      0.000
REMARK  Name = 24963036
REMARK  7 active torsions:
REMARK  status: ('A' for Active; 'I' for Inactive)
REMARK    1  A    between atoms: N_2  and  C_20
REMARK    2  A    between atoms: C_3  and  C_7
REMARK    3  A    between atoms: C_11  and  C_12
REMARK    4  A    between atoms: C_12  and  O_13
REMARK    5  A    between atoms: O_13  and  C_14
REMARK    6  A    between atoms: C_20  and  C_21
REMARK    7  A    between atoms: C_26  and  C_29
REMARK                            x       y       z     vdW  Elec       q    Type
REMARK                         _______ _______ _______ _____ _____    ______ ____
ROOT
ATOM      1  O   UNL     1      32.290 -25.058 -13.102  0.00  0.00    -0.273 OA
ATOM      2  N   UNL     1      34.192 -23.736 -12.864  0.00  0.00    -0.299 N 
ATOM      3  C   UNL     1      32.921 -24.028 -13.328  0.00  0.00    +0.241 C 
ATOM      4  H   UNL     1      34.595 -22.873 -13.114  0.00  0.00    +0.150 HD
ENDROOT
BRANCH   3   7
ATOM      5  O   UNL     1      34.732 -22.901 -15.749  0.00  0.00    -0.272 OA
ATOM      6  N   UNL     1      32.462 -23.305 -15.548  0.00  0.00    -0.271 N 
ATOM      7  C   UNL     1      32.346 -22.914 -14.150  0.00  0.00    +0.152 C 
ATOM      8  C   UNL     1      30.848 -22.752 -13.916  0.00  0.00    +0.031 C 
ATOM      9  C   UNL     1      30.227 -23.732 -14.908  0.00  0.00    +0.024 C 
ATOM     10  C   UNL     1      31.158 -23.651 -16.108  0.00  0.00    +0.094 C 
ATOM     11  C   UNL     1      33.648 -23.196 -16.256  0.00  0.00    +0.256 C 
BRANCH  11  12
ATOM     12  C   UNL     1      33.551 -23.476 -17.735  0.00  0.00    +0.227 C 
BRANCH  12  13
ATOM     13  O   UNL     1      33.033 -22.314 -18.332  0.00  0.00    -0.347 OA
BRANCH  13  14
ATOM     14  C   UNL     1      33.833 -21.870 -19.422  0.00  0.00    +0.116 C 
ATOM     15  C   UNL     1      33.251 -20.577 -19.993  0.00  0.00    +0.030 C 
ATOM     16  C   UNL     1      35.276 -21.680 -18.956  0.00  0.00    +0.030 C 
ATOM     17  C   UNL     1      34.129 -20.008 -21.103  0.00  0.00    +0.002 C 
ATOM     18  C   UNL     1      36.154 -21.111 -20.067  0.00  0.00    +0.002 C 
ATOM     19  C   UNL     1      35.571 -19.821 -20.638  0.00  0.00    +0.000 C 
ENDBRANCH  13  14
ENDBRANCH  12  13
ENDBRANCH  11  12
ENDBRANCH   3   7
BRANCH   2  20
ATOM     20  C   UNL     1      34.955 -24.637 -12.031  0.00  0.00    +0.116 C 
BRANCH  20  21
ATOM     21  C   UNL     1      36.268 -25.006 -12.659  0.00  0.00    -0.003 C 
ATOM     22  C   UNL     1      36.319 -25.366 -14.006  0.00  0.00    -0.003 C 
ATOM     23  C   UNL     1      37.435 -24.992 -11.896  0.00  0.00    -0.003 C 
ATOM     24  C   UNL     1      37.539 -25.710 -14.590  0.00  0.00    +0.002 C 
ATOM     25  C   UNL     1      38.654 -25.336 -12.480  0.00  0.00    +0.002 C 
ATOM     26  C   UNL     1      38.706 -25.695 -13.826  0.00  0.00    +0.031 C 
BRANCH  26  29
ATOM     27  N   UNL     1      40.958 -26.735 -13.716  0.00  0.00    -0.343 N 
ATOM     28  N   UNL     1      40.219 -25.733 -15.693  0.00  0.00    -0.285 NA
ATOM     29  C   UNL     1      39.977 -26.055 -14.435  0.00  0.00    +0.117 C 
ATOM     30  H   UNL     1      41.812 -26.970 -14.148  0.00  0.00    +0.144 HD
ATOM     31  H   UNL     1      40.798 -26.981 -12.776  0.00  0.00    +0.144 HD
ATOM     32  H   UNL     1      41.078 -25.976 -16.107  0.00  0.00    +0.188 HD
ENDBRANCH  26  29
ENDBRANCH  20  21
ENDBRANCH   2  20
TORSDOF 7
ENDMDL
MODEL 2
REMARK VINA RESULT:     -10.6      2.132      6.504
REMARK  Name = 24963036
REMARK  7 active torsions:
REMARK  status: ('A' for Active; 'I' for Inactive)
REMARK    1  A    between atoms: N_2  and  C_20
REMARK    2  A    between atoms: C_3  and  C_7
REMARK    3  A    between atoms: C_11  and  C_12
REMARK    4  A    between atoms: C_12  and  O_13
REMARK    5  A    between atoms: O_13  and  C_14
REMARK    6  A    between atoms: C_20  and  C_21
REMARK    7  A    between atoms: C_26  and  C_29
REMARK                            x       y       z     vdW  Elec       q    Type
REMARK                         _______ _______ _______ _____ _____    ______ ____
ROOT
ATOM      1  O   UNL     1      34.827 -24.127 -12.155  0.00  0.00    -0.273 OA
ATOM      2  N   UNL     1      33.321 -25.069 -13.659  0.00  0.00    -0.299 N 
ATOM      3  C   UNL     1      34.577 -24.693 -13.216  0.00  0.00    +0.241 C 
ATOM      4  H   UNL     1      33.247 -25.518 -14.532  0.00  0.00    +0.150 HD
ENDROOT
BRANCH   3   7
ATOM      5  O   UNL     1      34.195 -23.788 -16.289  0.00  0.00    -0.272 OA
ATOM      6  N   UNL     1      36.043 -23.871 -14.899  0.00  0.00    -0.271 N 
ATOM      7  C   UNL     1      35.658 -25.078 -14.181  0.00  0.00    +0.152 C 
ATOM      8  C   UNL     1      36.926 -25.522 -13.461  0.00  0.00    +0.031 C 
ATOM      9  C   UNL     1      37.677 -24.214 -13.226  0.00  0.00    +0.024 C 
ATOM     10  C   UNL     1      37.357 -23.398 -14.469  0.00  0.00    +0.094 C 
ATOM     11  C   UNL     1      35.302 -23.363 -15.955  0.00  0.00    +0.256 C 
BRANCH  11  12
ATOM     12  C   UNL     1      35.933 -22.213 -16.699  0.00  0.00    +0.227 C 
BRANCH  12  13
ATOM     13  O   UNL     1      35.741 -22.466 -18.069  0.00  0.00    -0.347 OA
BRANCH  13  14
ATOM     14  C   UNL     1      35.181 -21.347 -18.746  0.00  0.00    +0.116 C 
ATOM     15  C   UNL     1      36.080 -20.954 -19.918  0.00  0.00    +0.030 C 
ATOM     16  C   UNL     1      33.766 -21.685 -19.213  0.00  0.00    +0.030 C 
ATOM     17  C   UNL     1      35.473 -19.819 -20.737  0.00  0.00    +0.002 C 
ATOM     18  C   UNL     1      33.158 -20.550 -20.031  0.00  0.00    +0.002 C 
ATOM     19  C   UNL     1      34.057 -20.156 -21.200  0.00  0.00    +0.000 C 
ENDBRANCH  13  14
ENDBRANCH  12  13
ENDBRANCH  11  12
ENDBRANCH   3   7
BRANCH   2  20
ATOM     20  C   UNL     1      32.112 -24.833 -12.902  0.00  0.00    +0.116 C 
BRANCH  20  21
ATOM     21  C   UNL     1      30.983 -24.370 -13.777  0.00  0.00    -0.003 C 
ATOM     22  C   UNL     1      30.039 -25.288 -14.240  0.00  0.00    -0.003 C 
ATOM     23  C   UNL     1      30.878 -23.025 -14.128  0.00  0.00    -0.003 C 
ATOM     24  C   UNL     1      28.990 -24.859 -15.053  0.00  0.00    +0.002 C 
ATOM     25  C   UNL     1      29.830 -22.596 -14.941  0.00  0.00    +0.002 C 
ATOM     26  C   UNL     1      28.886 -23.512 -15.404  0.00  0.00    +0.031 C 
BRANCH  26  29
ATOM     27  N   UNL     1      26.792 -22.227 -15.765  0.00  0.00    -0.343 N 
ATOM     28  N   UNL     1      27.734 -23.458 -17.513  0.00  0.00    -0.285 NA
ATOM     29  C   UNL     1      27.793 -23.065 -16.253  0.00  0.00    +0.117 C 
ATOM     30  H   UNL     1      26.061 -21.936 -16.357  0.00  0.00    +0.144 HD
ATOM     31  H   UNL     1      26.816 -21.926 -14.827  0.00  0.00    +0.144 HD
ATOM     32  H   UNL     1      26.996 -23.156 -18.089  0.00  0.00    +0.188 HD
ENDBRANCH  26  29
ENDBRANCH  20  21
ENDBRANCH   2  20
TORSDOF 7
ENDMDL
MODEL 3
REMARK VINA RESULT:     -10.3      7.200     11.063
REMARK  Name = 24963036
REMARK  7 active torsions:
REMARK  status: ('A' for Active; 'I' for Inactive)
REMARK    1  A    between atoms: N_2  and  C_20
REMARK    2  A    between atoms: C_3  and  C_7
REMARK    3  A    between atoms: C_11  and  C_12
REMARK    4  A    between atoms: C_12  and  O_13
REMARK    5  A    between atoms: O_13  and  C_14
REMARK    6  A    between atoms: C_20  and  C_21
REMARK    7  A    between atoms: C_26  and  C_29
REMARK                            x       y       z     vdW  Elec       q    Type
REMARK                         _______ _______ _______ _____ _____    ______ ____
ROOT
ATOM      1  O   UNL     1      35.982 -15.450 -23.633  0.00  0.00    -0.273 OA
ATOM      2  N   UNL     1      34.892 -17.157 -22.485  0.00  0.00    -0.299 N 
ATOM      3  C   UNL     1      34.957 -15.980 -23.211  0.00  0.00    +0.241 C 
ATOM      4  H   UNL     1      34.008 -17.484 -22.201  0.00  0.00    +0.150 HD
ENDROOT
BRANCH   3   7
ATOM      5  O   UNL     1      33.113 -15.357 -20.638  0.00  0.00    -0.272 OA
ATOM      6  N   UNL     1      33.472 -14.218 -22.621  0.00  0.00    -0.271 N 
ATOM      7  C   UNL     1      33.601 -15.396 -23.469  0.00  0.00    +0.152 C 
ATOM      8  C   UNL     1      33.474 -14.865 -24.892  0.00  0.00    +0.031 C 
ATOM      9  C   UNL     1      34.009 -13.439 -24.787  0.00  0.00    +0.024 C 
ATOM     10  C   UNL     1      33.543 -12.991 -23.410  0.00  0.00    +0.094 C 
ATOM     11  C   UNL     1      33.164 -14.301 -21.272  0.00  0.00    +0.256 C 
BRANCH  11  12
ATOM     12  C   UNL     1      32.894 -12.986 -20.585  0.00  0.00    +0.227 C 
BRANCH  12  13
ATOM     13  O   UNL     1      31.565 -12.640 -20.885  0.00  0.00    -0.347 OA
BRANCH  13  14
ATOM     14  C   UNL     1      31.304 -11.262 -20.649  0.00  0.00    +0.116 C 
ATOM     15  C   UNL     1      31.860 -10.861 -19.283  0.00  0.00    +0.030 C 
ATOM     16  C   UNL     1      31.915 -10.424 -21.772  0.00  0.00    +0.030 C 
ATOM     17  C   UNL     1      31.692  -9.367 -19.023  0.00  0.00    +0.002 C 
ATOM     18  C   UNL     1      31.746  -8.930 -21.513  0.00  0.00    +0.002 C 
ATOM     19  C   UNL     1      32.300  -8.531 -20.147  0.00  0.00    +0.000 C 
ENDBRANCH  13  14
ENDBRANCH  12  13
ENDBRANCH  11  12
ENDBRANCH   3   7
BRANCH   2  20
ATOM     20  C   UNL     1      36.060 -17.929 -22.125  0.00  0.00    +0.116 C 
BRANCH  20  21
ATOM     21  C   UNL     1      35.714 -19.087 -21.235  0.00  0.00    -0.003 C 
ATOM     22  C   UNL     1      34.380 -19.457 -21.058  0.00  0.00    -0.003 C 
ATOM     23  C   UNL     1      36.725 -19.793 -20.583  0.00  0.00    -0.003 C 
ATOM     24  C   UNL     1      34.058 -20.532 -20.229  0.00  0.00    +0.002 C 
ATOM     25  C   UNL     1      36.404 -20.868 -19.755  0.00  0.00    +0.002 C 
ATOM     26  C   UNL     1      35.071 -21.238 -19.578  0.00  0.00    +0.031 C 
BRANCH  26  29
ATOM     27  N   UNL     1      35.358 -22.535 -17.480  0.00  0.00    -0.343 N 
ATOM     28  N   UNL     1      33.825 -23.236 -19.097  0.00  0.00    -0.285 NA
ATOM     29  C   UNL     1      34.735 -22.358 -18.714  0.00  0.00    +0.117 C 
ATOM     30  H   UNL     1      35.115 -23.301 -16.911  0.00  0.00    +0.144 HD
ATOM     31  H   UNL     1      36.042 -21.894 -17.178  0.00  0.00    +0.144 HD
ATOM     32  H   UNL     1      33.596 -23.994 -18.514  0.00  0.00    +0.188 HD
ENDBRANCH  26  29
ENDBRANCH  20  21
ENDBRANCH   2  20
TORSDOF 7
ENDMDL
MODEL 4
REMARK VINA RESULT:     -10.3      7.706     11.086
REMARK  Name = 24963036
REMARK  7 active torsions:
REMARK  status: ('A' for Active; 'I' for Inactive)
REMARK    1  A    between atoms: N_2  and  C_20
REMARK    2  A    between atoms: C_3  and  C_7
REMARK    3  A    between atoms: C_11  and  C_12
REMARK    4  A    between atoms: C_12  and  O_13
REMARK    5  A    between atoms: O_13  and  C_14
REMARK    6  A    between atoms: C_20  and  C_21
REMARK    7  A    between atoms: C_26  and  C_29
REMARK                            x       y       z     vdW  Elec       q    Type
REMARK                         _______ _______ _______ _____ _____    ______ ____
ROOT
ATOM      1  O   UNL     1      34.188 -16.092 -23.285  0.00  0.00    -0.273 OA
ATOM      2  N   UNL     1      35.009 -17.250 -21.440  0.00  0.00    -0.299 N 
ATOM      3  C   UNL     1      34.571 -16.126 -22.118  0.00  0.00    +0.241 C 
ATOM      4  H   UNL     1      35.292 -17.151 -20.502  0.00  0.00    +0.150 HD
ENDROOT
BRANCH   3   7
ATOM      5  O   UNL     1      35.164 -13.308 -23.574  0.00  0.00    -0.272 OA
ATOM      6  N   UNL     1      33.707 -13.922 -21.884  0.00  0.00    -0.271 N 
ATOM      7  C   UNL     1      34.583 -14.901 -21.255  0.00  0.00    +0.152 C 
ATOM      8  C   UNL     1      33.955 -15.163 -19.891  0.00  0.00    +0.031 C 
ATOM      9  C   UNL     1      32.468 -14.913 -20.131  0.00  0.00    +0.024 C 
ATOM     10  C   UNL     1      32.464 -13.768 -21.132  0.00  0.00    +0.094 C 
ATOM     11  C   UNL     1      34.106 -13.148 -22.962  0.00  0.00    +0.256 C 
BRANCH  11  12
ATOM     12  C   UNL     1      33.143 -12.065 -23.378  0.00  0.00    +0.227 C 
BRANCH  12  13
ATOM     13  O   UNL     1      33.888 -11.122 -24.108  0.00  0.00    -0.347 OA
BRANCH  13  14
ATOM     14  C   UNL     1      34.145  -9.943 -23.354  0.00  0.00    +0.116 C 
ATOM     15  C   UNL     1      35.073  -9.022 -24.144  0.00  0.00    +0.030 C 
ATOM     16  C   UNL     1      32.825  -9.254 -23.013  0.00  0.00    +0.030 C 
ATOM     17  C   UNL     1      35.302  -7.699 -23.419  0.00  0.00    +0.002 C 
ATOM     18  C   UNL     1      33.053  -7.931 -22.288  0.00  0.00    +0.002 C 
ATOM     19  C   UNL     1      33.983  -7.011 -23.076  0.00  0.00    +0.000 C 
ENDBRANCH  13  14
ENDBRANCH  12  13
ENDBRANCH  11  12
ENDBRANCH   3   7
BRANCH   2  20
ATOM     20  C   UNL     1      35.071 -18.563 -22.042  0.00  0.00    +0.116 C 
BRANCH  20  21
ATOM     21  C   UNL     1      34.930 -19.656 -21.023  0.00  0.00    -0.003 C 
ATOM     22  C   UNL     1      33.662 -20.070 -20.616  0.00  0.00    -0.003 C 
ATOM     23  C   UNL     1      36.067 -20.255 -20.481  0.00  0.00    -0.003 C 
ATOM     24  C   UNL     1      33.530 -21.085 -19.667  0.00  0.00    +0.002 C 
ATOM     25  C   UNL     1      35.936 -21.270 -19.533  0.00  0.00    +0.002 C 
ATOM     26  C   UNL     1      34.668 -21.685 -19.126  0.00  0.00    +0.031 C 
BRANCH  26  29
ATOM     27  N   UNL     1      35.344 -22.786 -17.006  0.00  0.00    -0.343 N 
ATOM     28  N   UNL     1      33.624 -23.687 -18.305  0.00  0.00    -0.285 NA
ATOM     29  C   UNL     1      34.531 -22.742 -18.137  0.00  0.00    +0.117 C 
ATOM     30  H   UNL     1      35.234 -23.511 -16.348  0.00  0.00    +0.144 HD
ATOM     31  H   UNL     1      36.028 -22.092 -16.864  0.00  0.00    +0.144 HD
ATOM     32  H   UNL     1      33.530 -24.403 -17.637  0.00  0.00    +0.188 HD
ENDBRANCH  26  29
ENDBRANCH  20  21
ENDBRANCH   2  20
TORSDOF 7
ENDMDL
MODEL 5
REMARK VINA RESULT:     -10.1      8.958     13.964
REMARK  Name = 24963036
REMARK  7 active torsions:
REMARK  status: ('A' for Active; 'I' for Inactive)
REMARK    1  A    between atoms: N_2  and  C_20
REMARK    2  A    between atoms: C_3  and  C_7
REMARK    3  A    between atoms: C_11  and  C_12
REMARK    4  A    between atoms: C_12  and  O_13
REMARK    5  A    between atoms: O_13  and  C_14
REMARK    6  A    between atoms: C_20  and  C_21
REMARK    7  A    between atoms: C_26  and  C_29
REMARK                            x       y       z     vdW  Elec       q    Type
REMARK                         _______ _______ _______ _____ _____    ______ ____
ROOT
ATOM      1  O   UNL     1      32.594 -14.971 -20.851  0.00  0.00    -0.273 OA
ATOM      2  N   UNL     1      32.956 -12.741 -21.410  0.00  0.00    -0.299 N 
ATOM      3  C   UNL     1      33.260 -14.091 -21.391  0.00  0.00    +0.241 C 
ATOM      4  H   UNL     1      33.569 -12.129 -21.878  0.00  0.00    +0.150 HD
ENDROOT
BRANCH   3   7
ATOM      5  O   UNL     1      35.071 -16.522 -20.288  0.00  0.00    -0.272 OA
ATOM      6  N   UNL     1      34.511 -15.830 -22.424  0.00  0.00    -0.271 N 
ATOM      7  C   UNL     1      34.518 -14.401 -22.144  0.00  0.00    +0.152 C 
ATOM      8  C   UNL     1      34.535 -13.737 -23.516  0.00  0.00    +0.031 C 
ATOM      9  C   UNL     1      33.817 -14.748 -24.408  0.00  0.00    +0.024 C 
ATOM     10  C   UNL     1      34.255 -16.089 -23.839  0.00  0.00    +0.094 C 
ATOM     11  C   UNL     1      34.863 -16.778 -21.475  0.00  0.00    +0.256 C 
BRANCH  11  12
ATOM     12  C   UNL     1      34.972 -18.194 -21.980  0.00  0.00    +0.227 C 
BRANCH  12  13
ATOM     13  O   UNL     1      35.759 -18.894 -21.047  0.00  0.00    -0.347 OA
BRANCH  13  14
ATOM     14  C   UNL     1      35.207 -20.167 -20.730  0.00  0.00    +0.116 C 
ATOM     15  C   UNL     1      36.060 -20.842 -19.657  0.00  0.00    +0.030 C 
ATOM     16  C   UNL     1      33.759 -20.000 -20.274  0.00  0.00    +0.030 C 
ATOM     17  C   UNL     1      35.456 -22.171 -19.212  0.00  0.00    +0.002 C 
ATOM     18  C   UNL     1      33.153 -21.328 -19.830  0.00  0.00    +0.002 C 
ATOM     19  C   UNL     1      34.007 -22.004 -18.759  0.00  0.00    +0.000 C 
ENDBRANCH  13  14
ENDBRANCH  12  13
ENDBRANCH  11  12
ENDBRANCH   3   7
BRANCH   2  20
ATOM     20  C   UNL     1      31.782 -12.185 -20.776  0.00  0.00    +0.116 C 
BRANCH  20  21
ATOM     21  C   UNL     1      31.767 -10.686 -20.837  0.00  0.00    -0.003 C 
ATOM     22  C   UNL     1      31.563 -10.040 -22.056  0.00  0.00    -0.003 C 
ATOM     23  C   UNL     1      31.960  -9.938 -19.675  0.00  0.00    -0.003 C 
ATOM     24  C   UNL     1      31.550  -8.645 -22.114  0.00  0.00    +0.002 C 
ATOM     25  C   UNL     1      31.946  -8.544 -19.732  0.00  0.00    +0.002 C 
ATOM     26  C   UNL     1      31.742  -7.898 -20.951  0.00  0.00    +0.031 C 
BRANCH  26  29
ATOM     27  N   UNL     1      30.890  -5.763 -21.890  0.00  0.00    -0.343 N 
ATOM     28  N   UNL     1      32.527  -5.747 -20.224  0.00  0.00    -0.285 NA
ATOM     29  C   UNL     1      31.729  -6.445 -21.011  0.00  0.00    +0.117 C 
ATOM     30  H   UNL     1      30.897  -4.779 -21.914  0.00  0.00    +0.144 HD
ATOM     31  H   UNL     1      30.290  -6.266 -22.488  0.00  0.00    +0.144 HD
ATOM     32  H   UNL     1      32.520  -4.764 -20.262  0.00  0.00    +0.188 HD
ENDBRANCH  26  29
ENDBRANCH  20  21
ENDBRANCH   2  20
TORSDOF 7
ENDMDL
MODEL 6
REMARK VINA RESULT:     -10.1     10.014     15.206
REMARK  Name = 24963036
REMARK  7 active torsions:
REMARK  status: ('A' for Active; 'I' for Inactive)
REMARK    1  A    between atoms: N_2  and  C_20
REMARK    2  A    between atoms: C_3  and  C_7
REMARK    3  A    between atoms: C_11  and  C_12
REMARK    4  A    between atoms: C_12  and  O_13
REMARK    5  A    between atoms: O_13  and  C_14
REMARK    6  A    between atoms: C_20  and  C_21
REMARK    7  A    between atoms: C_26  and  C_29
REMARK                            x       y       z     vdW  Elec       q    Type
REMARK                         _______ _______ _______ _____ _____    ______ ____
ROOT
ATOM      1  O   UNL     1      33.773 -12.888 -25.619  0.00  0.00    -0.273 OA
ATOM      2  N   UNL     1      34.135 -11.810 -23.588  0.00  0.00    -0.299 N 
ATOM      3  C   UNL     1      33.679 -12.838 -24.395  0.00  0.00    +0.241 C 
ATOM      4  H   UNL     1      34.002 -11.885 -22.615  0.00  0.00    +0.150 HD
ENDROOT
BRANCH   3   7
ATOM      5  O   UNL     1      34.249 -15.852 -25.393  0.00  0.00    -0.272 OA
ATOM      6  N   UNL     1      34.113 -14.899 -23.289  0.00  0.00    -0.271 N 
ATOM      7  C   UNL     1      33.056 -13.948 -23.605  0.00  0.00    +0.152 C 
ATOM      8  C   UNL     1      32.552 -13.465 -22.250  0.00  0.00    +0.031 C 
ATOM      9  C   UNL     1      33.780 -13.587 -21.351  0.00  0.00    +0.024 C 
ATOM     10  C   UNL     1      34.473 -14.836 -21.875  0.00  0.00    +0.094 C 
ATOM     11  C   UNL     1      34.576 -15.831 -24.205  0.00  0.00    +0.256 C 
BRANCH  11  12
ATOM     12  C   UNL     1      35.545 -16.850 -23.663  0.00  0.00    +0.227 C 
BRANCH  12  13
ATOM     13  O   UNL     1      34.779 -17.960 -23.261  0.00  0.00    -0.347 OA
BRANCH  13  14
ATOM     14  C   UNL     1      35.156 -18.432 -21.973  0.00  0.00    +0.116 C 
ATOM     15  C   UNL     1      34.451 -19.757 -21.686  0.00  0.00    +0.030 C 
ATOM     16  C   UNL     1      36.675 -18.577 -21.904  0.00  0.00    +0.030 C 
ATOM     17  C   UNL     1      34.896 -20.355 -20.355  0.00  0.00    +0.002 C 
ATOM     18  C   UNL     1      37.122 -19.174 -20.572  0.00  0.00    +0.002 C 
ATOM     19  C   UNL     1      36.415 -20.497 -20.285  0.00  0.00    +0.000 C 
ENDBRANCH  13  14
ENDBRANCH  12  13
ENDBRANCH  11  12
ENDBRANCH   3   7
BRANCH   2  20
ATOM     20  C   UNL     1      34.796 -10.633 -24.104  0.00  0.00    +0.116 C 
BRANCH  20  21
ATOM     21  C   UNL     1      34.179  -9.368 -23.580  0.00  0.00    -0.003 C 
ATOM     22  C   UNL     1      32.876  -9.383 -23.082  0.00  0.00    -0.003 C 
ATOM     23  C   UNL     1      34.907  -8.179 -23.595  0.00  0.00    -0.003 C 
ATOM     24  C   UNL     1      32.302  -8.207 -22.597  0.00  0.00    +0.002 C 
ATOM     25  C   UNL     1      34.333  -7.004 -23.109  0.00  0.00    +0.002 C 
ATOM     26  C   UNL     1      33.031  -7.017 -22.611  0.00  0.00    +0.031 C 
BRANCH  26  29
ATOM     27  N   UNL     1      31.958  -4.808 -22.970  0.00  0.00    -0.343 N 
ATOM     28  N   UNL     1      32.334  -5.596 -20.803  0.00  0.00    -0.285 NA
ATOM     29  C   UNL     1      32.433  -5.793 -22.106  0.00  0.00    +0.117 C 
ATOM     30  H   UNL     1      31.555  -3.986 -22.606  0.00  0.00    +0.144 HD
ATOM     31  H   UNL     1      32.025  -4.934 -23.944  0.00  0.00    +0.144 HD
ATOM     32  H   UNL     1      31.929  -4.768 -20.459  0.00  0.00    +0.188 HD
ENDBRANCH  26  29
ENDBRANCH  20  21
ENDBRANCH   2  20
TORSDOF 7
ENDMDL
MODEL 7
REMARK VINA RESULT:     -10.0      5.083      8.278
REMARK  Name = 24963036
REMARK  7 active torsions:
REMARK  status: ('A' for Active; 'I' for Inactive)
REMARK    1  A    between atoms: N_2  and  C_20
REMARK    2  A    between atoms: C_3  and  C_7
REMARK    3  A    between atoms: C_11  and  C_12
REMARK    4  A    between atoms: C_12  and  O_13
REMARK    5  A    between atoms: O_13  and  C_14
REMARK    6  A    between atoms: C_20  and  C_21
REMARK    7  A    between atoms: C_26  and  C_29
REMARK                            x       y       z     vdW  Elec       q    Type
REMARK                         _______ _______ _______ _____ _____    ______ ____
ROOT
ATOM      1  O   UNL     1      36.797 -18.543 -20.588  0.00  0.00    -0.273 OA
ATOM      2  N   UNL     1      35.699 -20.540 -20.109  0.00  0.00    -0.299 N 
ATOM      3  C   UNL     1      35.827 -19.291 -20.692  0.00  0.00    +0.241 C 
ATOM      4  H   UNL     1      34.871 -21.047 -20.267  0.00  0.00    +0.150 HD
ENDROOT
BRANCH   3   7
ATOM      5  O   UNL     1      34.525 -16.382 -20.189  0.00  0.00    -0.272 OA
ATOM      6  N   UNL     1      34.901 -17.620 -22.109  0.00  0.00    -0.271 N 
ATOM      7  C   UNL     1      34.633 -18.925 -21.521  0.00  0.00    +0.152 C 
ATOM      8  C   UNL     1      34.464 -19.860 -22.713  0.00  0.00    +0.031 C 
ATOM      9  C   UNL     1      35.338 -19.223 -23.790  0.00  0.00    +0.024 C 
ATOM     10  C   UNL     1      35.170 -17.732 -23.540  0.00  0.00    +0.094 C 
ATOM     11  C   UNL     1      34.752 -16.438 -21.399  0.00  0.00    +0.256 C 
BRANCH  11  12
ATOM     12  C   UNL     1      34.898 -15.173 -22.206  0.00  0.00    +0.227 C 
BRANCH  12  13
ATOM     13  O   UNL     1      33.700 -14.454 -22.048  0.00  0.00    -0.347 OA
BRANCH  13  14
ATOM     14  C   UNL     1      33.313 -13.790 -23.245  0.00  0.00    +0.116 C 
ATOM     15  C   UNL     1      34.169 -12.539 -23.438  0.00  0.00    +0.030 C 
ATOM     16  C   UNL     1      33.442 -14.747 -24.428  0.00  0.00    +0.030 C 
ATOM     17  C   UNL     1      33.859 -11.843 -24.759  0.00  0.00    +0.002 C 
ATOM     18  C   UNL     1      33.131 -14.052 -25.750  0.00  0.00    +0.002 C 
ATOM     19  C   UNL     1      33.985 -12.801 -25.941  0.00  0.00    +0.000 C 
ENDBRANCH  13  14
ENDBRANCH  12  13
ENDBRANCH  11  12
ENDBRANCH   3   7
BRANCH   2  20
ATOM     20  C   UNL     1      36.723 -21.134 -19.280  0.00  0.00    +0.116 C 
BRANCH  20  21
ATOM     21  C   UNL     1      36.142 -21.841 -18.090  0.00  0.00    -0.003 C 
ATOM     22  C   UNL     1      34.830 -22.313 -18.132  0.00  0.00    -0.003 C 
ATOM     23  C   UNL     1      36.912 -22.023 -16.941  0.00  0.00    -0.003 C 
ATOM     24  C   UNL     1      34.288 -22.968 -17.025  0.00  0.00    +0.002 C 
ATOM     25  C   UNL     1      36.371 -22.678 -15.835  0.00  0.00    +0.002 C 
ATOM     26  C   UNL     1      35.060 -23.151 -15.877  0.00  0.00    +0.031 C 
BRANCH  26  29
ATOM     27  N   UNL     1      34.986 -25.067 -14.300  0.00  0.00    -0.343 N 
ATOM     28  N   UNL     1      33.495 -23.285 -14.058  0.00  0.00    -0.285 NA
ATOM     29  C   UNL     1      34.496 -23.833 -14.724  0.00  0.00    +0.117 C 
ATOM     30  H   UNL     1      34.589 -25.512 -13.516  0.00  0.00    +0.144 HD
ATOM     31  H   UNL     1      35.729 -25.494 -14.785  0.00  0.00    +0.144 HD
ATOM     32  H   UNL     1      33.112 -23.744 -13.277  0.00  0.00    +0.188 HD
ENDBRANCH  26  29
ENDBRANCH  20  21
ENDBRANCH   2  20
TORSDOF 7
ENDMDL
MODEL 8
REMARK VINA RESULT:     -10.0      2.493      7.224
REMARK  Name = 24963036
REMARK  7 active torsions:
REMARK  status: ('A' for Active; 'I' for Inactive)
REMARK    1  A    between atoms: N_2  and  C_20
REMARK    2  A    between atoms: C_3  and  C_7
REMARK    3  A    between atoms: C_11  and  C_12
REMARK    4  A    between atoms: C_12  and  O_13
REMARK    5  A    between atoms: O_13  and  C_14
REMARK    6  A    between atoms: C_20  and  C_21
REMARK    7  A    between atoms: C_26  and  C_29
REMARK                            x       y       z     vdW  Elec       q    Type
REMARK                         _______ _______ _______ _____ _____    ______ ____
ROOT
ATOM      1  O   UNL     1      38.243 -24.194 -14.652  0.00  0.00    -0.273 OA
ATOM      2  N   UNL     1      37.025 -22.414 -15.528  0.00  0.00    -0.299 N 
ATOM      3  C   UNL     1      37.415 -23.295 -14.534  0.00  0.00    +0.241 C 
ATOM      4  H   UNL     1      36.349 -21.732 -15.311  0.00  0.00    +0.150 HD
ENDROOT
BRANCH   3   7
ATOM      5  O   UNL     1      34.234 -22.766 -14.646  0.00  0.00    -0.272 OA
ATOM      6  N   UNL     1      35.578 -23.925 -13.160  0.00  0.00    -0.271 N 
ATOM      7  C   UNL     1      36.722 -23.026 -13.232  0.00  0.00    +0.152 C 
ATOM      8  C   UNL     1      37.590 -23.406 -12.039  0.00  0.00    +0.031 C 
ATOM      9  C   UNL     1      37.282 -24.888 -11.834  0.00  0.00    +0.024 C 
ATOM     10  C   UNL     1      35.806 -24.989 -12.185  0.00  0.00    +0.094 C 
ATOM     11  C   UNL     1      34.389 -23.676 -13.828  0.00  0.00    +0.256 C 
BRANCH  11  12
ATOM     12  C   UNL     1      33.252 -24.612 -13.505  0.00  0.00    +0.227 C 
BRANCH  12  13
ATOM     13  O   UNL     1      32.331 -23.876 -12.738  0.00  0.00    -0.347 OA
BRANCH  13  14
ATOM     14  C   UNL     1      31.017 -23.933 -13.281  0.00  0.00    +0.116 C 
ATOM     15  C   UNL     1      30.844 -22.826 -14.320  0.00  0.00    +0.030 C 
ATOM     16  C   UNL     1      30.771 -25.314 -13.885  0.00  0.00    +0.030 C 
ATOM     17  C   UNL     1      29.482 -22.904 -15.003  0.00  0.00    +0.002 C 
ATOM     18  C   UNL     1      29.408 -25.394 -14.567  0.00  0.00    +0.002 C 
ATOM     19  C   UNL     1      29.234 -24.286 -15.603  0.00  0.00    +0.000 C 
ENDBRANCH  13  14
ENDBRANCH  12  13
ENDBRANCH  11  12
ENDBRANCH   3   7
BRANCH   2  20
ATOM     20  C   UNL     1      37.563 -22.447 -16.869  0.00  0.00    +0.116 C 
BRANCH  20  21
ATOM     21  C   UNL     1      36.594 -21.901 -17.877  0.00  0.00    -0.003 C 
ATOM     22  C   UNL     1      37.038 -21.025 -18.867  0.00  0.00    -0.003 C 
ATOM     23  C   UNL     1      35.249 -22.268 -17.822  0.00  0.00    -0.003 C 
ATOM     24  C   UNL     1      36.137 -20.516 -19.804  0.00  0.00    +0.002 C 
ATOM     25  C   UNL     1      34.349 -21.760 -18.758  0.00  0.00    +0.002 C 
ATOM     26  C   UNL     1      34.792 -20.884 -19.748  0.00  0.00    +0.031 C 
BRANCH  26  29
ATOM     27  N   UNL     1      32.476 -20.481 -20.548  0.00  0.00    -0.343 N 
ATOM     28  N   UNL     1      34.302 -19.740 -21.803  0.00  0.00    -0.285 NA
ATOM     29  C   UNL     1      33.853 -20.354 -20.723  0.00  0.00    +0.117 C 
ATOM     30  H   UNL     1      31.858 -20.113 -21.221  0.00  0.00    +0.144 HD
ATOM     31  H   UNL     1      32.122 -20.938 -19.751  0.00  0.00    +0.144 HD
ATOM     32  H   UNL     1      33.669 -19.379 -22.464  0.00  0.00    +0.188 HD
ENDBRANCH  26  29
ENDBRANCH  20  21
ENDBRANCH   2  20
TORSDOF 7
ENDMDL
MODEL 9
REMARK VINA RESULT:      -9.9     12.353     17.038
REMARK  Name = 24963036
REMARK  7 active torsions:
REMARK  status: ('A' for Active; 'I' for Inactive)
REMARK    1  A    between atoms: N_2  and  C_20
REMARK    2  A    between atoms: C_3  and  C_7
REMARK    3  A    between atoms: C_11  and  C_12
REMARK    4  A    between atoms: C_12  and  O_13
REMARK    5  A    between atoms: O_13  and  C_14
REMARK    6  A    between atoms: C_20  and  C_21
REMARK    7  A    between atoms: C_26  and  C_29
REMARK                            x       y       z     vdW  Elec       q    Type
REMARK                         _______ _______ _______ _____ _____    ______ ____
ROOT
ATOM      1  O   UNL     1      32.313  -9.179 -20.004  0.00  0.00    -0.273 OA
ATOM      2  N   UNL     1      32.768  -8.605 -22.214  0.00  0.00    -0.299 N 
ATOM      3  C   UNL     1      32.253  -9.407 -21.210  0.00  0.00    +0.241 C 
ATOM      4  H   UNL     1      32.657  -8.895 -23.148  0.00  0.00    +0.150 HD
ENDROOT
BRANCH   3   7
ATOM      5  O   UNL     1      33.649 -10.901 -23.706  0.00  0.00    -0.272 OA
ATOM      6  N   UNL     1      32.555 -11.685 -21.823  0.00  0.00    -0.271 N 
ATOM      7  C   UNL     1      31.562 -10.622 -21.751  0.00  0.00    +0.152 C 
ATOM      8  C   UNL     1      30.502 -11.145 -20.790  0.00  0.00    +0.031 C 
ATOM      9  C   UNL     1      31.288 -12.072 -19.865  0.00  0.00    +0.024 C 
ATOM     10  C   UNL     1      32.324 -12.692 -20.791  0.00  0.00    +0.094 C 
ATOM     11  C   UNL     1      33.482 -11.772 -22.851  0.00  0.00    +0.256 C 
BRANCH  11  12
ATOM     12  C   UNL     1      34.317 -13.027 -22.868  0.00  0.00    +0.227 C 
BRANCH  12  13
ATOM     13  O   UNL     1      33.650 -13.943 -23.701  0.00  0.00    -0.347 OA
BRANCH  13  14
ATOM     14  C   UNL     1      33.855 -15.289 -23.288  0.00  0.00    +0.116 C 
ATOM     15  C   UNL     1      34.653 -16.037 -24.355  0.00  0.00    +0.030 C 
ATOM     16  C   UNL     1      34.568 -15.308 -21.937  0.00  0.00    +0.030 C 
ATOM     17  C   UNL     1      34.983 -17.461 -23.916  0.00  0.00    +0.002 C 
ATOM     18  C   UNL     1      34.897 -16.732 -21.496  0.00  0.00    +0.002 C 
ATOM     19  C   UNL     1      35.692 -17.480 -22.564  0.00  0.00    +0.000 C 
ENDBRANCH  13  14
ENDBRANCH  12  13
ENDBRANCH  11  12
ENDBRANCH   3   7
BRANCH   2  20
ATOM     20  C   UNL     1      33.462  -7.363 -21.956  0.00  0.00    +0.116 C 
BRANCH  20  21
ATOM     21  C   UNL     1      33.731  -6.598 -23.219  0.00  0.00    -0.003 C 
ATOM     22  C   UNL     1      34.971  -6.707 -23.849  0.00  0.00    -0.003 C 
ATOM     23  C   UNL     1      32.743  -5.777 -23.762  0.00  0.00    -0.003 C 
ATOM     24  C   UNL     1      35.222  -5.995 -25.023  0.00  0.00    +0.002 C 
ATOM     25  C   UNL     1      32.994  -5.065 -24.935  0.00  0.00    +0.002 C 
ATOM     26  C   UNL     1      34.233  -5.174 -25.565  0.00  0.00    +0.031 C 
BRANCH  26  29
ATOM     27  N   UNL     1      33.544  -3.570 -27.331  0.00  0.00    -0.343 N 
ATOM     28  N   UNL     1      35.653  -4.571 -27.408  0.00  0.00    -0.285 NA
ATOM     29  C   UNL     1      34.495  -4.432 -26.788  0.00  0.00    +0.117 C 
ATOM     30  H   UNL     1      33.742  -3.076 -28.160  0.00  0.00    +0.144 HD
ATOM     31  H   UNL     1      32.673  -3.455 -26.886  0.00  0.00    +0.144 HD
ATOM     32  H   UNL     1      35.833  -4.069 -28.235  0.00  0.00    +0.188 HD
ENDBRANCH  26  29
ENDBRANCH  20  21
ENDBRANCH   2  20
TORSDOF 7
ENDMDL
