MODEL 1
REMARK VINA RESULT:     -12.6      0.000      0.000
REMARK  Name = 16741238
REMARK  6 active torsions:
REMARK  status: ('A' for Active; 'I' for Inactive)
REMARK    1  A    between atoms: N_1  and  C_22
REMARK    2  A    between atoms: C_10  and  C_15
REMARK    3  A    between atoms: C_15  and  C_16
REMARK    4  A    between atoms: C_22  and  C_23
REMARK    5  A    between atoms: C_23  and  C_26
REMARK    6  A    between atoms: N_25  and  C_28
REMARK                            x       y       z     vdW  Elec       q    Type
REMARK                         _______ _______ _______ _____ _____    ______ ____
ROOT
ATOM      1  N   UNL     1      34.025 -13.969 -24.685  0.00  0.00    -0.249 N 
ATOM      2  N   UNL     1      34.078 -16.085 -25.828  0.00  0.00    -0.373 NA
ATOM      3  N   UNL     1      33.408 -14.177 -26.951  0.00  0.00    -0.321 N 
ATOM      4  C   UNL     1      34.496 -14.513 -23.410  0.00  0.00    +0.071 C 
ATOM      5  C   UNL     1      34.743 -15.994 -23.466  0.00  0.00    +0.045 C 
ATOM      6  C   UNL     1      33.851 -14.794 -25.801  0.00  0.00    +0.239 C 
ATOM      7  C   UNL     1      34.528 -16.708 -24.653  0.00  0.00    +0.136 C 
ATOM      8  C   UNL     1      35.194 -16.666 -22.321  0.00  0.00    +0.007 C 
ATOM      9  C   UNL     1      34.768 -18.088 -24.675  0.00  0.00    +0.032 C 
ATOM     10  C   UNL     1      35.429 -18.040 -22.354  0.00  0.00    +0.039 C 
ATOM     11  C   UNL     1      35.217 -18.751 -23.533  0.00  0.00    +0.006 C 
ATOM     12  H   UNL     1      33.232 -13.208 -26.953  0.00  0.00    +0.146 HD
ATOM     13  H   UNL     1      33.267 -14.706 -27.769  0.00  0.00    +0.146 HD
ENDROOT
BRANCH  10  15
ATOM     14  O   UNL     1      36.972 -18.410 -20.636  0.00  0.00    -0.287 OA
ATOM     15  C   UNL     1      35.895 -18.729 -21.163  0.00  0.00    +0.196 C 
BRANCH  15  16
ATOM     16  C   UNL     1      35.119 -19.833 -20.521  0.00  0.00    +0.039 C 
ATOM     17  C   UNL     1      35.787 -20.859 -19.853  0.00  0.00    +0.003 C 
ATOM     18  C   UNL     1      33.726 -19.837 -20.588  0.00  0.00    +0.003 C 
ATOM     19  C   UNL     1      35.063 -21.888 -19.253  0.00  0.00    +0.000 C 
ATOM     20  C   UNL     1      33.001 -20.867 -19.988  0.00  0.00    +0.000 C 
ATOM     21  C   UNL     1      33.670 -21.893 -19.321  0.00  0.00    +0.000 C 
ENDBRANCH  15  16
ENDBRANCH  10  15
BRANCH   1  22
ATOM     22  C   UNL     1      33.764 -12.533 -24.688  0.00  0.00    +0.109 C 
BRANCH  22  23
ATOM     23  C   UNL     1      33.785 -11.984 -23.265  0.00  0.00    +0.107 C 
BRANCH  23  26
ATOM     24  O   UNL     1      34.590  -9.785 -23.797  0.00  0.00    -0.275 OA
ATOM     25  N   UNL     1      32.727  -9.902 -22.422  0.00  0.00    -0.279 N 
ATOM     26  C   UNL     1      33.751 -10.461 -23.195  0.00  0.00    +0.227 C 
ATOM     27  C   UNL     1      31.743 -10.720 -21.717  0.00  0.00    +0.115 C 
BRANCH  25  28
ATOM     28  C   UNL     1      32.566  -8.477 -22.264  0.00  0.00    +0.075 C 
ATOM     29  C   UNL     1      32.550  -8.100 -20.781  0.00  0.00    +0.020 C 
ATOM     30  C   UNL     1      31.300  -7.992 -22.976  0.00  0.00    +0.020 C 
ATOM     31  C   UNL     1      32.327  -6.603 -20.582  0.00  0.00    +0.002 C 
ATOM     32  C   UNL     1      31.080  -6.495 -22.776  0.00  0.00    +0.002 C 
ATOM     33  C   UNL     1      31.067  -6.122 -21.296  0.00  0.00    +0.000 C 
ENDBRANCH  25  28
ENDBRANCH  23  26
ENDBRANCH  22  23
ENDBRANCH   1  22
TORSDOF 6
ENDMDL
MODEL 2
REMARK VINA RESULT:     -12.5      0.499      1.350
REMARK  Name = 16741238
REMARK  6 active torsions:
REMARK  status: ('A' for Active; 'I' for Inactive)
REMARK    1  A    between atoms: N_1  and  C_22
REMARK    2  A    between atoms: C_10  and  C_15
REMARK    3  A    between atoms: C_15  and  C_16
REMARK    4  A    between atoms: C_22  and  C_23
REMARK    5  A    between atoms: C_23  and  C_26
REMARK    6  A    between atoms: N_25  and  C_28
REMARK                            x       y       z     vdW  Elec       q    Type
REMARK                         _______ _______ _______ _____ _____    ______ ____
ROOT
ATOM      1  N   UNL     1      34.099 -13.847 -24.375  0.00  0.00    -0.249 N 
ATOM      2  N   UNL     1      34.075 -15.896 -25.634  0.00  0.00    -0.373 NA
ATOM      3  N   UNL     1      33.407 -13.917 -26.627  0.00  0.00    -0.321 N 
ATOM      4  C   UNL     1      34.599 -14.470 -23.148  0.00  0.00    +0.071 C 
ATOM      5  C   UNL     1      34.816 -15.951 -23.294  0.00  0.00    +0.045 C 
ATOM      6  C   UNL     1      33.874 -14.605 -25.529  0.00  0.00    +0.239 C 
ATOM      7  C   UNL     1      34.549 -16.592 -24.511  0.00  0.00    +0.136 C 
ATOM      8  C   UNL     1      35.289 -16.694 -22.204  0.00  0.00    +0.007 C 
ATOM      9  C   UNL     1      34.761 -17.973 -24.619  0.00  0.00    +0.032 C 
ATOM     10  C   UNL     1      35.496 -18.068 -22.321  0.00  0.00    +0.039 C 
ATOM     11  C   UNL     1      35.232 -18.708 -23.530  0.00  0.00    +0.006 C 
ATOM     12  H   UNL     1      33.251 -12.946 -26.570  0.00  0.00    +0.146 HD
ATOM     13  H   UNL     1      33.229 -14.395 -27.469  0.00  0.00    +0.146 HD
ENDROOT
BRANCH  10  15
ATOM     14  O   UNL     1      37.121 -18.619 -20.732  0.00  0.00    -0.287 OA
ATOM     15  C   UNL     1      35.986 -18.831 -21.186  0.00  0.00    +0.196 C 
BRANCH  15  16
ATOM     16  C   UNL     1      35.167 -19.887 -20.517  0.00  0.00    +0.039 C 
ATOM     17  C   UNL     1      33.776 -19.853 -20.607  0.00  0.00    +0.003 C 
ATOM     18  C   UNL     1      35.794 -20.909 -19.804  0.00  0.00    +0.003 C 
ATOM     19  C   UNL     1      33.012 -20.839 -19.984  0.00  0.00    +0.000 C 
ATOM     20  C   UNL     1      35.030 -21.896 -19.181  0.00  0.00    +0.000 C 
ATOM     21  C   UNL     1      33.639 -21.860 -19.271  0.00  0.00    +0.000 C 
ENDBRANCH  15  16
ENDBRANCH  10  15
BRANCH   1  22
ATOM     22  C   UNL     1      33.867 -12.409 -24.289  0.00  0.00    +0.109 C 
BRANCH  22  23
ATOM     23  C   UNL     1      33.281 -12.043 -22.928  0.00  0.00    +0.107 C 
BRANCH  23  26
ATOM     24  O   UNL     1      33.740  -9.722 -23.336  0.00  0.00    -0.275 OA
ATOM     25  N   UNL     1      31.988 -10.194 -21.893  0.00  0.00    -0.279 N 
ATOM     26  C   UNL     1      33.037 -10.548 -22.748  0.00  0.00    +0.227 C 
ATOM     27  C   UNL     1      31.168 -11.189 -21.205  0.00  0.00    +0.115 C 
BRANCH  25  28
ATOM     28  C   UNL     1      31.637  -8.820 -21.626  0.00  0.00    +0.075 C 
ATOM     29  C   UNL     1      31.302  -8.090 -22.929  0.00  0.00    +0.020 C 
ATOM     30  C   UNL     1      32.760  -8.112 -20.863  0.00  0.00    +0.020 C 
ATOM     31  C   UNL     1      30.978  -6.618 -22.683  0.00  0.00    +0.002 C 
ATOM     32  C   UNL     1      32.433  -6.641 -20.619  0.00  0.00    +0.002 C 
ATOM     33  C   UNL     1      32.097  -5.916 -21.918  0.00  0.00    +0.000 C 
ENDBRANCH  25  28
ENDBRANCH  23  26
ENDBRANCH  22  23
ENDBRANCH   1  22
TORSDOF 6
ENDMDL
MODEL 3
REMARK VINA RESULT:     -11.6      6.199     10.986
REMARK  Name = 16741238
REMARK  6 active torsions:
REMARK  status: ('A' for Active; 'I' for Inactive)
REMARK    1  A    between atoms: N_1  and  C_22
REMARK    2  A    between atoms: C_10  and  C_15
REMARK    3  A    between atoms: C_15  and  C_16
REMARK    4  A    between atoms: C_22  and  C_23
REMARK    5  A    between atoms: C_23  and  C_26
REMARK    6  A    between atoms: N_25  and  C_28
REMARK                            x       y       z     vdW  Elec       q    Type
REMARK                         _______ _______ _______ _____ _____    ______ ____
ROOT
ATOM      1  N   UNL     1      36.315 -22.616 -16.649  0.00  0.00    -0.249 N 
ATOM      2  N   UNL     1      36.662 -23.698 -14.529  0.00  0.00    -0.373 NA
ATOM      3  N   UNL     1      38.472 -23.146 -15.860  0.00  0.00    -0.321 N 
ATOM      4  C   UNL     1      34.857 -22.581 -16.525  0.00  0.00    +0.071 C 
ATOM      5  C   UNL     1      34.367 -23.197 -15.245  0.00  0.00    +0.045 C 
ATOM      6  C   UNL     1      37.112 -23.170 -15.642  0.00  0.00    +0.239 C 
ATOM      7  C   UNL     1      35.275 -23.721 -14.314  0.00  0.00    +0.136 C 
ATOM      8  C   UNL     1      32.991 -23.245 -14.979  0.00  0.00    +0.007 C 
ATOM      9  C   UNL     1      34.790 -24.287 -13.128  0.00  0.00    +0.032 C 
ATOM     10  C   UNL     1      32.519 -23.812 -13.796  0.00  0.00    +0.039 C 
ATOM     11  C   UNL     1      33.419 -24.333 -12.869  0.00  0.00    +0.006 C 
ATOM     12  H   UNL     1      38.831 -22.753 -16.688  0.00  0.00    +0.146 HD
ATOM     13  H   UNL     1      39.084 -23.522 -15.186  0.00  0.00    +0.146 HD
ENDROOT
BRANCH  10  15
ATOM     14  O   UNL     1      30.676 -23.993 -12.368  0.00  0.00    -0.287 OA
ATOM     15  C   UNL     1      31.091 -23.859 -13.529  0.00  0.00    +0.196 C 
BRANCH  15  16
ATOM     16  C   UNL     1      30.070 -23.749 -14.614  0.00  0.00    +0.039 C 
ATOM     17  C   UNL     1      29.702 -24.879 -15.343  0.00  0.00    +0.003 C 
ATOM     18  C   UNL     1      29.483 -22.515 -14.897  0.00  0.00    +0.003 C 
ATOM     19  C   UNL     1      28.748 -24.777 -16.355  0.00  0.00    +0.000 C 
ATOM     20  C   UNL     1      28.529 -22.413 -15.909  0.00  0.00    +0.000 C 
ATOM     21  C   UNL     1      28.162 -23.543 -16.639  0.00  0.00    +0.000 C 
ENDBRANCH  15  16
ENDBRANCH  10  15
BRANCH   1  22
ATOM     22  C   UNL     1      36.847 -22.034 -17.877  0.00  0.00    +0.109 C 
BRANCH  22  23
ATOM     23  C   UNL     1      35.714 -21.497 -18.747  0.00  0.00    +0.107 C 
BRANCH  23  26
ATOM     24  O   UNL     1      37.361 -20.168 -19.882  0.00  0.00    -0.275 OA
ATOM     25  N   UNL     1      35.174 -19.966 -20.626  0.00  0.00    -0.279 N 
ATOM     26  C   UNL     1      36.172 -20.487 -19.795  0.00  0.00    +0.227 C 
ATOM     27  C   UNL     1      33.771 -20.358 -20.506  0.00  0.00    +0.115 C 
BRANCH  25  28
ATOM     28  C   UNL     1      35.456 -19.004 -21.664  0.00  0.00    +0.075 C 
ATOM     29  C   UNL     1      35.127 -17.588 -21.185  0.00  0.00    +0.020 C 
ATOM     30  C   UNL     1      34.692 -19.350 -22.945  0.00  0.00    +0.020 C 
ATOM     31  C   UNL     1      35.365 -16.553 -22.281  0.00  0.00    +0.002 C 
ATOM     32  C   UNL     1      34.932 -18.313 -24.040  0.00  0.00    +0.002 C 
ATOM     33  C   UNL     1      34.606 -16.902 -23.559  0.00  0.00    +0.000 C 
ENDBRANCH  25  28
ENDBRANCH  23  26
ENDBRANCH  22  23
ENDBRANCH   1  22
TORSDOF 6
ENDMDL
MODEL 4
REMARK VINA RESULT:     -11.5      3.030     11.464
REMARK  Name = 16741238
REMARK  6 active torsions:
REMARK  status: ('A' for Active; 'I' for Inactive)
REMARK    1  A    between atoms: N_1  and  C_22
REMARK    2  A    between atoms: C_10  and  C_15
REMARK    3  A    between atoms: C_15  and  C_16
REMARK    4  A    between atoms: C_22  and  C_23
REMARK    5  A    between atoms: C_23  and  C_26
REMARK    6  A    between atoms: N_25  and  C_28
REMARK                            x       y       z     vdW  Elec       q    Type
REMARK                         _______ _______ _______ _____ _____    ______ ____
ROOT
ATOM      1  N   UNL     1      31.645 -10.510 -20.738  0.00  0.00    -0.249 N 
ATOM      2  N   UNL     1      32.005  -8.627 -19.287  0.00  0.00    -0.373 NA
ATOM      3  N   UNL     1      31.816 -10.755 -18.400  0.00  0.00    -0.321 N 
ATOM      4  C   UNL     1      31.643  -9.712 -21.966  0.00  0.00    +0.071 C 
ATOM      5  C   UNL     1      31.843  -8.246 -21.707  0.00  0.00    +0.045 C 
ATOM      6  C   UNL     1      31.827  -9.910 -19.488  0.00  0.00    +0.239 C 
ATOM      7  C   UNL     1      32.014  -7.770 -20.399  0.00  0.00    +0.136 C 
ATOM      8  C   UNL     1      31.861  -7.346 -22.782  0.00  0.00    +0.007 C 
ATOM      9  C   UNL     1      32.200  -6.399 -20.188  0.00  0.00    +0.032 C 
ATOM     10  C   UNL     1      32.046  -5.982 -22.560  0.00  0.00    +0.039 C 
ATOM     11  C   UNL     1      32.216  -5.508 -21.262  0.00  0.00    +0.006 C 
ATOM     12  H   UNL     1      31.685 -11.722 -18.530  0.00  0.00    +0.146 HD
ATOM     13  H   UNL     1      31.939 -10.391 -17.494  0.00  0.00    +0.146 HD
ENDROOT
BRANCH  10  15
ATOM     14  O   UNL     1      31.135  -4.248 -23.838  0.00  0.00    -0.287 OA
ATOM     15  C   UNL     1      32.062  -5.057 -23.681  0.00  0.00    +0.196 C 
BRANCH  15  16
ATOM     16  C   UNL     1      33.172  -5.029 -24.681  0.00  0.00    +0.039 C 
ATOM     17  C   UNL     1      34.309  -5.813 -24.484  0.00  0.00    +0.003 C 
ATOM     18  C   UNL     1      33.071  -4.220 -25.813  0.00  0.00    +0.003 C 
ATOM     19  C   UNL     1      35.344  -5.788 -25.418  0.00  0.00    +0.000 C 
ATOM     20  C   UNL     1      34.107  -4.195 -26.747  0.00  0.00    +0.000 C 
ATOM     21  C   UNL     1      35.244  -4.979 -26.549  0.00  0.00    +0.000 C 
ENDBRANCH  15  16
ENDBRANCH  10  15
BRANCH   1  22
ATOM     22  C   UNL     1      31.450 -11.944 -20.930  0.00  0.00    +0.109 C 
BRANCH  22  23
ATOM     23  C   UNL     1      32.534 -12.512 -21.842  0.00  0.00    +0.107 C 
BRANCH  23  26
ATOM     24  O   UNL     1      32.250 -14.605 -20.700  0.00  0.00    -0.275 OA
ATOM     25  N   UNL     1      33.719 -14.594 -22.494  0.00  0.00    -0.279 N 
ATOM     26  C   UNL     1      32.811 -13.995 -21.614  0.00  0.00    +0.227 C 
ATOM     27  C   UNL     1      34.373 -13.853 -23.570  0.00  0.00    +0.115 C 
BRANCH  25  28
ATOM     28  C   UNL     1      34.078 -15.990 -22.404  0.00  0.00    +0.075 C 
ATOM     29  C   UNL     1      34.935 -16.243 -21.161  0.00  0.00    +0.020 C 
ATOM     30  C   UNL     1      34.793 -16.448 -23.677  0.00  0.00    +0.020 C 
ATOM     31  C   UNL     1      35.374 -17.702 -21.068  0.00  0.00    +0.002 C 
ATOM     32  C   UNL     1      35.231 -17.908 -23.581  0.00  0.00    +0.002 C 
ATOM     33  C   UNL     1      36.083 -18.158 -22.341  0.00  0.00    +0.000 C 
ENDBRANCH  25  28
ENDBRANCH  23  26
ENDBRANCH  22  23
ENDBRANCH   1  22
TORSDOF 6
ENDMDL
MODEL 5
REMARK VINA RESULT:     -11.4      4.638      8.068
REMARK  Name = 16741238
REMARK  6 active torsions:
REMARK  status: ('A' for Active; 'I' for Inactive)
REMARK    1  A    between atoms: N_1  and  C_22
REMARK    2  A    between atoms: C_10  and  C_15
REMARK    3  A    between atoms: C_15  and  C_16
REMARK    4  A    between atoms: C_22  and  C_23
REMARK    5  A    between atoms: C_23  and  C_26
REMARK    6  A    between atoms: N_25  and  C_28
REMARK                            x       y       z     vdW  Elec       q    Type
REMARK                         _______ _______ _______ _____ _____    ______ ____
ROOT
ATOM      1  N   UNL     1      34.778 -20.652 -20.211  0.00  0.00    -0.249 N 
ATOM      2  N   UNL     1      33.305 -21.787 -18.685  0.00  0.00    -0.373 NA
ATOM      3  N   UNL     1      32.445 -20.714 -20.545  0.00  0.00    -0.321 N 
ATOM      4  C   UNL     1      35.994 -20.983 -19.467  0.00  0.00    +0.071 C 
ATOM      5  C   UNL     1      35.718 -21.790 -18.230  0.00  0.00    +0.045 C 
ATOM      6  C   UNL     1      33.522 -21.079 -19.766  0.00  0.00    +0.239 C 
ATOM      7  C   UNL     1      34.406 -22.153 -17.894  0.00  0.00    +0.136 C 
ATOM      8  C   UNL     1      36.782 -22.183 -17.405  0.00  0.00    +0.007 C 
ATOM      9  C   UNL     1      34.179 -22.907 -16.736  0.00  0.00    +0.032 C 
ATOM     10  C   UNL     1      36.544 -22.933 -16.254  0.00  0.00    +0.039 C 
ATOM     11  C   UNL     1      35.242 -23.295 -15.919  0.00  0.00    +0.006 C 
ATOM     12  H   UNL     1      32.586 -20.184 -21.362  0.00  0.00    +0.146 HD
ATOM     13  H   UNL     1      31.535 -20.985 -20.283  0.00  0.00    +0.146 HD
ENDROOT
BRANCH  10  15
ATOM     14  O   UNL     1      38.806 -22.954 -15.657  0.00  0.00    -0.287 OA
ATOM     15  C   UNL     1      37.653 -23.335 -15.404  0.00  0.00    +0.196 C 
BRANCH  15  16
ATOM     16  C   UNL     1      37.467 -24.208 -14.206  0.00  0.00    +0.039 C 
ATOM     17  C   UNL     1      37.269 -23.637 -12.950  0.00  0.00    +0.003 C 
ATOM     18  C   UNL     1      37.491 -25.597 -14.344  0.00  0.00    +0.003 C 
ATOM     19  C   UNL     1      37.095 -24.452 -11.832  0.00  0.00    +0.000 C 
ATOM     20  C   UNL     1      37.317 -26.412 -13.226  0.00  0.00    +0.000 C 
ATOM     21  C   UNL     1      37.120 -25.839 -11.969  0.00  0.00    +0.000 C 
ENDBRANCH  15  16
ENDBRANCH  10  15
BRANCH   1  22
ATOM     22  C   UNL     1      34.986 -19.865 -21.422  0.00  0.00    +0.109 C 
BRANCH  22  23
ATOM     23  C   UNL     1      35.308 -18.416 -21.067  0.00  0.00    +0.107 C 
BRANCH  23  26
ATOM     24  O   UNL     1      35.759 -17.871 -23.362  0.00  0.00    -0.275 OA
ATOM     25  N   UNL     1      34.847 -16.186 -22.056  0.00  0.00    -0.279 N 
ATOM     26  C   UNL     1      35.332 -17.481 -22.272  0.00  0.00    +0.227 C 
ATOM     27  C   UNL     1      34.346 -15.743 -20.757  0.00  0.00    +0.115 C 
BRANCH  25  28
ATOM     28  C   UNL     1      34.805 -15.191 -23.101  0.00  0.00    +0.075 C 
ATOM     29  C   UNL     1      34.304 -13.855 -22.549  0.00  0.00    +0.020 C 
ATOM     30  C   UNL     1      33.940 -15.670 -24.271  0.00  0.00    +0.020 C 
ATOM     31  C   UNL     1      34.199 -12.796 -23.644  0.00  0.00    +0.002 C 
ATOM     32  C   UNL     1      33.837 -14.610 -25.364  0.00  0.00    +0.002 C 
ATOM     33  C   UNL     1      33.340 -13.278 -24.810  0.00  0.00    +0.000 C 
ENDBRANCH  25  28
ENDBRANCH  23  26
ENDBRANCH  22  23
ENDBRANCH   1  22
TORSDOF 6
ENDMDL
MODEL 6
REMARK VINA RESULT:     -11.4      2.520     10.744
REMARK  Name = 16741238
REMARK  6 active torsions:
REMARK  status: ('A' for Active; 'I' for Inactive)
REMARK    1  A    between atoms: N_1  and  C_22
REMARK    2  A    between atoms: C_10  and  C_15
REMARK    3  A    between atoms: C_15  and  C_16
REMARK    4  A    between atoms: C_22  and  C_23
REMARK    5  A    between atoms: C_23  and  C_26
REMARK    6  A    between atoms: N_25  and  C_28
REMARK                            x       y       z     vdW  Elec       q    Type
REMARK                         _______ _______ _______ _____ _____    ______ ____
ROOT
ATOM      1  N   UNL     1      32.742 -13.344 -22.189  0.00  0.00    -0.249 N 
ATOM      2  N   UNL     1      31.891 -12.481 -20.111  0.00  0.00    -0.373 NA
ATOM      3  N   UNL     1      32.140 -14.762 -20.405  0.00  0.00    -0.321 N 
ATOM      4  C   UNL     1      32.904 -12.026 -22.805  0.00  0.00    +0.071 C 
ATOM      5  C   UNL     1      32.483 -10.904 -21.897  0.00  0.00    +0.045 C 
ATOM      6  C   UNL     1      32.248 -13.476 -20.887  0.00  0.00    +0.239 C 
ATOM      7  C   UNL     1      32.002 -11.173 -20.608  0.00  0.00    +0.136 C 
ATOM      8  C   UNL     1      32.574  -9.578 -22.344  0.00  0.00    +0.007 C 
ATOM      9  C   UNL     1      31.619 -10.107 -19.784  0.00  0.00    +0.032 C 
ATOM     10  C   UNL     1      32.189  -8.525 -21.515  0.00  0.00    +0.039 C 
ATOM     11  C   UNL     1      31.711  -8.790 -20.234  0.00  0.00    +0.006 C 
ATOM     12  H   UNL     1      32.404 -15.523 -20.971  0.00  0.00    +0.146 HD
ATOM     13  H   UNL     1      31.799 -14.919 -19.495  0.00  0.00    +0.146 HD
ENDROOT
BRANCH  10  15
ATOM     14  O   UNL     1      31.538  -6.278 -21.523  0.00  0.00    -0.287 OA
ATOM     15  C   UNL     1      32.285  -7.153 -21.987  0.00  0.00    +0.196 C 
BRANCH  15  16
ATOM     16  C   UNL     1      33.269  -6.733 -23.030  0.00  0.00    +0.039 C 
ATOM     17  C   UNL     1      32.859  -5.927 -24.091  0.00  0.00    +0.003 C 
ATOM     18  C   UNL     1      34.599  -7.145 -22.941  0.00  0.00    +0.003 C 
ATOM     19  C   UNL     1      33.777  -5.534 -25.064  0.00  0.00    +0.000 C 
ATOM     20  C   UNL     1      35.518  -6.751 -23.914  0.00  0.00    +0.000 C 
ATOM     21  C   UNL     1      35.106  -5.946 -24.976  0.00  0.00    +0.000 C 
ENDBRANCH  15  16
ENDBRANCH  10  15
BRANCH   1  22
ATOM     22  C   UNL     1      33.131 -14.472 -23.028  0.00  0.00    +0.109 C 
BRANCH  22  23
ATOM     23  C   UNL     1      34.609 -14.798 -22.831  0.00  0.00    +0.107 C 
BRANCH  23  26
ATOM     24  O   UNL     1      34.863 -15.393 -20.518  0.00  0.00    -0.275 OA
ATOM     25  N   UNL     1      35.121 -17.103 -22.063  0.00  0.00    -0.279 N 
ATOM     26  C   UNL     1      34.874 -15.777 -21.691  0.00  0.00    +0.227 C 
ATOM     27  C   UNL     1      35.130 -17.537 -23.458  0.00  0.00    +0.115 C 
BRANCH  25  28
ATOM     28  C   UNL     1      35.386 -18.141 -21.096  0.00  0.00    +0.075 C 
ATOM     29  C   UNL     1      36.821 -18.654 -21.239  0.00  0.00    +0.020 C 
ATOM     30  C   UNL     1      34.371 -19.280 -21.232  0.00  0.00    +0.020 C 
ATOM     31  C   UNL     1      37.113 -19.791 -20.263  0.00  0.00    +0.002 C 
ATOM     32  C   UNL     1      34.666 -20.416 -20.255  0.00  0.00    +0.002 C 
ATOM     33  C   UNL     1      36.098 -20.923 -20.398  0.00  0.00    +0.000 C 
ENDBRANCH  25  28
ENDBRANCH  23  26
ENDBRANCH  22  23
ENDBRANCH   1  22
TORSDOF 6
ENDMDL
MODEL 7
REMARK VINA RESULT:     -11.0      3.007      4.932
REMARK  Name = 16741238
REMARK  6 active torsions:
REMARK  status: ('A' for Active; 'I' for Inactive)
REMARK    1  A    between atoms: N_1  and  C_22
REMARK    2  A    between atoms: C_10  and  C_15
REMARK    3  A    between atoms: C_15  and  C_16
REMARK    4  A    between atoms: C_22  and  C_23
REMARK    5  A    between atoms: C_23  and  C_26
REMARK    6  A    between atoms: N_25  and  C_28
REMARK                            x       y       z     vdW  Elec       q    Type
REMARK                         _______ _______ _______ _____ _____    ______ ____
ROOT
ATOM      1  N   UNL     1      31.883 -10.547 -21.198  0.00  0.00    -0.249 N 
ATOM      2  N   UNL     1      31.622 -12.399 -19.686  0.00  0.00    -0.373 NA
ATOM      3  N   UNL     1      30.603 -10.374 -19.226  0.00  0.00    -0.321 N 
ATOM      4  C   UNL     1      32.727 -11.284 -22.140  0.00  0.00    +0.071 C 
ATOM      5  C   UNL     1      32.981 -12.701 -21.708  0.00  0.00    +0.045 C 
ATOM      6  C   UNL     1      31.391 -11.159 -20.040  0.00  0.00    +0.239 C 
ATOM      7  C   UNL     1      32.427 -13.193 -20.518  0.00  0.00    +0.136 C 
ATOM      8  C   UNL     1      33.778 -13.537 -22.503  0.00  0.00    +0.007 C 
ATOM      9  C   UNL     1      32.680 -14.518 -20.142  0.00  0.00    +0.032 C 
ATOM     10  C   UNL     1      34.023 -14.855 -22.118  0.00  0.00    +0.039 C 
ATOM     11  C   UNL     1      33.473 -15.345 -20.937  0.00  0.00    +0.006 C 
ATOM     12  H   UNL     1      30.416  -9.440 -19.474  0.00  0.00    +0.146 HD
ATOM     13  H   UNL     1      30.227 -10.749 -18.397  0.00  0.00    +0.146 HD
ENDROOT
BRANCH  10  15
ATOM     14  O   UNL     1      35.464 -15.245 -23.919  0.00  0.00    -0.287 OA
ATOM     15  C   UNL     1      34.851 -15.714 -22.948  0.00  0.00    +0.196 C 
BRANCH  15  16
ATOM     16  C   UNL     1      35.006 -17.176 -22.681  0.00  0.00    +0.039 C 
ATOM     17  C   UNL     1      35.354 -17.620 -21.406  0.00  0.00    +0.003 C 
ATOM     18  C   UNL     1      34.803 -18.098 -23.709  0.00  0.00    +0.003 C 
ATOM     19  C   UNL     1      35.497 -18.984 -21.157  0.00  0.00    +0.000 C 
ATOM     20  C   UNL     1      34.947 -19.463 -23.460  0.00  0.00    +0.000 C 
ATOM     21  C   UNL     1      35.295 -19.906 -22.184  0.00  0.00    +0.000 C 
ENDBRANCH  15  16
ENDBRANCH  10  15
BRANCH   1  22
ATOM     22  C   UNL     1      31.606  -9.162 -21.565  0.00  0.00    +0.109 C 
BRANCH  22  23
ATOM     23  C   UNL     1      32.740  -8.252 -21.104  0.00  0.00    +0.107 C 
BRANCH  23  26
ATOM     24  O   UNL     1      32.286  -5.959 -21.655  0.00  0.00    -0.275 OA
ATOM     25  N   UNL     1      33.758  -7.088 -23.046  0.00  0.00    -0.279 N 
ATOM     26  C   UNL     1      32.896  -6.991 -21.948  0.00  0.00    +0.227 C 
ATOM     27  C   UNL     1      34.471  -8.320 -23.376  0.00  0.00    +0.115 C 
BRANCH  25  28
ATOM     28  C   UNL     1      34.007  -5.978 -23.935  0.00  0.00    +0.075 C 
ATOM     29  C   UNL     1      32.734  -5.608 -24.700  0.00  0.00    +0.020 C 
ATOM     30  C   UNL     1      35.159  -6.298 -24.892  0.00  0.00    +0.020 C 
ATOM     31  C   UNL     1      32.981  -4.470 -25.687  0.00  0.00    +0.002 C 
ATOM     32  C   UNL     1      35.404  -5.158 -25.878  0.00  0.00    +0.002 C 
ATOM     33  C   UNL     1      34.133  -4.790 -26.637  0.00  0.00    +0.000 C 
ENDBRANCH  25  28
ENDBRANCH  23  26
ENDBRANCH  22  23
ENDBRANCH   1  22
TORSDOF 6
ENDMDL
MODEL 8
REMARK VINA RESULT:     -10.9      5.220      9.533
REMARK  Name = 16741238
REMARK  6 active torsions:
REMARK  status: ('A' for Active; 'I' for Inactive)
REMARK    1  A    between atoms: N_1  and  C_22
REMARK    2  A    between atoms: C_10  and  C_15
REMARK    3  A    between atoms: C_15  and  C_16
REMARK    4  A    between atoms: C_22  and  C_23
REMARK    5  A    between atoms: C_23  and  C_26
REMARK    6  A    between atoms: N_25  and  C_28
REMARK                            x       y       z     vdW  Elec       q    Type
REMARK                         _______ _______ _______ _____ _____    ______ ____
ROOT
ATOM      1  N   UNL     1      34.835 -21.779 -19.138  0.00  0.00    -0.249 N 
ATOM      2  N   UNL     1      32.666 -22.190 -18.184  0.00  0.00    -0.373 NA
ATOM      3  N   UNL     1      32.848 -21.231 -20.281  0.00  0.00    -0.321 N 
ATOM      4  C   UNL     1      35.570 -22.316 -17.992  0.00  0.00    +0.071 C 
ATOM      5  C   UNL     1      34.664 -22.802 -16.896  0.00  0.00    +0.045 C 
ATOM      6  C   UNL     1      33.437 -21.755 -19.151  0.00  0.00    +0.239 C 
ATOM      7  C   UNL     1      33.272 -22.721 -17.034  0.00  0.00    +0.136 C 
ATOM      8  C   UNL     1      35.217 -23.342 -15.726  0.00  0.00    +0.007 C 
ATOM      9  C   UNL     1      32.452 -23.183 -15.997  0.00  0.00    +0.032 C 
ATOM     10  C   UNL     1      34.392 -23.799 -14.699  0.00  0.00    +0.039 C 
ATOM     11  C   UNL     1      33.008 -23.719 -14.835  0.00  0.00    +0.006 C 
ATOM     12  H   UNL     1      33.409 -20.901 -21.020  0.00  0.00    +0.146 HD
ATOM     13  H   UNL     1      31.867 -21.188 -20.350  0.00  0.00    +0.146 HD
ENDROOT
BRANCH  10  15
ATOM     14  O   UNL     1      34.320 -24.383 -12.435  0.00  0.00    -0.287 OA
ATOM     15  C   UNL     1      34.973 -24.356 -13.489  0.00  0.00    +0.196 C 
BRANCH  15  16
ATOM     16  C   UNL     1      36.358 -24.918 -13.452  0.00  0.00    +0.039 C 
ATOM     17  C   UNL     1      36.685 -26.020 -14.240  0.00  0.00    +0.003 C 
ATOM     18  C   UNL     1      37.323 -24.338 -12.628  0.00  0.00    +0.003 C 
ATOM     19  C   UNL     1      37.978 -26.543 -14.205  0.00  0.00    +0.000 C 
ATOM     20  C   UNL     1      38.616 -24.861 -12.594  0.00  0.00    +0.000 C 
ATOM     21  C   UNL     1      38.943 -25.964 -13.382  0.00  0.00    +0.000 C 
ENDBRANCH  15  16
ENDBRANCH  10  15
BRANCH   1  22
ATOM     22  C   UNL     1      35.666 -21.287 -20.232  0.00  0.00    +0.109 C 
BRANCH  22  23
ATOM     23  C   UNL     1      36.433 -20.041 -19.801  0.00  0.00    +0.107 C 
BRANCH  23  26
ATOM     24  O   UNL     1      37.753 -18.901 -21.453  0.00  0.00    -0.275 OA
ATOM     25  N   UNL     1      35.522 -18.289 -21.306  0.00  0.00    -0.279 N 
ATOM     26  C   UNL     1      36.645 -19.032 -20.926  0.00  0.00    +0.227 C 
ATOM     27  C   UNL     1      34.218 -18.458 -20.668  0.00  0.00    +0.115 C 
BRANCH  25  28
ATOM     28  C   UNL     1      35.567 -17.299 -22.355  0.00  0.00    +0.075 C 
ATOM     29  C   UNL     1      34.860 -16.016 -21.913  0.00  0.00    +0.020 C 
ATOM     30  C   UNL     1      34.961 -17.852 -23.648  0.00  0.00    +0.020 C 
ATOM     31  C   UNL     1      34.846 -14.969 -23.024  0.00  0.00    +0.002 C 
ATOM     32  C   UNL     1      34.948 -16.803 -24.757  0.00  0.00    +0.002 C 
ATOM     33  C   UNL     1      34.245 -15.524 -24.312  0.00  0.00    +0.000 C 
ENDBRANCH  25  28
ENDBRANCH  23  26
ENDBRANCH  22  23
ENDBRANCH   1  22
TORSDOF 6
ENDMDL
MODEL 9
REMARK VINA RESULT:     -10.7      3.967      7.291
REMARK  Name = 16741238
REMARK  6 active torsions:
REMARK  status: ('A' for Active; 'I' for Inactive)
REMARK    1  A    between atoms: N_1  and  C_22
REMARK    2  A    between atoms: C_10  and  C_15
REMARK    3  A    between atoms: C_15  and  C_16
REMARK    4  A    between atoms: C_22  and  C_23
REMARK    5  A    between atoms: C_23  and  C_26
REMARK    6  A    between atoms: N_25  and  C_28
REMARK                            x       y       z     vdW  Elec       q    Type
REMARK                         _______ _______ _______ _____ _____    ______ ____
ROOT
ATOM      1  N   UNL     1      35.458 -20.189 -20.715  0.00  0.00    -0.249 N 
ATOM      2  N   UNL     1      37.328 -20.442 -19.225  0.00  0.00    -0.373 NA
ATOM      3  N   UNL     1      37.533 -19.154 -21.135  0.00  0.00    -0.321 N 
ATOM      4  C   UNL     1      34.558 -21.025 -19.917  0.00  0.00    +0.071 C 
ATOM      5  C   UNL     1      35.217 -21.571 -18.681  0.00  0.00    +0.045 C 
ATOM      6  C   UNL     1      36.776 -19.958 -20.311  0.00  0.00    +0.239 C 
ATOM      7  C   UNL     1      36.553 -21.262 -18.390  0.00  0.00    +0.136 C 
ATOM      8  C   UNL     1      34.487 -22.395 -17.812  0.00  0.00    +0.007 C 
ATOM      9  C   UNL     1      37.140 -21.785 -17.230  0.00  0.00    +0.032 C 
ATOM     10  C   UNL     1      35.082 -22.910 -16.661  0.00  0.00    +0.039 C 
ATOM     11  C   UNL     1      36.409 -22.605 -16.370  0.00  0.00    +0.006 C 
ATOM     12  H   UNL     1      37.137 -18.779 -21.955  0.00  0.00    +0.146 HD
ATOM     13  H   UNL     1      38.469 -18.954 -20.903  0.00  0.00    +0.146 HD
ENDROOT
BRANCH  10  15
ATOM     14  O   UNL     1      34.836 -24.780 -15.277  0.00  0.00    -0.287 OA
ATOM     15  C   UNL     1      34.318 -23.765 -15.766  0.00  0.00    +0.196 C 
BRANCH  15  16
ATOM     16  C   UNL     1      32.901 -23.471 -15.394  0.00  0.00    +0.039 C 
ATOM     17  C   UNL     1      31.955 -23.224 -16.388  0.00  0.00    +0.003 C 
ATOM     18  C   UNL     1      32.524 -23.446 -14.051  0.00  0.00    +0.003 C 
ATOM     19  C   UNL     1      30.633 -22.951 -16.041  0.00  0.00    +0.000 C 
ATOM     20  C   UNL     1      31.201 -23.173 -13.704  0.00  0.00    +0.000 C 
ATOM     21  C   UNL     1      30.255 -22.925 -14.699  0.00  0.00    +0.000 C 
ENDBRANCH  15  16
ENDBRANCH  10  15
BRANCH   1  22
ATOM     22  C   UNL     1      34.872 -19.634 -21.931  0.00  0.00    +0.109 C 
BRANCH  22  23
ATOM     23  C   UNL     1      35.654 -18.407 -22.388  0.00  0.00    +0.107 C 
BRANCH  23  26
ATOM     24  O   UNL     1      35.190 -16.990 -20.506  0.00  0.00    -0.275 OA
ATOM     25  N   UNL     1      34.790 -16.090 -22.605  0.00  0.00    -0.279 N 
ATOM     26  C   UNL     1      35.194 -17.108 -21.735  0.00  0.00    +0.227 C 
ATOM     27  C   UNL     1      34.802 -16.250 -24.058  0.00  0.00    +0.115 C 
BRANCH  25  28
ATOM     28  C   UNL     1      34.332 -14.805 -22.134  0.00  0.00    +0.075 C 
ATOM     29  C   UNL     1      33.144 -14.975 -21.184  0.00  0.00    +0.020 C 
ATOM     30  C   UNL     1      33.978 -13.891 -23.310  0.00  0.00    +0.020 C 
ATOM     31  C   UNL     1      32.603 -13.628 -20.711  0.00  0.00    +0.002 C 
ATOM     32  C   UNL     1      33.438 -12.544 -22.834  0.00  0.00    +0.002 C 
ATOM     33  C   UNL     1      32.256 -12.717 -21.885  0.00  0.00    +0.000 C 
ENDBRANCH  25  28
ENDBRANCH  23  26
ENDBRANCH  22  23
ENDBRANCH   1  22
TORSDOF 6
ENDMDL
