MODEL 1
REMARK VINA RESULT:     -11.6      0.000      0.000
REMARK  Name = 5288527
REMARK  4 active torsions:
REMARK  status: ('A' for Active; 'I' for Inactive)
REMARK    1  A    between atoms: N_1  and  C_18
REMARK    2  A    between atoms: C_4  and  C_11
REMARK    3  A    between atoms: C_19  and  S_24
REMARK    4  A    between atoms: S_24  and  N_27
REMARK                            x       y       z     vdW  Elec       q    Type
REMARK                         _______ _______ _______ _____ _____    ______ ____
ROOT
ATOM      1  N   UNL     1      34.899 -24.964 -12.667  0.00  0.00    -0.247 N 
ATOM      2  N   UNL     1      34.045 -23.945 -14.600  0.00  0.00    -0.336 NA
ATOM      3  N   UNL     1      32.625 -24.389 -12.704  0.00  0.00    -0.170 NA
ATOM      4  C   UNL     1      32.974 -23.418 -15.226  0.00  0.00    +0.161 C 
ATOM      5  C   UNL     1      33.802 -24.405 -13.358  0.00  0.00    +0.149 C 
ATOM      6  C   UNL     1      31.716 -23.340 -14.671  0.00  0.00    +0.056 C 
ATOM      7  C   UNL     1      31.599 -23.847 -13.393  0.00  0.00    +0.114 C 
ATOM      8  H   UNL     1      34.676 -25.287 -11.764  0.00  0.00    +0.165 HD
ENDROOT
BRANCH   4  11
ATOM      9  N   UNL     1      34.472 -22.555 -17.028  0.00  0.00    -0.246 N 
ATOM     10  N   UNL     1      33.031 -22.242 -18.710  0.00  0.00    -0.227 NA
ATOM     11  C   UNL     1      33.238 -22.926 -16.557  0.00  0.00    +0.107 C 
ATOM     12  C   UNL     1      34.293 -22.145 -18.347  0.00  0.00    +0.139 C 
ATOM     13  C   UNL     1      32.374 -22.725 -17.607  0.00  0.00    +0.118 C 
ATOM     14  C   UNL     1      35.705 -22.557 -16.382  0.00  0.00    +0.071 C 
ATOM     15  C   UNL     1      35.453 -21.708 -19.051  0.00  0.00    +0.035 C 
ATOM     16  C   UNL     1      36.793 -22.145 -17.052  0.00  0.00    +0.017 C 
ATOM     17  C   UNL     1      36.650 -21.707 -18.432  0.00  0.00    +0.004 C 
ENDBRANCH   4  11
BRANCH   1  18
ATOM     18  C   UNL     1      36.250 -25.150 -13.016  0.00  0.00    +0.058 C 
ATOM     19  C   UNL     1      38.930 -25.519 -13.710  0.00  0.00    +0.122 C 
ATOM     20  C   UNL     1      37.262 -24.689 -12.171  0.00  0.00    +0.017 C 
ATOM     21  C   UNL     1      36.583 -25.796 -14.209  0.00  0.00    +0.017 C 
ATOM     22  C   UNL     1      38.600 -24.873 -12.518  0.00  0.00    +0.021 C 
ATOM     23  C   UNL     1      37.921 -25.980 -14.556  0.00  0.00    +0.021 C 
BRANCH  19  24
ATOM     24  S   UNL     1      40.605 -25.749 -14.144  0.00  0.00    +0.057 S 
ATOM     25  O   UNL     1      41.298 -24.477 -13.991  0.00  0.00    -0.153 OA
ATOM     26  O   UNL     1      41.104 -26.931 -13.457  0.00  0.00    -0.153 OA
BRANCH  24  27
ATOM     27  N   UNL     1      40.465 -26.103 -15.811  0.00  0.00    -0.203 NA
ATOM     28  H   UNL     1      40.505 -27.112 -15.948  0.00  0.00    +0.144 HD
ATOM     29  H   UNL     1      41.230 -25.659 -16.318  0.00  0.00    +0.144 HD
ENDBRANCH  24  27
ENDBRANCH  19  24
ENDBRANCH   1  18
TORSDOF 4
ENDMDL
MODEL 2
REMARK VINA RESULT:     -11.5      4.956      6.951
REMARK  Name = 5288527
REMARK  4 active torsions:
REMARK  status: ('A' for Active; 'I' for Inactive)
REMARK    1  A    between atoms: N_1  and  C_18
REMARK    2  A    between atoms: C_4  and  C_11
REMARK    3  A    between atoms: C_19  and  S_24
REMARK    4  A    between atoms: S_24  and  N_27
REMARK                            x       y       z     vdW  Elec       q    Type
REMARK                         _______ _______ _______ _____ _____    ______ ____
ROOT
ATOM      1  N   UNL     1      32.763 -24.645 -12.806  0.00  0.00    -0.247 N 
ATOM      2  N   UNL     1      34.531 -23.825 -14.111  0.00  0.00    -0.336 NA
ATOM      3  N   UNL     1      34.954 -24.957 -12.026  0.00  0.00    -0.170 NA
ATOM      4  C   UNL     1      35.864 -23.676 -14.252  0.00  0.00    +0.161 C 
ATOM      5  C   UNL     1      34.151 -24.467 -12.990  0.00  0.00    +0.149 C 
ATOM      6  C   UNL     1      36.792 -24.129 -13.341  0.00  0.00    +0.056 C 
ATOM      7  C   UNL     1      36.274 -24.770 -12.235  0.00  0.00    +0.114 C 
ATOM      8  H   UNL     1      32.532 -25.119 -11.974  0.00  0.00    +0.165 HD
ENDROOT
BRANCH   4  11
ATOM      9  N   UNL     1      35.459 -22.762 -16.540  0.00  0.00    -0.246 N 
ATOM     10  N   UNL     1      37.447 -21.861 -17.032  0.00  0.00    -0.227 NA
ATOM     11  C   UNL     1      36.266 -22.986 -15.455  0.00  0.00    +0.107 C 
ATOM     12  C   UNL     1      36.225 -22.071 -17.476  0.00  0.00    +0.139 C 
ATOM     13  C   UNL     1      37.478 -22.424 -15.781  0.00  0.00    +0.118 C 
ATOM     14  C   UNL     1      34.129 -23.119 -16.745  0.00  0.00    +0.071 C 
ATOM     15  C   UNL     1      35.588 -21.724 -18.703  0.00  0.00    +0.035 C 
ATOM     16  C   UNL     1      33.536 -22.788 -17.903  0.00  0.00    +0.017 C 
ATOM     17  C   UNL     1      34.302 -22.067 -18.909  0.00  0.00    +0.004 C 
ENDBRANCH   4  11
BRANCH   1  18
ATOM     18  C   UNL     1      31.645 -24.280 -13.578  0.00  0.00    +0.058 C 
ATOM     19  C   UNL     1      29.426 -23.553 -15.111  0.00  0.00    +0.122 C 
ATOM     20  C   UNL     1      30.693 -25.239 -13.932  0.00  0.00    +0.017 C 
ATOM     21  C   UNL     1      31.483 -22.956 -13.993  0.00  0.00    +0.017 C 
ATOM     22  C   UNL     1      29.586 -24.876 -14.697  0.00  0.00    +0.021 C 
ATOM     23  C   UNL     1      30.376 -22.593 -14.758  0.00  0.00    +0.021 C 
BRANCH  19  24
ATOM     24  S   UNL     1      28.040 -23.098 -16.070  0.00  0.00    +0.057 S 
ATOM     25  O   UNL     1      26.893 -22.962 -15.182  0.00  0.00    -0.153 OA
ATOM     26  O   UNL     1      28.419 -21.991 -16.936  0.00  0.00    -0.153 OA
BRANCH  24  27
ATOM     27  N   UNL     1      27.833 -24.498 -17.028  0.00  0.00    -0.203 NA
ATOM     28  H   UNL     1      27.512 -25.267 -16.440  0.00  0.00    +0.144 HD
ATOM     29  H   UNL     1      28.722 -24.748 -17.461  0.00  0.00    +0.144 HD
ENDBRANCH  24  27
ENDBRANCH  19  24
ENDBRANCH   1  18
TORSDOF 4
ENDMDL
MODEL 3
REMARK VINA RESULT:     -11.0      4.235      7.169
REMARK  Name = 5288527
REMARK  4 active torsions:
REMARK  status: ('A' for Active; 'I' for Inactive)
REMARK    1  A    between atoms: N_1  and  C_18
REMARK    2  A    between atoms: C_4  and  C_11
REMARK    3  A    between atoms: C_19  and  S_24
REMARK    4  A    between atoms: S_24  and  N_27
REMARK                            x       y       z     vdW  Elec       q    Type
REMARK                         _______ _______ _______ _____ _____    ______ ____
ROOT
ATOM      1  N   UNL     1      32.619 -22.240 -18.183  0.00  0.00    -0.247 N 
ATOM      2  N   UNL     1      34.122 -22.929 -16.519  0.00  0.00    -0.336 NA
ATOM      3  N   UNL     1      31.799 -23.563 -16.428  0.00  0.00    -0.170 NA
ATOM      4  C   UNL     1      34.311 -23.614 -15.374  0.00  0.00    +0.161 C 
ATOM      5  C   UNL     1      32.859 -22.946 -16.984  0.00  0.00    +0.149 C 
ATOM      6  C   UNL     1      33.314 -24.289 -14.704  0.00  0.00    +0.056 C 
ATOM      7  C   UNL     1      32.064 -24.228 -15.284  0.00  0.00    +0.114 C 
ATOM      8  H   UNL     1      31.683 -22.280 -18.486  0.00  0.00    +0.165 HD
ENDROOT
BRANCH   4  11
ATOM      9  N   UNL     1      36.449 -24.702 -14.680  0.00  0.00    -0.246 N 
ATOM     10  N   UNL     1      37.691 -22.937 -14.091  0.00  0.00    -0.227 NA
ATOM     11  C   UNL     1      35.667 -23.593 -14.878  0.00  0.00    +0.107 C 
ATOM     12  C   UNL     1      37.675 -24.249 -14.199  0.00  0.00    +0.139 C 
ATOM     13  C   UNL     1      36.451 -22.525 -14.510  0.00  0.00    +0.118 C 
ATOM     14  C   UNL     1      36.153 -26.045 -14.893  0.00  0.00    +0.071 C 
ATOM     15  C   UNL     1      38.664 -25.237 -13.917  0.00  0.00    +0.035 C 
ATOM     16  C   UNL     1      37.089 -26.970 -14.625  0.00  0.00    +0.017 C 
ATOM     17  C   UNL     1      38.384 -26.539 -14.120  0.00  0.00    +0.004 C 
ENDBRANCH   4  11
BRANCH   1  18
ATOM     18  C   UNL     1      33.456 -21.492 -19.032  0.00  0.00    +0.058 C 
ATOM     19  C   UNL     1      35.116 -20.008 -20.717  0.00  0.00    +0.122 C 
ATOM     20  C   UNL     1      34.835 -21.716 -19.032  0.00  0.00    +0.017 C 
ATOM     21  C   UNL     1      32.911 -20.524 -19.878  0.00  0.00    +0.017 C 
ATOM     22  C   UNL     1      35.663 -20.975 -19.873  0.00  0.00    +0.021 C 
ATOM     23  C   UNL     1      33.739 -19.782 -20.719  0.00  0.00    +0.021 C 
BRANCH  19  24
ATOM     24  S   UNL     1      36.154 -19.079 -21.770  0.00  0.00    +0.057 S 
ATOM     25  O   UNL     1      37.514 -19.151 -21.254  0.00  0.00    -0.153 OA
ATOM     26  O   UNL     1      35.881 -19.464 -23.147  0.00  0.00    -0.153 OA
BRANCH  24  27
ATOM     27  N   UNL     1      35.550 -17.500 -21.513  0.00  0.00    -0.203 NA
ATOM     28  H   UNL     1      36.269 -16.819 -21.753  0.00  0.00    +0.144 HD
ATOM     29  H   UNL     1      35.291 -17.391 -20.532  0.00  0.00    +0.144 HD
ENDBRANCH  24  27
ENDBRANCH  19  24
ENDBRANCH   1  18
TORSDOF 4
ENDMDL
MODEL 4
REMARK VINA RESULT:     -10.7      4.219      7.262
REMARK  Name = 5288527
REMARK  4 active torsions:
REMARK  status: ('A' for Active; 'I' for Inactive)
REMARK    1  A    between atoms: N_1  and  C_18
REMARK    2  A    between atoms: C_4  and  C_11
REMARK    3  A    between atoms: C_19  and  S_24
REMARK    4  A    between atoms: S_24  and  N_27
REMARK                            x       y       z     vdW  Elec       q    Type
REMARK                         _______ _______ _______ _____ _____    ______ ____
ROOT
ATOM      1  N   UNL     1      32.618 -22.317 -18.198  0.00  0.00    -0.247 N 
ATOM      2  N   UNL     1      34.040 -22.830 -16.404  0.00  0.00    -0.336 NA
ATOM      3  N   UNL     1      31.764 -23.620 -16.444  0.00  0.00    -0.170 NA
ATOM      4  C   UNL     1      34.191 -23.452 -15.218  0.00  0.00    +0.161 C 
ATOM      5  C   UNL     1      32.817 -22.954 -16.954  0.00  0.00    +0.149 C 
ATOM      6  C   UNL     1      33.196 -24.166 -14.588  0.00  0.00    +0.056 C 
ATOM      7  C   UNL     1      31.989 -24.217 -15.256  0.00  0.00    +0.114 C 
ATOM      8  H   UNL     1      31.711 -22.433 -18.563  0.00  0.00    +0.165 HD
ENDROOT
BRANCH   4  11
ATOM      9  N   UNL     1      35.817 -23.611 -13.329  0.00  0.00    -0.246 N 
ATOM     10  N   UNL     1      37.709 -22.906 -14.294  0.00  0.00    -0.227 NA
ATOM     11  C   UNL     1      35.503 -23.316 -14.632  0.00  0.00    +0.107 C 
ATOM     12  C   UNL     1      37.175 -23.344 -13.172  0.00  0.00    +0.139 C 
ATOM     13  C   UNL     1      36.679 -22.887 -15.200  0.00  0.00    +0.118 C 
ATOM     14  C   UNL     1      35.001 -24.086 -12.306  0.00  0.00    +0.071 C 
ATOM     15  C   UNL     1      37.735 -23.579 -11.882  0.00  0.00    +0.035 C 
ATOM     16  C   UNL     1      35.536 -24.304 -11.094  0.00  0.00    +0.017 C 
ATOM     17  C   UNL     1      36.951 -24.038 -10.887  0.00  0.00    +0.004 C 
ENDBRANCH   4  11
BRANCH   1  18
ATOM     18  C   UNL     1      33.463 -21.548 -19.021  0.00  0.00    +0.058 C 
ATOM     19  C   UNL     1      35.138 -20.022 -20.653  0.00  0.00    +0.122 C 
ATOM     20  C   UNL     1      34.842 -21.770 -19.012  0.00  0.00    +0.017 C 
ATOM     21  C   UNL     1      32.925 -20.560 -19.849  0.00  0.00    +0.017 C 
ATOM     22  C   UNL     1      35.678 -21.008 -19.827  0.00  0.00    +0.021 C 
ATOM     23  C   UNL     1      33.761 -19.798 -20.663  0.00  0.00    +0.021 C 
BRANCH  19  24
ATOM     24  S   UNL     1      36.185 -19.067 -21.673  0.00  0.00    +0.057 S 
ATOM     25  O   UNL     1      37.539 -19.148 -21.145  0.00  0.00    -0.153 OA
ATOM     26  O   UNL     1      35.927 -19.421 -23.062  0.00  0.00    -0.153 OA
BRANCH  24  27
ATOM     27  N   UNL     1      35.575 -17.496 -21.387  0.00  0.00    -0.203 NA
ATOM     28  H   UNL     1      34.617 -17.561 -21.045  0.00  0.00    +0.144 HD
ATOM     29  H   UNL     1      35.591 -16.962 -22.256  0.00  0.00    +0.144 HD
ENDBRANCH  24  27
ENDBRANCH  19  24
ENDBRANCH   1  18
TORSDOF 4
ENDMDL
MODEL 5
REMARK VINA RESULT:      -9.6      5.031      6.984
REMARK  Name = 5288527
REMARK  4 active torsions:
REMARK  status: ('A' for Active; 'I' for Inactive)
REMARK    1  A    between atoms: N_1  and  C_18
REMARK    2  A    between atoms: C_4  and  C_11
REMARK    3  A    between atoms: C_19  and  S_24
REMARK    4  A    between atoms: S_24  and  N_27
REMARK                            x       y       z     vdW  Elec       q    Type
REMARK                         _______ _______ _______ _____ _____    ______ ____
ROOT
ATOM      1  N   UNL     1      33.679 -23.894 -14.158  0.00  0.00    -0.247 N 
ATOM      2  N   UNL     1      34.937 -22.919 -15.881  0.00  0.00    -0.336 NA
ATOM      3  N   UNL     1      36.018 -23.956 -13.994  0.00  0.00    -0.170 NA
ATOM      4  C   UNL     1      36.160 -22.632 -16.371  0.00  0.00    +0.161 C 
ATOM      5  C   UNL     1      34.940 -23.573 -14.705  0.00  0.00    +0.149 C 
ATOM      6  C   UNL     1      37.340 -22.966 -15.745  0.00  0.00    +0.056 C 
ATOM      7  C   UNL     1      37.207 -23.635 -14.546  0.00  0.00    +0.114 C 
ATOM      8  H   UNL     1      33.729 -24.371 -13.298  0.00  0.00    +0.165 HD
ENDROOT
BRANCH   4  11
ATOM      9  N   UNL     1      35.029 -21.658 -18.374  0.00  0.00    -0.246 N 
ATOM     10  N   UNL     1      36.760 -20.808 -19.507  0.00  0.00    -0.227 NA
ATOM     11  C   UNL     1      36.151 -21.930 -17.632  0.00  0.00    +0.107 C 
ATOM     12  C   UNL     1      35.454 -20.971 -19.509  0.00  0.00    +0.139 C 
ATOM     13  C   UNL     1      37.197 -21.398 -18.349  0.00  0.00    +0.118 C 
ATOM     14  C   UNL     1      33.698 -21.971 -18.114  0.00  0.00    +0.071 C 
ATOM     15  C   UNL     1      34.448 -20.579 -20.440  0.00  0.00    +0.035 C 
ATOM     16  C   UNL     1      32.757 -21.597 -18.996  0.00  0.00    +0.017 C 
ATOM     17  C   UNL     1      33.158 -20.878 -20.196  0.00  0.00    +0.004 C 
ENDBRANCH   4  11
BRANCH   1  18
ATOM     18  C   UNL     1      32.363 -23.665 -14.601  0.00  0.00    +0.058 C 
ATOM     19  C   UNL     1      29.751 -23.211 -15.481  0.00  0.00    +0.122 C 
ATOM     20  C   UNL     1      31.425 -23.086 -13.743  0.00  0.00    +0.017 C 
ATOM     21  C   UNL     1      31.990 -24.015 -15.900  0.00  0.00    +0.017 C 
ATOM     22  C   UNL     1      30.121 -22.860 -14.182  0.00  0.00    +0.021 C 
ATOM     23  C   UNL     1      30.687 -23.789 -16.340  0.00  0.00    +0.021 C 
BRANCH  19  24
ATOM     24  S   UNL     1      28.119 -22.929 -16.031  0.00  0.00    +0.057 S 
ATOM     25  O   UNL     1      27.234 -22.951 -14.875  0.00  0.00    -0.153 OA
ATOM     26  O   UNL     1      28.122 -21.773 -16.917  0.00  0.00    -0.153 OA
BRANCH  24  27
ATOM     27  N   UNL     1      27.842 -24.334 -16.964  0.00  0.00    -0.203 NA
ATOM     28  H   UNL     1      26.872 -24.629 -16.853  0.00  0.00    +0.144 HD
ATOM     29  H   UNL     1      28.464 -25.079 -16.649  0.00  0.00    +0.144 HD
ENDBRANCH  24  27
ENDBRANCH  19  24
ENDBRANCH   1  18
TORSDOF 4
ENDMDL
MODEL 6
REMARK VINA RESULT:      -9.2      4.754      7.318
REMARK  Name = 5288527
REMARK  4 active torsions:
REMARK  status: ('A' for Active; 'I' for Inactive)
REMARK    1  A    between atoms: N_1  and  C_18
REMARK    2  A    between atoms: C_4  and  C_11
REMARK    3  A    between atoms: C_19  and  S_24
REMARK    4  A    between atoms: S_24  and  N_27
REMARK                            x       y       z     vdW  Elec       q    Type
REMARK                         _______ _______ _______ _____ _____    ______ ____
ROOT
ATOM      1  N   UNL     1      36.542 -22.334 -17.307  0.00  0.00    -0.247 N 
ATOM      2  N   UNL     1      34.364 -22.839 -16.599  0.00  0.00    -0.336 NA
ATOM      3  N   UNL     1      36.279 -23.693 -15.413  0.00  0.00    -0.170 NA
ATOM      4  C   UNL     1      33.579 -23.477 -15.707  0.00  0.00    +0.161 C 
ATOM      5  C   UNL     1      35.686 -22.988 -16.395  0.00  0.00    +0.149 C 
ATOM      6  C   UNL     1      34.058 -24.230 -14.658  0.00  0.00    +0.056 C 
ATOM      7  C   UNL     1      35.432 -24.304 -14.559  0.00  0.00    +0.114 C 
ATOM      8  H   UNL     1      37.499 -22.471 -17.120  0.00  0.00    +0.165 HD
ENDROOT
BRANCH   4  11
ATOM      9  N   UNL     1      31.178 -24.011 -15.274  0.00  0.00    -0.246 N 
ATOM     10  N   UNL     1      30.140 -22.635 -16.699  0.00  0.00    -0.227 NA
ATOM     11  C   UNL     1      32.162 -23.315 -15.930  0.00  0.00    +0.107 C 
ATOM     12  C   UNL     1      29.961 -23.559 -15.779  0.00  0.00    +0.139 C 
ATOM     13  C   UNL     1      31.499 -22.479 -16.797  0.00  0.00    +0.118 C 
ATOM     14  C   UNL     1      31.290 -24.988 -14.289  0.00  0.00    +0.071 C 
ATOM     15  C   UNL     1      28.780 -24.147 -15.239  0.00  0.00    +0.035 C 
ATOM     16  C   UNL     1      30.173 -25.537 -13.786  0.00  0.00    +0.017 C 
ATOM     17  C   UNL     1      28.880 -25.094 -14.286  0.00  0.00    +0.004 C 
ENDBRANCH   4  11
BRANCH   1  18
ATOM     18  C   UNL     1      36.296 -21.525 -18.432  0.00  0.00    +0.058 C 
ATOM     19  C   UNL     1      35.809 -19.920 -20.665  0.00  0.00    +0.122 C 
ATOM     20  C   UNL     1      35.065 -21.593 -19.089  0.00  0.00    +0.017 C 
ATOM     21  C   UNL     1      37.282 -20.652 -18.896  0.00  0.00    +0.017 C 
ATOM     22  C   UNL     1      34.822 -20.792 -20.204  0.00  0.00    +0.021 C 
ATOM     23  C   UNL     1      37.039 -19.850 -20.010  0.00  0.00    +0.021 C 
BRANCH  19  24
ATOM     24  S   UNL     1      35.505 -18.916 -22.061  0.00  0.00    +0.057 S 
ATOM     25  O   UNL     1      34.930 -19.749 -23.108  0.00  0.00    -0.153 OA
ATOM     26  O   UNL     1      34.806 -17.716 -21.625  0.00  0.00    -0.153 OA
BRANCH  24  27
ATOM     27  N   UNL     1      37.099 -18.490 -22.509  0.00  0.00    -0.203 NA
ATOM     28  H   UNL     1      37.090 -17.581 -22.971  0.00  0.00    +0.144 HD
ATOM     29  H   UNL     1      37.472 -19.193 -23.147  0.00  0.00    +0.144 HD
ENDBRANCH  24  27
ENDBRANCH  19  24
ENDBRANCH   1  18
TORSDOF 4
ENDMDL
MODEL 7
REMARK VINA RESULT:      -9.0      2.387      4.822
REMARK  Name = 5288527
REMARK  4 active torsions:
REMARK  status: ('A' for Active; 'I' for Inactive)
REMARK    1  A    between atoms: N_1  and  C_18
REMARK    2  A    between atoms: C_4  and  C_11
REMARK    3  A    between atoms: C_19  and  S_24
REMARK    4  A    between atoms: S_24  and  N_27
REMARK                            x       y       z     vdW  Elec       q    Type
REMARK                         _______ _______ _______ _____ _____    ______ ____
ROOT
ATOM      1  N   UNL     1      36.044 -22.966 -16.541  0.00  0.00    -0.247 N 
ATOM      2  N   UNL     1      33.698 -22.937 -16.510  0.00  0.00    -0.336 NA
ATOM      3  N   UNL     1      34.921 -22.079 -18.401  0.00  0.00    -0.170 NA
ATOM      4  C   UNL     1      32.559 -22.616 -17.155  0.00  0.00    +0.161 C 
ATOM      5  C   UNL     1      34.828 -22.645 -17.182  0.00  0.00    +0.149 C 
ATOM      6  C   UNL     1      32.515 -22.034 -18.403  0.00  0.00    +0.056 C 
ATOM      7  C   UNL     1      33.741 -21.786 -18.985  0.00  0.00    +0.114 C 
ATOM      8  H   UNL     1      36.843 -22.735 -17.069  0.00  0.00    +0.165 HD
ENDROOT
BRANCH   4  11
ATOM      9  N   UNL     1      31.295 -23.668 -15.276  0.00  0.00    -0.246 N 
ATOM     10  N   UNL     1      29.189 -23.088 -15.759  0.00  0.00    -0.227 NA
ATOM     11  C   UNL     1      31.350 -22.930 -16.431  0.00  0.00    +0.107 C 
ATOM     12  C   UNL     1      29.954 -23.737 -14.905  0.00  0.00    +0.139 C 
ATOM     13  C   UNL     1      30.047 -22.587 -16.704  0.00  0.00    +0.118 C 
ATOM     14  C   UNL     1      32.325 -24.265 -14.555  0.00  0.00    +0.071 C 
ATOM     15  C   UNL     1      29.648 -24.464 -13.718  0.00  0.00    +0.035 C 
ATOM     16  C   UNL     1      32.029 -24.948 -13.438  0.00  0.00    +0.017 C 
ATOM     17  C   UNL     1      30.640 -25.044 -13.015  0.00  0.00    +0.004 C 
ENDBRANCH   4  11
BRANCH   1  18
ATOM     18  C   UNL     1      36.338 -23.553 -15.296  0.00  0.00    +0.058 C 
ATOM     19  C   UNL     1      36.923 -24.715 -12.825  0.00  0.00    +0.122 C 
ATOM     20  C   UNL     1      36.048 -24.900 -15.070  0.00  0.00    +0.017 C 
ATOM     21  C   UNL     1      36.923 -22.789 -14.283  0.00  0.00    +0.017 C 
ATOM     22  C   UNL     1      36.339 -25.480 -13.836  0.00  0.00    +0.021 C 
ATOM     23  C   UNL     1      37.215 -23.369 -13.050  0.00  0.00    +0.021 C 
BRANCH  19  24
ATOM     24  S   UNL     1      37.288 -25.441 -11.280  0.00  0.00    +0.057 S 
ATOM     25  O   UNL     1      37.352 -26.885 -11.455  0.00  0.00    -0.153 OA
ATOM     26  O   UNL     1      38.416 -24.734 -10.691  0.00  0.00    -0.153 OA
BRANCH  24  27
ATOM     27  N   UNL     1      35.877 -25.055 -10.397  0.00  0.00    -0.203 NA
ATOM     28  H   UNL     1      35.095 -24.940 -11.040  0.00  0.00    +0.144 HD
ATOM     29  H   UNL     1      36.025 -24.186  -9.882  0.00  0.00    +0.144 HD
ENDBRANCH  24  27
ENDBRANCH  19  24
ENDBRANCH   1  18
TORSDOF 4
ENDMDL
MODEL 8
REMARK VINA RESULT:      -9.0     14.128     17.137
REMARK  Name = 5288527
REMARK  4 active torsions:
REMARK  status: ('A' for Active; 'I' for Inactive)
REMARK    1  A    between atoms: N_1  and  C_18
REMARK    2  A    between atoms: C_4  and  C_11
REMARK    3  A    between atoms: C_19  and  S_24
REMARK    4  A    between atoms: S_24  and  N_27
REMARK                            x       y       z     vdW  Elec       q    Type
REMARK                         _______ _______ _______ _____ _____    ______ ____
ROOT
ATOM      1  N   UNL     1      31.841  -8.470 -20.995  0.00  0.00    -0.247 N 
ATOM      2  N   UNL     1      32.406 -10.647 -21.664  0.00  0.00    -0.336 NA
ATOM      3  N   UNL     1      31.282 -10.248 -19.570  0.00  0.00    -0.170 NA
ATOM      4  C   UNL     1      32.387 -11.963 -21.375  0.00  0.00    +0.161 C 
ATOM      5  C   UNL     1      31.843  -9.857 -20.730  0.00  0.00    +0.149 C 
ATOM      6  C   UNL     1      31.846 -12.494 -20.226  0.00  0.00    +0.056 C 
ATOM      7  C   UNL     1      31.301 -11.579 -19.349  0.00  0.00    +0.114 C 
ATOM      8  H   UNL     1      31.420  -7.932 -20.286  0.00  0.00    +0.165 HD
ENDROOT
BRANCH   4  11
ATOM      9  N   UNL     1      33.629 -13.995 -22.128  0.00  0.00    -0.246 N 
ATOM     10  N   UNL     1      33.734 -13.674 -24.340  0.00  0.00    -0.227 NA
ATOM     11  C   UNL     1      32.992 -12.806 -22.379  0.00  0.00    +0.107 C 
ATOM     12  C   UNL     1      34.064 -14.486 -23.357  0.00  0.00    +0.139 C 
ATOM     13  C   UNL     1      33.071 -12.633 -23.741  0.00  0.00    +0.118 C 
ATOM     14  C   UNL     1      33.841 -14.649 -20.918  0.00  0.00    +0.071 C 
ATOM     15  C   UNL     1      34.763 -15.729 -23.346  0.00  0.00    +0.035 C 
ATOM     16  C   UNL     1      34.499 -15.819 -20.916  0.00  0.00    +0.017 C 
ATOM     17  C   UNL     1      34.972 -16.367 -22.178  0.00  0.00    +0.004 C 
ENDBRANCH   4  11
BRANCH   1  18
ATOM     18  C   UNL     1      32.322  -7.706 -22.075  0.00  0.00    +0.058 C 
ATOM     19  C   UNL     1      33.274  -6.190 -24.218  0.00  0.00    +0.122 C 
ATOM     20  C   UNL     1      33.687  -7.435 -22.189  0.00  0.00    +0.017 C 
ATOM     21  C   UNL     1      31.435  -7.216 -23.036  0.00  0.00    +0.017 C 
ATOM     22  C   UNL     1      34.163  -6.678 -23.259  0.00  0.00    +0.021 C 
ATOM     23  C   UNL     1      31.910  -6.459 -24.106  0.00  0.00    +0.021 C 
BRANCH  19  24
ATOM     24  S   UNL     1      33.869  -5.241 -25.557  0.00  0.00    +0.057 S 
ATOM     25  O   UNL     1      35.324  -5.208 -25.486  0.00  0.00    -0.153 OA
ATOM     26  O   UNL     1      33.215  -5.698 -26.775  0.00  0.00    -0.153 OA
BRANCH  24  27
ATOM     27  N   UNL     1      33.263  -3.694 -25.156  0.00  0.00    -0.203 NA
ATOM     28  H   UNL     1      33.928  -2.981 -25.455  0.00  0.00    +0.144 HD
ATOM     29  H   UNL     1      33.128  -3.633 -24.146  0.00  0.00    +0.144 HD
ENDBRANCH  24  27
ENDBRANCH  19  24
ENDBRANCH   1  18
TORSDOF 4
ENDMDL
MODEL 9
REMARK VINA RESULT:      -8.7     13.412     16.082
REMARK  Name = 5288527
REMARK  4 active torsions:
REMARK  status: ('A' for Active; 'I' for Inactive)
REMARK    1  A    between atoms: N_1  and  C_18
REMARK    2  A    between atoms: C_4  and  C_11
REMARK    3  A    between atoms: C_19  and  S_24
REMARK    4  A    between atoms: S_24  and  N_27
REMARK                            x       y       z     vdW  Elec       q    Type
REMARK                         _______ _______ _______ _____ _____    ______ ____
ROOT
ATOM      1  N   UNL     1      32.633 -12.551 -20.833  0.00  0.00    -0.247 N 
ATOM      2  N   UNL     1      32.301 -10.334 -21.525  0.00  0.00    -0.336 NA
ATOM      3  N   UNL     1      32.031 -10.962 -19.215  0.00  0.00    -0.170 NA
ATOM      4  C   UNL     1      31.985  -9.072 -21.176  0.00  0.00    +0.161 C 
ATOM      5  C   UNL     1      32.305 -11.217 -20.508  0.00  0.00    +0.149 C 
ATOM      6  C   UNL     1      31.684  -8.678 -19.891  0.00  0.00    +0.056 C 
ATOM      7  C   UNL     1      31.723  -9.678 -18.940  0.00  0.00    +0.114 C 
ATOM      8  H   UNL     1      32.624 -13.161 -20.060  0.00  0.00    +0.165 HD
ENDROOT
BRANCH   4  11
ATOM      9  N   UNL     1      33.102  -7.591 -22.848  0.00  0.00    -0.246 N 
ATOM     10  N   UNL     1      31.349  -6.720 -23.931  0.00  0.00    -0.227 NA
ATOM     11  C   UNL     1      31.981  -8.129 -22.269  0.00  0.00    +0.107 C 
ATOM     12  C   UNL     1      32.664  -6.737 -23.857  0.00  0.00    +0.139 C 
ATOM     13  C   UNL     1      30.921  -7.579 -22.951  0.00  0.00    +0.118 C 
ATOM     14  C   UNL     1      34.444  -7.804 -22.547  0.00  0.00    +0.071 C 
ATOM     15  C   UNL     1      33.666  -6.055 -24.608  0.00  0.00    +0.035 C 
ATOM     16  C   UNL     1      35.382  -7.158 -23.258  0.00  0.00    +0.017 C 
ATOM     17  C   UNL     1      34.967  -6.256 -24.321  0.00  0.00    +0.004 C 
ENDBRANCH   4  11
BRANCH   1  18
ATOM     18  C   UNL     1      32.971 -13.181 -22.045  0.00  0.00    +0.058 C 
ATOM     19  C   UNL     1      33.642 -14.433 -24.450  0.00  0.00    +0.122 C 
ATOM     20  C   UNL     1      32.865 -12.484 -23.251  0.00  0.00    +0.017 C 
ATOM     21  C   UNL     1      33.413 -14.506 -22.046  0.00  0.00    +0.017 C 
ATOM     22  C   UNL     1      33.200 -13.109 -24.451  0.00  0.00    +0.021 C 
ATOM     23  C   UNL     1      33.748 -15.131 -23.247  0.00  0.00    +0.021 C 
BRANCH  19  24
ATOM     24  S   UNL     1      34.060 -15.216 -25.953  0.00  0.00    +0.057 S 
ATOM     25  O   UNL     1      34.399 -14.188 -26.927  0.00  0.00    -0.153 OA
ATOM     26  O   UNL     1      35.007 -16.285 -25.670  0.00  0.00    -0.153 OA
BRANCH  24  27
ATOM     27  N   UNL     1      32.561 -15.913 -26.386  0.00  0.00    -0.203 NA
ATOM     28  H   UNL     1      32.095 -15.318 -27.071  0.00  0.00    +0.144 HD
ATOM     29  H   UNL     1      31.975 -16.001 -25.556  0.00  0.00    +0.144 HD
ENDBRANCH  24  27
ENDBRANCH  19  24
ENDBRANCH   1  18
TORSDOF 4
ENDMDL
