MODEL 1
REMARK VINA RESULT:     -13.0      0.000      0.000
REMARK  Name = 11987860
REMARK  5 active torsions:
REMARK  status: ('A' for Active; 'I' for Inactive)
REMARK    1  A    between atoms: N_2  and  C_19
REMARK    2  A    between atoms: C_3  and  C_11
REMARK    3  A    between atoms: N_9  and  O_17
REMARK    4  A    between atoms: C_19  and  C_20
REMARK    5  A    between atoms: C_23  and  C_26
REMARK                            x       y       z     vdW  Elec       q    Type
REMARK                         _______ _______ _______ _____ _____    ______ ____
ROOT
ATOM      1  O   UNL     1      33.687 -24.024 -14.863  0.00  0.00    -0.272 OA
ATOM      2  N   UNL     1      34.654 -23.505 -16.916  0.00  0.00    -0.298 N 
ATOM      3  C   UNL     1      34.664 -23.943 -15.603  0.00  0.00    +0.253 C 
ATOM      4  H   UNL     1      35.506 -23.486 -17.410  0.00  0.00    +0.150 HD
ENDROOT
BRANCH   3  11
ATOM      5  O   UNL     1      36.039 -23.804 -12.922  0.00  0.00    -0.327 OA
ATOM      6  O   UNL     1      35.854 -25.569 -14.421  0.00  0.00    -0.320 OA
ATOM      7  O   UNL     1      40.692 -24.584 -14.424  0.00  0.00    -0.250 OA
ATOM      8  N   UNL     1      38.542 -24.881 -13.602  0.00  0.00    -0.255 N 
ATOM      9  N   UNL     1      40.147 -26.591 -13.463  0.00  0.00    -0.181 N 
ATOM     10  C   UNL     1      36.627 -23.372 -14.157  0.00  0.00    +0.174 C 
ATOM     11  C   UNL     1      36.030 -24.353 -15.152  0.00  0.00    +0.222 C 
ATOM     12  C   UNL     1      36.144 -25.224 -13.058  0.00  0.00    +0.256 C 
ATOM     13  C   UNL     1      38.144 -23.523 -14.003  0.00  0.00    +0.128 C 
ATOM     14  C   UNL     1      37.588 -25.626 -12.755  0.00  0.00    +0.156 C 
ATOM     15  C   UNL     1      39.858 -25.304 -13.867  0.00  0.00    +0.326 C 
ATOM     16  H   UNL     1      39.483 -27.165 -13.019  0.00  0.00    +0.184 HD
BRANCH   9  17
ATOM     17  O   UNL     1      41.456 -27.022 -13.729  0.00  0.00    -0.294 OA
ATOM     18  H   UNL     1      42.088 -26.375 -13.376  0.00  0.00    +0.241 HD
ENDBRANCH   9  17
ENDBRANCH   3  11
BRANCH   2  19
ATOM     19  C   UNL     1      33.454 -23.075 -17.597  0.00  0.00    +0.116 C 
BRANCH  19  20
ATOM     20  C   UNL     1      33.781 -22.040 -18.637  0.00  0.00    -0.003 C 
ATOM     21  C   UNL     1      35.103 -21.846 -19.020  0.00  0.00    -0.003 C 
ATOM     22  C   UNL     1      32.758 -21.290 -19.203  0.00  0.00    -0.003 C 
ATOM     23  C   UNL     1      34.386 -20.128 -20.559  0.00  0.00    -0.000 C 
ATOM     24  C   UNL     1      35.405 -20.886 -19.985  0.00  0.00    -0.000 C 
ATOM     25  C   UNL     1      33.062 -20.330 -20.168  0.00  0.00    -0.000 C 
BRANCH  23  26
ATOM     26  C   UNL     1      34.699 -19.132 -21.561  0.00  0.00    -0.000 C 
ATOM     27  C   UNL     1      34.694 -19.477 -22.913  0.00  0.00    -0.000 C 
ATOM     28  C   UNL     1      35.005 -17.828 -21.176  0.00  0.00    -0.000 C 
ATOM     29  C   UNL     1      34.996 -18.517 -23.879  0.00  0.00    +0.000 C 
ATOM     30  C   UNL     1      35.307 -16.867 -22.141  0.00  0.00    +0.000 C 
ATOM     31  C   UNL     1      35.303 -17.212 -23.493  0.00  0.00    +0.000 C 
ENDBRANCH  23  26
ENDBRANCH  19  20
ENDBRANCH   2  19
TORSDOF 5
ENDMDL
MODEL 2
REMARK VINA RESULT:     -11.7      1.796      2.136
REMARK  Name = 11987860
REMARK  5 active torsions:
REMARK  status: ('A' for Active; 'I' for Inactive)
REMARK    1  A    between atoms: N_2  and  C_19
REMARK    2  A    between atoms: C_3  and  C_11
REMARK    3  A    between atoms: N_9  and  O_17
REMARK    4  A    between atoms: C_19  and  C_20
REMARK    5  A    between atoms: C_23  and  C_26
REMARK                            x       y       z     vdW  Elec       q    Type
REMARK                         _______ _______ _______ _____ _____    ______ ____
ROOT
ATOM      1  O   UNL     1      32.601 -22.965 -15.386  0.00  0.00    -0.272 OA
ATOM      2  N   UNL     1      34.303 -23.352 -16.926  0.00  0.00    -0.298 N 
ATOM      3  C   UNL     1      33.783 -23.155 -15.659  0.00  0.00    +0.253 C 
ATOM      4  H   UNL     1      35.273 -23.495 -17.018  0.00  0.00    +0.150 HD
ENDROOT
BRANCH   3  11
ATOM      5  O   UNL     1      34.808 -25.426 -13.959  0.00  0.00    -0.327 OA
ATOM      6  O   UNL     1      35.968 -23.848 -15.207  0.00  0.00    -0.320 OA
ATOM      7  O   UNL     1      37.248 -22.779 -10.560  0.00  0.00    -0.250 OA
ATOM      8  N   UNL     1      36.720 -24.061 -12.423  0.00  0.00    -0.255 N 
ATOM      9  N   UNL     1      38.953 -23.638 -11.826  0.00  0.00    -0.181 N 
ATOM     10  C   UNL     1      34.443 -24.136 -13.451  0.00  0.00    +0.174 C 
ATOM     11  C   UNL     1      34.836 -23.221 -14.599  0.00  0.00    +0.222 C 
ATOM     12  C   UNL     1      36.069 -25.128 -14.567  0.00  0.00    +0.256 C 
ATOM     13  C   UNL     1      35.277 -23.905 -12.187  0.00  0.00    +0.128 C 
ATOM     14  C   UNL     1      37.119 -25.034 -13.460  0.00  0.00    +0.156 C 
ATOM     15  C   UNL     1      37.620 -23.446 -11.531  0.00  0.00    +0.326 C 
ATOM     16  H   UNL     1      39.251 -24.169 -12.599  0.00  0.00    +0.184 HD
BRANCH   9  17
ATOM     17  O   UNL     1      39.856 -23.024 -10.945  0.00  0.00    -0.294 OA
ATOM     18  H   UNL     1      40.542 -22.562 -11.454  0.00  0.00    +0.241 HD
ENDBRANCH   9  17
ENDBRANCH   3  11
BRANCH   2  19
ATOM     19  C   UNL     1      33.490 -23.358 -18.121  0.00  0.00    +0.116 C 
BRANCH  19  20
ATOM     20  C   UNL     1      33.826 -22.181 -18.994  0.00  0.00    -0.003 C 
ATOM     21  C   UNL     1      35.153 -21.926 -19.319  0.00  0.00    -0.003 C 
ATOM     22  C   UNL     1      32.808 -21.363 -19.465  0.00  0.00    -0.003 C 
ATOM     23  C   UNL     1      34.450 -20.007 -20.606  0.00  0.00    -0.000 C 
ATOM     24  C   UNL     1      35.465 -20.834 -20.128  0.00  0.00    -0.000 C 
ATOM     25  C   UNL     1      33.121 -20.272 -20.274  0.00  0.00    -0.000 C 
BRANCH  23  26
ATOM     26  C   UNL     1      34.774 -18.874 -21.447  0.00  0.00    -0.000 C 
ATOM     27  C   UNL     1      34.945 -19.052 -22.819  0.00  0.00    -0.000 C 
ATOM     28  C   UNL     1      34.913 -17.606 -20.884  0.00  0.00    -0.000 C 
ATOM     29  C   UNL     1      35.256 -17.960 -23.630  0.00  0.00    +0.000 C 
ATOM     30  C   UNL     1      35.224 -16.514 -21.694  0.00  0.00    +0.000 C 
ATOM     31  C   UNL     1      35.396 -16.691 -23.067  0.00  0.00    +0.000 C 
ENDBRANCH  23  26
ENDBRANCH  19  20
ENDBRANCH   2  19
TORSDOF 5
ENDMDL
MODEL 3
REMARK VINA RESULT:     -11.7      8.639     13.039
REMARK  Name = 11987860
REMARK  5 active torsions:
REMARK  status: ('A' for Active; 'I' for Inactive)
REMARK    1  A    between atoms: N_2  and  C_19
REMARK    2  A    between atoms: C_3  and  C_11
REMARK    3  A    between atoms: N_9  and  O_17
REMARK    4  A    between atoms: C_19  and  C_20
REMARK    5  A    between atoms: C_23  and  C_26
REMARK                            x       y       z     vdW  Elec       q    Type
REMARK                         _______ _______ _______ _____ _____    ______ ____
ROOT
ATOM      1  O   UNL     1      32.992 -15.003 -26.144  0.00  0.00    -0.272 OA
ATOM      2  N   UNL     1      34.359 -15.345 -24.291  0.00  0.00    -0.298 N 
ATOM      3  C   UNL     1      33.429 -14.656 -25.050  0.00  0.00    +0.253 C 
ATOM      4  H   UNL     1      34.633 -14.963 -23.426  0.00  0.00    +0.150 HD
ENDROOT
BRANCH   3  11
ATOM      5  O   UNL     1      34.754 -12.806 -23.071  0.00  0.00    -0.327 OA
ATOM      6  O   UNL     1      33.626 -12.328 -25.044  0.00  0.00    -0.320 OA
ATOM      7  O   UNL     1      30.748 -10.308 -21.578  0.00  0.00    -0.250 OA
ATOM      8  N   UNL     1      32.688 -10.945 -22.684  0.00  0.00    -0.255 N 
ATOM      9  N   UNL     1      31.800  -8.783 -22.926  0.00  0.00    -0.181 N 
ATOM     10  C   UNL     1      33.424 -13.322 -22.931  0.00  0.00    +0.174 C 
ATOM     11  C   UNL     1      32.963 -13.405 -24.377  0.00  0.00    +0.222 C 
ATOM     12  C   UNL     1      34.551 -11.809 -24.077  0.00  0.00    +0.256 C 
ATOM     13  C   UNL     1      32.635 -12.297 -22.109  0.00  0.00    +0.128 C 
ATOM     14  C   UNL     1      33.921 -10.585 -23.414  0.00  0.00    +0.156 C 
ATOM     15  C   UNL     1      31.678 -10.026 -22.341  0.00  0.00    +0.326 C 
ATOM     16  H   UNL     1      32.540  -8.557 -23.534  0.00  0.00    +0.184 HD
BRANCH   9  17
ATOM     17  O   UNL     1      30.794  -7.863 -22.594  0.00  0.00    -0.294 OA
ATOM     18  H   UNL     1      30.139  -7.827 -23.309  0.00  0.00    +0.241 HD
ENDBRANCH   9  17
ENDBRANCH   3  11
BRANCH   2  19
ATOM     19  C   UNL     1      34.949 -16.596 -24.709  0.00  0.00    +0.116 C 
BRANCH  19  20
ATOM     20  C   UNL     1      34.926 -17.592 -23.583  0.00  0.00    -0.003 C 
ATOM     21  C   UNL     1      35.163 -17.162 -22.283  0.00  0.00    -0.003 C 
ATOM     22  C   UNL     1      34.667 -18.929 -23.854  0.00  0.00    -0.003 C 
ATOM     23  C   UNL     1      34.883 -19.430 -21.501  0.00  0.00    -0.000 C 
ATOM     24  C   UNL     1      35.142 -18.086 -21.238  0.00  0.00    -0.000 C 
ATOM     25  C   UNL     1      34.645 -19.852 -22.809  0.00  0.00    -0.000 C 
BRANCH  23  26
ATOM     26  C   UNL     1      34.859 -20.389 -20.417  0.00  0.00    -0.000 C 
ATOM     27  C   UNL     1      36.056 -20.847 -19.866  0.00  0.00    -0.000 C 
ATOM     28  C   UNL     1      33.641 -20.852 -19.922  0.00  0.00    -0.000 C 
ATOM     29  C   UNL     1      36.033 -21.771 -18.820  0.00  0.00    +0.000 C 
ATOM     30  C   UNL     1      33.618 -21.775 -18.877  0.00  0.00    +0.000 C 
ATOM     31  C   UNL     1      34.814 -22.235 -18.326  0.00  0.00    +0.000 C 
ENDBRANCH  23  26
ENDBRANCH  19  20
ENDBRANCH   2  19
TORSDOF 5
ENDMDL
MODEL 4
REMARK VINA RESULT:     -11.1      9.720     13.506
REMARK  Name = 11987860
REMARK  5 active torsions:
REMARK  status: ('A' for Active; 'I' for Inactive)
REMARK    1  A    between atoms: N_2  and  C_19
REMARK    2  A    between atoms: C_3  and  C_11
REMARK    3  A    between atoms: N_9  and  O_17
REMARK    4  A    between atoms: C_19  and  C_20
REMARK    5  A    between atoms: C_23  and  C_26
REMARK                            x       y       z     vdW  Elec       q    Type
REMARK                         _______ _______ _______ _____ _____    ______ ____
ROOT
ATOM      1  O   UNL     1      31.577 -12.738 -20.076  0.00  0.00    -0.272 OA
ATOM      2  N   UNL     1      32.173 -11.480 -21.941  0.00  0.00    -0.298 N 
ATOM      3  C   UNL     1      32.113 -12.631 -21.175  0.00  0.00    +0.253 C 
ATOM      4  H   UNL     1      32.633 -11.520 -22.811  0.00  0.00    +0.150 HD
ENDROOT
BRANCH   3  11
ATOM      5  O   UNL     1      34.891 -13.789 -20.974  0.00  0.00    -0.327 OA
ATOM      6  O   UNL     1      32.821 -14.837 -20.871  0.00  0.00    -0.320 OA
ATOM      7  O   UNL     1      34.805 -16.656 -25.010  0.00  0.00    -0.250 OA
ATOM      8  N   UNL     1      34.678 -15.893 -22.821  0.00  0.00    -0.255 N 
ATOM      9  N   UNL     1      34.601 -18.188 -23.319  0.00  0.00    -0.181 N 
ATOM     10  C   UNL     1      34.217 -13.512 -22.209  0.00  0.00    +0.174 C 
ATOM     11  C   UNL     1      32.768 -13.795 -21.849  0.00  0.00    +0.222 C 
ATOM     12  C   UNL     1      34.215 -14.979 -20.560  0.00  0.00    +0.256 C 
ATOM     13  C   UNL     1      34.777 -14.489 -23.248  0.00  0.00    +0.128 C 
ATOM     14  C   UNL     1      34.774 -16.150 -21.369  0.00  0.00    +0.156 C 
ATOM     15  C   UNL     1      34.704 -16.901 -23.803  0.00  0.00    +0.326 C 
ATOM     16  H   UNL     1      34.520 -18.384 -22.358  0.00  0.00    +0.184 HD
BRANCH   9  17
ATOM     17  O   UNL     1      34.620 -19.198 -24.293  0.00  0.00    -0.294 OA
ATOM     18  H   UNL     1      34.871 -20.040 -23.880  0.00  0.00    +0.241 HD
ENDBRANCH   9  17
ENDBRANCH   3  11
BRANCH   2  19
ATOM     19  C   UNL     1      31.595 -10.223 -21.525  0.00  0.00    +0.116 C 
BRANCH  19  20
ATOM     20  C   UNL     1      32.106  -9.098 -22.381  0.00  0.00    -0.003 C 
ATOM     21  C   UNL     1      33.456  -9.046 -22.710  0.00  0.00    -0.003 C 
ATOM     22  C   UNL     1      31.226  -8.124 -22.832  0.00  0.00    -0.003 C 
ATOM     23  C   UNL     1      33.054  -7.020 -23.961  0.00  0.00    -0.000 C 
ATOM     24  C   UNL     1      33.930  -8.002 -23.504  0.00  0.00    -0.000 C 
ATOM     25  C   UNL     1      31.701  -7.080 -23.626  0.00  0.00    -0.000 C 
BRANCH  23  26
ATOM     26  C   UNL     1      33.546  -5.937 -24.786  0.00  0.00    -0.000 C 
ATOM     27  C   UNL     1      34.834  -5.995 -25.317  0.00  0.00    -0.000 C 
ATOM     28  C   UNL     1      32.731  -4.837 -25.051  0.00  0.00    -0.000 C 
ATOM     29  C   UNL     1      35.309  -4.952 -26.113  0.00  0.00    +0.000 C 
ATOM     30  C   UNL     1      33.205  -3.793 -25.846  0.00  0.00    +0.000 C 
ATOM     31  C   UNL     1      34.494  -3.850 -26.377  0.00  0.00    +0.000 C 
ENDBRANCH  23  26
ENDBRANCH  19  20
ENDBRANCH   2  19
TORSDOF 5
ENDMDL
MODEL 5
REMARK VINA RESULT:     -10.7      8.479     12.514
REMARK  Name = 11987860
REMARK  5 active torsions:
REMARK  status: ('A' for Active; 'I' for Inactive)
REMARK    1  A    between atoms: N_2  and  C_19
REMARK    2  A    between atoms: C_3  and  C_11
REMARK    3  A    between atoms: N_9  and  O_17
REMARK    4  A    between atoms: C_19  and  C_20
REMARK    5  A    between atoms: C_23  and  C_26
REMARK                            x       y       z     vdW  Elec       q    Type
REMARK                         _______ _______ _______ _____ _____    ______ ____
ROOT
ATOM      1  O   UNL     1      32.742 -14.169 -24.534  0.00  0.00    -0.272 OA
ATOM      2  N   UNL     1      34.704 -14.363 -23.296  0.00  0.00    -0.298 N 
ATOM      3  C   UNL     1      33.501 -13.777 -23.651  0.00  0.00    +0.253 C 
ATOM      4  H   UNL     1      35.227 -13.954 -22.568  0.00  0.00    +0.150 HD
ENDROOT
BRANCH   3  11
ATOM      5  O   UNL     1      31.620 -13.384 -21.327  0.00  0.00    -0.327 OA
ATOM      6  O   UNL     1      33.853 -12.790 -21.563  0.00  0.00    -0.320 OA
ATOM      7  O   UNL     1      31.552  -8.434 -21.245  0.00  0.00    -0.250 OA
ATOM      8  N   UNL     1      32.050 -10.659 -20.807  0.00  0.00    -0.255 N 
ATOM      9  N   UNL     1      32.863  -8.934 -19.434  0.00  0.00    -0.181 N 
ATOM     10  C   UNL     1      31.705 -12.505 -22.457  0.00  0.00    +0.174 C 
ATOM     11  C   UNL     1      33.181 -12.584 -22.809  0.00  0.00    +0.222 C 
ATOM     12  C   UNL     1      32.803 -13.016 -20.611  0.00  0.00    +0.256 C 
ATOM     13  C   UNL     1      31.278 -11.116 -21.972  0.00  0.00    +0.128 C 
ATOM     14  C   UNL     1      32.526 -11.704 -19.877  0.00  0.00    +0.156 C 
ATOM     15  C   UNL     1      32.115  -9.278 -20.541  0.00  0.00    +0.326 C 
ATOM     16  H   UNL     1      33.312  -9.605 -18.872  0.00  0.00    +0.184 HD
BRANCH   9  17
ATOM     17  O   UNL     1      32.937  -7.558 -19.165  0.00  0.00    -0.294 OA
ATOM     18  H   UNL     1      33.856  -7.316 -18.966  0.00  0.00    +0.241 HD
ENDBRANCH   9  17
ENDBRANCH   3  11
BRANCH   2  19
ATOM     19  C   UNL     1      35.230 -15.543 -23.942  0.00  0.00    +0.116 C 
BRANCH  19  20
ATOM     20  C   UNL     1      35.098 -16.740 -23.042  0.00  0.00    -0.003 C 
ATOM     21  C   UNL     1      35.042 -18.013 -23.598  0.00  0.00    -0.003 C 
ATOM     22  C   UNL     1      35.035 -16.560 -21.667  0.00  0.00    -0.003 C 
ATOM     23  C   UNL     1      34.856 -18.952 -21.380  0.00  0.00    -0.000 C 
ATOM     24  C   UNL     1      34.920 -19.123 -22.762  0.00  0.00    -0.000 C 
ATOM     25  C   UNL     1      34.913 -17.671 -20.832  0.00  0.00    -0.000 C 
BRANCH  23  26
ATOM     26  C   UNL     1      34.730 -20.104 -20.513  0.00  0.00    -0.000 C 
ATOM     27  C   UNL     1      35.872 -20.771 -20.070  0.00  0.00    -0.000 C 
ATOM     28  C   UNL     1      33.467 -20.546 -20.120  0.00  0.00    -0.000 C 
ATOM     29  C   UNL     1      35.751 -21.881 -19.233  0.00  0.00    +0.000 C 
ATOM     30  C   UNL     1      33.346 -21.655 -19.283  0.00  0.00    +0.000 C 
ATOM     31  C   UNL     1      34.487 -22.324 -18.840  0.00  0.00    +0.000 C 
ENDBRANCH  23  26
ENDBRANCH  19  20
ENDBRANCH   2  19
TORSDOF 5
ENDMDL
MODEL 6
REMARK VINA RESULT:     -10.6      3.989      6.448
REMARK  Name = 11987860
REMARK  5 active torsions:
REMARK  status: ('A' for Active; 'I' for Inactive)
REMARK    1  A    between atoms: N_2  and  C_19
REMARK    2  A    between atoms: C_3  and  C_11
REMARK    3  A    between atoms: N_9  and  O_17
REMARK    4  A    between atoms: C_19  and  C_20
REMARK    5  A    between atoms: C_23  and  C_26
REMARK                            x       y       z     vdW  Elec       q    Type
REMARK                         _______ _______ _______ _____ _____    ______ ____
ROOT
ATOM      1  O   UNL     1      34.389 -23.857 -16.129  0.00  0.00    -0.272 OA
ATOM      2  N   UNL     1      33.781 -22.533 -17.945  0.00  0.00    -0.298 N 
ATOM      3  C   UNL     1      33.541 -23.281 -16.806  0.00  0.00    +0.253 C 
ATOM      4  H   UNL     1      33.015 -22.118 -18.403  0.00  0.00    +0.150 HD
ENDROOT
BRANCH   3  11
ATOM      5  O   UNL     1      32.103 -24.057 -14.270  0.00  0.00    -0.327 OA
ATOM      6  O   UNL     1      31.876 -22.169 -15.603  0.00  0.00    -0.320 OA
ATOM      7  O   UNL     1      27.515 -24.432 -16.093  0.00  0.00    -0.250 OA
ATOM      8  N   UNL     1      29.444 -23.643 -15.071  0.00  0.00    -0.255 N 
ATOM      9  N   UNL     1      27.420 -22.458 -14.933  0.00  0.00    -0.181 N 
ATOM     10  C   UNL     1      31.734 -24.508 -15.580  0.00  0.00    +0.174 C 
ATOM     11  C   UNL     1      32.091 -23.308 -16.441  0.00  0.00    +0.222 C 
ATOM     12  C   UNL     1      31.613 -22.713 -14.301  0.00  0.00    +0.256 C 
ATOM     13  C   UNL     1      30.229 -24.793 -15.544  0.00  0.00    +0.128 C 
ATOM     14  C   UNL     1      30.100 -22.754 -14.090  0.00  0.00    +0.156 C 
ATOM     15  C   UNL     1      28.080 -23.570 -15.412  0.00  0.00    +0.326 C 
ATOM     16  H   UNL     1      27.869 -21.772 -14.391  0.00  0.00    +0.184 HD
BRANCH   9  17
ATOM     17  O   UNL     1      26.060 -22.377 -15.273  0.00  0.00    -0.294 OA
ATOM     18  H   UNL     1      25.624 -23.219 -15.068  0.00  0.00    +0.241 HD
ENDBRANCH   9  17
ENDBRANCH   3  11
BRANCH   2  19
ATOM     19  C   UNL     1      35.103 -22.333 -18.494  0.00  0.00    +0.116 C 
BRANCH  19  20
ATOM     20  C   UNL     1      35.088 -21.228 -19.514  0.00  0.00    -0.003 C 
ATOM     21  C   UNL     1      36.290 -20.695 -19.964  0.00  0.00    -0.003 C 
ATOM     22  C   UNL     1      33.875 -20.754 -19.994  0.00  0.00    -0.003 C 
ATOM     23  C   UNL     1      35.063 -19.187 -21.398  0.00  0.00    -0.000 C 
ATOM     24  C   UNL     1      36.276 -19.670 -20.910  0.00  0.00    -0.000 C 
ATOM     25  C   UNL     1      33.862 -19.729 -20.940  0.00  0.00    -0.000 C 
BRANCH  23  26
ATOM     26  C   UNL     1      35.049 -18.124 -22.380  0.00  0.00    -0.000 C 
ATOM     27  C   UNL     1      35.177 -16.797 -21.973  0.00  0.00    -0.000 C 
ATOM     28  C   UNL     1      34.908 -18.428 -23.734  0.00  0.00    -0.000 C 
ATOM     29  C   UNL     1      35.164 -15.772 -22.919  0.00  0.00    +0.000 C 
ATOM     30  C   UNL     1      34.895 -17.405 -24.681  0.00  0.00    +0.000 C 
ATOM     31  C   UNL     1      35.023 -16.076 -24.274  0.00  0.00    +0.000 C 
ENDBRANCH  23  26
ENDBRANCH  19  20
ENDBRANCH   2  19
TORSDOF 5
ENDMDL
MODEL 7
REMARK VINA RESULT:     -10.5     12.528     16.839
REMARK  Name = 11987860
REMARK  5 active torsions:
REMARK  status: ('A' for Active; 'I' for Inactive)
REMARK    1  A    between atoms: N_2  and  C_19
REMARK    2  A    between atoms: C_3  and  C_11
REMARK    3  A    between atoms: N_9  and  O_17
REMARK    4  A    between atoms: C_19  and  C_20
REMARK    5  A    between atoms: C_23  and  C_26
REMARK                            x       y       z     vdW  Elec       q    Type
REMARK                         _______ _______ _______ _____ _____    ______ ____
ROOT
ATOM      1  O   UNL     1      33.066  -7.921 -19.577  0.00  0.00    -0.272 OA
ATOM      2  N   UNL     1      31.737  -9.120 -21.065  0.00  0.00    -0.298 N 
ATOM      3  C   UNL     1      32.474  -8.025 -20.648  0.00  0.00    +0.253 C 
ATOM      4  H   UNL     1      31.306  -9.085 -21.950  0.00  0.00    +0.150 HD
ENDROOT
BRANCH   3  11
ATOM      5  O   UNL     1      30.424  -7.053 -22.635  0.00  0.00    -0.327 OA
ATOM      6  O   UNL     1      31.737  -5.862 -21.135  0.00  0.00    -0.320 OA
ATOM      7  O   UNL     1      33.403  -4.364 -25.535  0.00  0.00    -0.250 OA
ATOM      8  N   UNL     1      31.893  -5.021 -23.898  0.00  0.00    -0.255 N 
ATOM      9  N   UNL     1      32.276  -2.750 -24.362  0.00  0.00    -0.181 N 
ATOM     10  C   UNL     1      31.792  -7.336 -22.957  0.00  0.00    +0.174 C 
ATOM     11  C   UNL     1      32.507  -6.939 -21.676  0.00  0.00    +0.222 C 
ATOM     12  C   UNL     1      30.560  -5.802 -21.955  0.00  0.00    +0.256 C 
ATOM     13  C   UNL     1      32.160  -6.446 -24.148  0.00  0.00    +0.128 C 
ATOM     14  C   UNL     1      30.758  -4.709 -23.005  0.00  0.00    +0.156 C 
ATOM     15  C   UNL     1      32.582  -4.061 -24.663  0.00  0.00    +0.326 C 
ATOM     16  H   UNL     1      31.623  -2.508 -23.668  0.00  0.00    +0.184 HD
BRANCH   9  17
ATOM     17  O   UNL     1      32.963  -1.787 -25.116  0.00  0.00    -0.294 OA
ATOM     18  H   UNL     1      32.430  -0.977 -25.170  0.00  0.00    +0.241 HD
ENDBRANCH   9  17
ENDBRANCH   3  11
BRANCH   2  19
ATOM     19  C   UNL     1      31.569 -10.311 -20.264  0.00  0.00    +0.116 C 
BRANCH  19  20
ATOM     20  C   UNL     1      32.181 -11.500 -20.952  0.00  0.00    -0.003 C 
ATOM     21  C   UNL     1      32.238 -12.720 -20.290  0.00  0.00    -0.003 C 
ATOM     22  C   UNL     1      32.681 -11.364 -22.240  0.00  0.00    -0.003 C 
ATOM     23  C   UNL     1      33.310 -13.696 -22.222  0.00  0.00    -0.000 C 
ATOM     24  C   UNL     1      32.805 -13.823 -20.928  0.00  0.00    -0.000 C 
ATOM     25  C   UNL     1      33.248 -12.467 -22.878  0.00  0.00    -0.000 C 
BRANCH  23  26
ATOM     26  C   UNL     1      33.898 -14.841 -22.885  0.00  0.00    -0.000 C 
ATOM     27  C   UNL     1      33.812 -14.964 -24.271  0.00  0.00    -0.000 C 
ATOM     28  C   UNL     1      34.553 -15.819 -22.137  0.00  0.00    -0.000 C 
ATOM     29  C   UNL     1      34.379 -16.066 -24.911  0.00  0.00    +0.000 C 
ATOM     30  C   UNL     1      35.120 -16.921 -22.776  0.00  0.00    +0.000 C 
ATOM     31  C   UNL     1      35.033 -17.046 -24.163  0.00  0.00    +0.000 C 
ENDBRANCH  23  26
ENDBRANCH  19  20
ENDBRANCH   2  19
TORSDOF 5
ENDMDL
MODEL 8
REMARK VINA RESULT:     -10.4     11.673     15.871
REMARK  Name = 11987860
REMARK  5 active torsions:
REMARK  status: ('A' for Active; 'I' for Inactive)
REMARK    1  A    between atoms: N_2  and  C_19
REMARK    2  A    between atoms: C_3  and  C_11
REMARK    3  A    between atoms: N_9  and  O_17
REMARK    4  A    between atoms: C_19  and  C_20
REMARK    5  A    between atoms: C_23  and  C_26
REMARK                            x       y       z     vdW  Elec       q    Type
REMARK                         _______ _______ _______ _____ _____    ______ ____
ROOT
ATOM      1  O   UNL     1      31.844  -8.680 -19.819  0.00  0.00    -0.272 OA
ATOM      2  N   UNL     1      31.474 -10.220 -21.524  0.00  0.00    -0.298 N 
ATOM      3  C   UNL     1      31.808  -8.980 -21.009  0.00  0.00    +0.253 C 
ATOM      4  H   UNL     1      31.481 -10.339 -22.502  0.00  0.00    +0.150 HD
ENDROOT
BRANCH   3  11
ATOM      5  O   UNL     1      34.073  -7.007 -21.285  0.00  0.00    -0.327 OA
ATOM      6  O   UNL     1      33.257  -8.572 -22.795  0.00  0.00    -0.320 OA
ATOM      7  O   UNL     1      32.233  -4.260 -24.970  0.00  0.00    -0.250 OA
ATOM      8  N   UNL     1      33.413  -5.848 -23.755  0.00  0.00    -0.255 N 
ATOM      9  N   UNL     1      33.851  -5.483 -26.035  0.00  0.00    -0.181 N 
ATOM     10  C   UNL     1      32.693  -6.692 -21.514  0.00  0.00    +0.174 C 
ATOM     11  C   UNL     1      32.160  -7.998 -22.080  0.00  0.00    +0.222 C 
ATOM     12  C   UNL     1      34.382  -7.740 -22.474  0.00  0.00    +0.256 C 
ATOM     13  C   UNL     1      32.663  -5.543 -22.527  0.00  0.00    +0.128 C 
ATOM     14  C   UNL     1      34.583  -6.738 -23.611  0.00  0.00    +0.156 C 
ATOM     15  C   UNL     1      33.106  -5.133 -24.928  0.00  0.00    +0.326 C 
ATOM     16  H   UNL     1      34.546  -6.178 -26.002  0.00  0.00    +0.184 HD
BRANCH   9  17
ATOM     17  O   UNL     1      33.547  -4.778 -27.209  0.00  0.00    -0.294 OA
ATOM     18  H   UNL     1      32.800  -4.180 -27.044  0.00  0.00    +0.241 HD
ENDBRANCH   9  17
ENDBRANCH   3  11
BRANCH   2  19
ATOM     19  C   UNL     1      31.116 -11.349 -20.696  0.00  0.00    +0.116 C 
BRANCH  19  20
ATOM     20  C   UNL     1      31.956 -12.547 -21.045  0.00  0.00    -0.003 C 
ATOM     21  C   UNL     1      32.110 -13.570 -20.117  0.00  0.00    -0.003 C 
ATOM     22  C   UNL     1      32.566 -12.617 -22.290  0.00  0.00    -0.003 C 
ATOM     23  C   UNL     1      33.506 -14.759 -21.688  0.00  0.00    -0.000 C 
ATOM     24  C   UNL     1      32.889 -14.680 -20.441  0.00  0.00    -0.000 C 
ATOM     25  C   UNL     1      33.345 -13.727 -22.613  0.00  0.00    -0.000 C 
BRANCH  23  26
ATOM     26  C   UNL     1      34.314 -15.912 -22.025  0.00  0.00    -0.000 C 
ATOM     27  C   UNL     1      34.562 -16.223 -23.361  0.00  0.00    -0.000 C 
ATOM     28  C   UNL     1      34.845 -16.711 -21.013  0.00  0.00    -0.000 C 
ATOM     29  C   UNL     1      35.341 -17.334 -23.686  0.00  0.00    +0.000 C 
ATOM     30  C   UNL     1      35.624 -17.821 -21.337  0.00  0.00    +0.000 C 
ATOM     31  C   UNL     1      35.872 -18.134 -22.674  0.00  0.00    +0.000 C 
ENDBRANCH  23  26
ENDBRANCH  19  20
ENDBRANCH   2  19
TORSDOF 5
ENDMDL
MODEL 9
REMARK VINA RESULT:     -10.2      3.020      4.877
REMARK  Name = 11987860
REMARK  5 active torsions:
REMARK  status: ('A' for Active; 'I' for Inactive)
REMARK    1  A    between atoms: N_2  and  C_19
REMARK    2  A    between atoms: C_3  and  C_11
REMARK    3  A    between atoms: N_9  and  O_17
REMARK    4  A    between atoms: C_19  and  C_20
REMARK    5  A    between atoms: C_23  and  C_26
REMARK                            x       y       z     vdW  Elec       q    Type
REMARK                         _______ _______ _______ _____ _____    ______ ____
ROOT
ATOM      1  O   UNL     1      37.393 -22.127 -16.465  0.00  0.00    -0.272 OA
ATOM      2  N   UNL     1      35.828 -22.101 -18.188  0.00  0.00    -0.298 N 
ATOM      3  C   UNL     1      36.238 -22.224 -16.872  0.00  0.00    +0.253 C 
ATOM      4  H   UNL     1      34.869 -22.199 -18.391  0.00  0.00    +0.150 HD
ENDROOT
BRANCH   3  11
ATOM      5  O   UNL     1      35.066 -24.759 -15.732  0.00  0.00    -0.327 OA
ATOM      6  O   UNL     1      35.676 -22.783 -14.674  0.00  0.00    -0.320 OA
ATOM      7  O   UNL     1      30.778 -22.925 -14.072  0.00  0.00    -0.250 OA
ATOM      8  N   UNL     1      32.967 -23.684 -14.209  0.00  0.00    -0.255 N 
ATOM      9  N   UNL     1      31.967 -23.214 -12.135  0.00  0.00    -0.181 N 
ATOM     10  C   UNL     1      34.295 -23.707 -16.328  0.00  0.00    +0.174 C 
ATOM     11  C   UNL     1      35.093 -22.473 -15.943  0.00  0.00    +0.222 C 
ATOM     12  C   UNL     1      35.387 -24.174 -14.467  0.00  0.00    +0.256 C 
ATOM     13  C   UNL     1      32.909 -23.751 -15.677  0.00  0.00    +0.128 C 
ATOM     14  C   UNL     1      34.156 -24.282 -13.567  0.00  0.00    +0.156 C 
ATOM     15  C   UNL     1      31.826 -23.252 -13.507  0.00  0.00    +0.326 C 
ATOM     16  H   UNL     1      32.802 -23.474 -11.684  0.00  0.00    +0.184 HD
BRANCH   9  17
ATOM     17  O   UNL     1      30.835 -22.778 -11.429  0.00  0.00    -0.294 OA
ATOM     18  H   UNL     1      30.108 -22.615 -12.051  0.00  0.00    +0.241 HD
ENDBRANCH   9  17
ENDBRANCH   3  11
BRANCH   2  19
ATOM     19  C   UNL     1      36.739 -21.836 -19.278  0.00  0.00    +0.116 C 
BRANCH  19  20
ATOM     20  C   UNL     1      36.303 -20.619 -20.046  0.00  0.00    -0.003 C 
ATOM     21  C   UNL     1      34.958 -20.447 -20.352  0.00  0.00    -0.003 C 
ATOM     22  C   UNL     1      37.249 -19.682 -20.440  0.00  0.00    -0.003 C 
ATOM     23  C   UNL     1      35.496 -18.372 -21.464  0.00  0.00    -0.000 C 
ATOM     24  C   UNL     1      34.555 -19.319 -21.065  0.00  0.00    -0.000 C 
ATOM     25  C   UNL     1      36.844 -18.553 -21.152  0.00  0.00    -0.000 C 
BRANCH  23  26
ATOM     26  C   UNL     1      35.077 -17.200 -22.203  0.00  0.00    -0.000 C 
ATOM     27  C   UNL     1      34.692 -16.047 -21.520  0.00  0.00    -0.000 C 
ATOM     28  C   UNL     1      35.060 -17.223 -23.597  0.00  0.00    -0.000 C 
ATOM     29  C   UNL     1      34.288 -14.916 -22.232  0.00  0.00    +0.000 C 
ATOM     30  C   UNL     1      34.657 -16.094 -24.309  0.00  0.00    +0.000 C 
ATOM     31  C   UNL     1      34.271 -14.940 -23.627  0.00  0.00    +0.000 C 
ENDBRANCH  23  26
ENDBRANCH  19  20
ENDBRANCH   2  19
TORSDOF 5
ENDMDL
