MODEL 1
REMARK VINA RESULT:     -12.4      0.000      0.000
REMARK  Name = 5289110
REMARK  6 active torsions:
REMARK  status: ('A' for Active; 'I' for Inactive)
REMARK    1  A    between atoms: C_3  and  C_9
REMARK    2  A    between atoms: C_4  and  C_22
REMARK    3  A    between atoms: N_8  and  C_11
REMARK    4  A    between atoms: C_11  and  C_13
REMARK    5  A    between atoms: N_21  and  C_24
REMARK    6  A    between atoms: C_24  and  C_26
REMARK                            x       y       z     vdW  Elec       q    Type
REMARK                         _______ _______ _______ _____ _____    ______ ____
ROOT
ATOM      1  N   UNL     1      34.154 -15.318 -24.733  0.00  0.00    -0.244 NA
ATOM      2  N   UNL     1      33.052 -13.422 -23.734  0.00  0.00    -0.244 NA
ATOM      3  C   UNL     1      34.296 -15.839 -23.498  0.00  0.00    +0.115 C 
ATOM      4  C   UNL     1      33.239 -14.019 -22.555  0.00  0.00    +0.115 C 
ATOM      5  C   UNL     1      33.848 -15.221 -22.347  0.00  0.00    +0.100 C 
ATOM      6  C   UNL     1      33.533 -14.124 -24.778  0.00  0.00    +0.250 C 
ENDROOT
BRANCH   3   9
ATOM      7  O   UNL     1      34.968 -17.894 -24.406  0.00  0.00    -0.269 OA
ATOM      8  N   UNL     1      35.611 -17.443 -22.225  0.00  0.00    -0.296 N 
ATOM      9  C   UNL     1      34.964 -17.127 -23.427  0.00  0.00    +0.260 C 
ATOM     10  H   UNL     1      35.569 -16.791 -21.489  0.00  0.00    +0.150 HD
BRANCH   8  11
ATOM     11  C   UNL     1      36.337 -18.674 -22.006  0.00  0.00    +0.117 C 
BRANCH  11  13
ATOM     12  F   UNL     1      33.599 -22.130 -18.518  0.00  0.00    -0.205 F 
ATOM     13  C   UNL     1      35.608 -19.597 -21.073  0.00  0.00    -0.003 C 
ATOM     14  C   UNL     1      36.321 -20.321 -20.125  0.00  0.00    -0.005 C 
ATOM     15  C   UNL     1      35.645 -21.179 -19.258  0.00  0.00    +0.005 C 
ATOM     16  C   UNL     1      34.226 -19.720 -21.167  0.00  0.00    -0.000 C 
ATOM     17  C   UNL     1      34.258 -21.308 -19.346  0.00  0.00    +0.136 C 
ATOM     18  C   UNL     1      33.550 -20.577 -20.299  0.00  0.00    +0.029 C 
ATOM     19  C   UNL     1      36.406 -21.958 -18.238  0.00  0.00    +0.033 C 
ENDBRANCH  11  13
ENDBRANCH   8  11
ENDBRANCH   3   9
BRANCH   4  22
ATOM     20  O   UNL     1      33.160 -13.501 -20.269  0.00  0.00    -0.269 OA
ATOM     21  N   UNL     1      31.761 -12.294 -21.671  0.00  0.00    -0.296 N 
ATOM     22  C   UNL     1      32.717 -13.260 -21.389  0.00  0.00    +0.260 C 
ATOM     23  H   UNL     1      31.470 -12.174 -22.603  0.00  0.00    +0.150 HD
BRANCH  21  24
ATOM     24  C   UNL     1      31.178 -11.460 -20.651  0.00  0.00    +0.117 C 
BRANCH  24  26
ATOM     25  F   UNL     1      32.640  -6.060 -21.202  0.00  0.00    -0.205 F 
ATOM     26  C   UNL     1      31.565 -10.027 -20.800  0.00  0.00    -0.003 C 
ATOM     27  C   UNL     1      31.496  -9.412 -22.050  0.00  0.00    -0.005 C 
ATOM     28  C   UNL     1      31.859  -8.072 -22.189  0.00  0.00    +0.005 C 
ATOM     29  C   UNL     1      31.995  -9.301 -19.690  0.00  0.00    -0.000 C 
ATOM     30  C   UNL     1      32.290  -7.347 -21.078  0.00  0.00    +0.136 C 
ATOM     31  C   UNL     1      32.358  -7.962 -19.828  0.00  0.00    +0.029 C 
ATOM     32  C   UNL     1      31.784  -7.418 -23.528  0.00  0.00    +0.033 C 
ENDBRANCH  24  26
ENDBRANCH  21  24
ENDBRANCH   4  22
TORSDOF 6
ENDMDL
MODEL 2
REMARK VINA RESULT:     -12.4      0.048     10.500
REMARK  Name = 5289110
REMARK  6 active torsions:
REMARK  status: ('A' for Active; 'I' for Inactive)
REMARK    1  A    between atoms: C_3  and  C_9
REMARK    2  A    between atoms: C_4  and  C_22
REMARK    3  A    between atoms: N_8  and  C_11
REMARK    4  A    between atoms: C_11  and  C_13
REMARK    5  A    between atoms: N_21  and  C_24
REMARK    6  A    between atoms: C_24  and  C_26
REMARK                            x       y       z     vdW  Elec       q    Type
REMARK                         _______ _______ _______ _____ _____    ______ ____
ROOT
ATOM      1  N   UNL     1      33.076 -13.422 -23.768  0.00  0.00    -0.244 NA
ATOM      2  N   UNL     1      34.195 -15.312 -24.759  0.00  0.00    -0.244 NA
ATOM      3  C   UNL     1      33.233 -14.009 -22.563  0.00  0.00    +0.115 C 
ATOM      4  C   UNL     1      34.303 -15.811 -23.525  0.00  0.00    +0.115 C 
ATOM      5  C   UNL     1      33.852 -15.229 -22.378  0.00  0.00    +0.100 C 
ATOM      6  C   UNL     1      33.573 -14.119 -24.807  0.00  0.00    +0.250 C 
ENDROOT
BRANCH   3   9
ATOM      7  O   UNL     1      33.079 -13.539 -20.271  0.00  0.00    -0.269 OA
ATOM      8  N   UNL     1      31.785 -12.253 -21.702  0.00  0.00    -0.296 N 
ATOM      9  C   UNL     1      32.705 -13.273 -21.427  0.00  0.00    +0.260 C 
ATOM     10  H   UNL     1      31.532 -12.096 -22.640  0.00  0.00    +0.150 HD
BRANCH   8  11
ATOM     11  C   UNL     1      31.188 -11.419 -20.684  0.00  0.00    +0.117 C 
BRANCH  11  13
ATOM     12  F   UNL     1      32.667  -6.024 -21.248  0.00  0.00    -0.205 F 
ATOM     13  C   UNL     1      31.581  -9.978 -20.838  0.00  0.00    -0.003 C 
ATOM     14  C   UNL     1      31.533  -9.381 -22.092  0.00  0.00    -0.005 C 
ATOM     15  C   UNL     1      31.899  -8.042 -22.234  0.00  0.00    +0.005 C 
ATOM     16  C   UNL     1      31.992  -9.255 -19.723  0.00  0.00    -0.000 C 
ATOM     17  C   UNL     1      32.312  -7.310 -21.121  0.00  0.00    +0.136 C 
ATOM     18  C   UNL     1      32.358  -7.916 -19.866  0.00  0.00    +0.029 C 
ATOM     19  C   UNL     1      31.847  -7.396 -23.578  0.00  0.00    +0.033 C 
ENDBRANCH  11  13
ENDBRANCH   8  11
ENDBRANCH   3   9
BRANCH   4  22
ATOM     20  O   UNL     1      34.989 -17.860 -24.438  0.00  0.00    -0.269 OA
ATOM     21  N   UNL     1      35.601 -17.428 -22.244  0.00  0.00    -0.296 N 
ATOM     22  C   UNL     1      34.985 -17.129 -23.450  0.00  0.00    +0.260 C 
ATOM     23  H   UNL     1      35.543 -16.776 -21.508  0.00  0.00    +0.150 HD
BRANCH  21  24
ATOM     24  C   UNL     1      36.324 -18.655 -22.024  0.00  0.00    +0.117 C 
BRANCH  24  26
ATOM     25  F   UNL     1      33.607 -22.128 -18.537  0.00  0.00    -0.205 F 
ATOM     26  C   UNL     1      35.605 -19.578 -21.097  0.00  0.00    -0.003 C 
ATOM     27  C   UNL     1      36.320 -20.310 -20.149  0.00  0.00    -0.005 C 
ATOM     28  C   UNL     1      35.647 -21.172 -19.283  0.00  0.00    +0.005 C 
ATOM     29  C   UNL     1      34.219 -19.707 -21.179  0.00  0.00    -0.000 C 
ATOM     30  C   UNL     1      34.261 -21.302 -19.365  0.00  0.00    +0.136 C 
ATOM     31  C   UNL     1      33.547 -20.570 -20.314  0.00  0.00    +0.029 C 
ATOM     32  C   UNL     1      36.414 -21.953 -18.270  0.00  0.00    +0.033 C 
ENDBRANCH  24  26
ENDBRANCH  21  24
ENDBRANCH   4  22
TORSDOF 6
ENDMDL
MODEL 3
REMARK VINA RESULT:     -12.2      2.139      3.004
REMARK  Name = 5289110
REMARK  6 active torsions:
REMARK  status: ('A' for Active; 'I' for Inactive)
REMARK    1  A    between atoms: C_3  and  C_9
REMARK    2  A    between atoms: C_4  and  C_22
REMARK    3  A    between atoms: N_8  and  C_11
REMARK    4  A    between atoms: C_11  and  C_13
REMARK    5  A    between atoms: N_21  and  C_24
REMARK    6  A    between atoms: C_24  and  C_26
REMARK                            x       y       z     vdW  Elec       q    Type
REMARK                         _______ _______ _______ _____ _____    ______ ____
ROOT
ATOM      1  N   UNL     1      34.595 -16.575 -20.391  0.00  0.00    -0.244 NA
ATOM      2  N   UNL     1      33.836 -14.496 -21.346  0.00  0.00    -0.244 NA
ATOM      3  C   UNL     1      35.036 -16.933 -21.614  0.00  0.00    +0.115 C 
ATOM      4  C   UNL     1      34.306 -14.939 -22.515  0.00  0.00    +0.115 C 
ATOM      5  C   UNL     1      34.916 -16.137 -22.736  0.00  0.00    +0.100 C 
ATOM      6  C   UNL     1      34.013 -15.362 -20.330  0.00  0.00    +0.250 C 
ENDROOT
BRANCH   3   9
ATOM      7  O   UNL     1      36.469 -18.493 -22.620  0.00  0.00    -0.269 OA
ATOM      8  N   UNL     1      35.349 -19.168 -20.705  0.00  0.00    -0.296 N 
ATOM      9  C   UNL     1      35.668 -18.238 -21.703  0.00  0.00    +0.260 C 
ATOM     10  H   UNL     1      34.708 -18.900 -20.009  0.00  0.00    +0.150 HD
BRANCH   8  11
ATOM     11  C   UNL     1      35.911 -20.498 -20.642  0.00  0.00    +0.117 C 
BRANCH  11  13
ATOM     12  F   UNL     1      33.987 -23.383 -16.217  0.00  0.00    -0.205 F 
ATOM     13  C   UNL     1      35.400 -21.267 -19.458  0.00  0.00    -0.003 C 
ATOM     14  C   UNL     1      36.267 -21.595 -18.423  0.00  0.00    -0.005 C 
ATOM     15  C   UNL     1      35.792 -22.310 -17.324  0.00  0.00    +0.005 C 
ATOM     16  C   UNL     1      34.063 -21.647 -19.411  0.00  0.00    -0.000 C 
ATOM     17  C   UNL     1      34.452 -22.694 -17.268  0.00  0.00    +0.136 C 
ATOM     18  C   UNL     1      33.588 -22.362 -18.311  0.00  0.00    +0.029 C 
ATOM     19  C   UNL     1      36.719 -22.662 -16.209  0.00  0.00    +0.033 C 
ENDBRANCH  11  13
ENDBRANCH   8  11
ENDBRANCH   3   9
BRANCH   4  22
ATOM     20  O   UNL     1      33.715 -14.431 -24.727  0.00  0.00    -0.269 OA
ATOM     21  N   UNL     1      34.401 -12.665 -23.389  0.00  0.00    -0.296 N 
ATOM     22  C   UNL     1      34.119 -13.999 -23.650  0.00  0.00    +0.260 C 
ATOM     23  H   UNL     1      34.720 -12.416 -22.492  0.00  0.00    +0.150 HD
BRANCH  21  24
ATOM     24  C   UNL     1      34.245 -11.631 -24.380  0.00  0.00    +0.117 C 
BRANCH  24  26
ATOM     25  F   UNL     1      33.348  -6.584 -22.072  0.00  0.00    -0.205 F 
ATOM     26  C   UNL     1      34.010 -10.291 -23.769  0.00  0.00    -0.003 C 
ATOM     27  C   UNL     1      34.937  -9.265 -23.957  0.00  0.00    -0.005 C 
ATOM     28  C   UNL     1      34.716  -8.012 -23.385  0.00  0.00    +0.005 C 
ATOM     29  C   UNL     1      32.862 -10.063 -23.010  0.00  0.00    -0.000 C 
ATOM     30  C   UNL     1      33.568  -7.785 -22.626  0.00  0.00    +0.136 C 
ATOM     31  C   UNL     1      32.642  -8.810 -22.437  0.00  0.00    +0.029 C 
ATOM     32  C   UNL     1      35.709  -6.918 -23.589  0.00  0.00    +0.033 C 
ENDBRANCH  24  26
ENDBRANCH  21  24
ENDBRANCH   4  22
TORSDOF 6
ENDMDL
MODEL 4
REMARK VINA RESULT:     -12.1      2.127     10.997
REMARK  Name = 5289110
REMARK  6 active torsions:
REMARK  status: ('A' for Active; 'I' for Inactive)
REMARK    1  A    between atoms: C_3  and  C_9
REMARK    2  A    between atoms: C_4  and  C_22
REMARK    3  A    between atoms: N_8  and  C_11
REMARK    4  A    between atoms: C_11  and  C_13
REMARK    5  A    between atoms: N_21  and  C_24
REMARK    6  A    between atoms: C_24  and  C_26
REMARK                            x       y       z     vdW  Elec       q    Type
REMARK                         _______ _______ _______ _____ _____    ______ ____
ROOT
ATOM      1  N   UNL     1      34.110 -14.493 -21.316  0.00  0.00    -0.244 NA
ATOM      2  N   UNL     1      34.776 -16.622 -20.405  0.00  0.00    -0.244 NA
ATOM      3  C   UNL     1      34.418 -14.963 -22.542  0.00  0.00    +0.115 C 
ATOM      4  C   UNL     1      35.052 -16.996 -21.657  0.00  0.00    +0.115 C 
ATOM      5  C   UNL     1      34.903 -16.234 -22.778  0.00  0.00    +0.100 C 
ATOM      6  C   UNL     1      34.311 -15.363 -20.308  0.00  0.00    +0.250 C 
ENDROOT
BRANCH   3   9
ATOM      7  O   UNL     1      33.862 -14.459 -24.764  0.00  0.00    -0.269 OA
ATOM      8  N   UNL     1      34.392 -12.678 -23.378  0.00  0.00    -0.296 N 
ATOM      9  C   UNL     1      34.208 -14.041 -23.645  0.00  0.00    +0.260 C 
ATOM     10  H   UNL     1      34.666 -12.415 -22.470  0.00  0.00    +0.150 HD
BRANCH   8  11
ATOM     11  C   UNL     1      34.200 -11.637 -24.361  0.00  0.00    +0.117 C 
BRANCH  11  13
ATOM     12  F   UNL     1      33.407  -6.613 -21.966  0.00  0.00    -0.205 F 
ATOM     13  C   UNL     1      33.990 -10.294 -23.724  0.00  0.00    -0.003 C 
ATOM     14  C   UNL     1      34.916  -9.279 -23.934  0.00  0.00    -0.005 C 
ATOM     15  C   UNL     1      34.722  -8.032 -23.342  0.00  0.00    +0.005 C 
ATOM     16  C   UNL     1      32.871 -10.078 -22.927  0.00  0.00    -0.000 C 
ATOM     17  C   UNL     1      33.601  -7.807 -22.541  0.00  0.00    +0.136 C 
ATOM     18  C   UNL     1      32.676  -8.830 -22.334  0.00  0.00    +0.029 C 
ATOM     19  C   UNL     1      35.713  -6.940 -23.566  0.00  0.00    +0.033 C 
ENDBRANCH  11  13
ENDBRANCH   8  11
ENDBRANCH   3   9
BRANCH   4  22
ATOM     20  O   UNL     1      36.039 -18.751 -22.861  0.00  0.00    -0.269 OA
ATOM     21  N   UNL     1      35.498 -19.169 -20.645  0.00  0.00    -0.296 N 
ATOM     22  C   UNL     1      35.569 -18.383 -21.787  0.00  0.00    +0.260 C 
ATOM     23  H   UNL     1      35.103 -18.784 -19.830  0.00  0.00    +0.150 HD
BRANCH  21  24
ATOM     24  C   UNL     1      35.980 -20.526 -20.606  0.00  0.00    +0.117 C 
BRANCH  24  26
ATOM     25  F   UNL     1      33.987 -23.371 -16.186  0.00  0.00    -0.205 F 
ATOM     26  C   UNL     1      35.454 -21.281 -19.432  0.00  0.00    -0.003 C 
ATOM     27  C   UNL     1      36.305 -21.614 -18.378  0.00  0.00    -0.005 C 
ATOM     28  C   UNL     1      35.812 -22.320 -17.280  0.00  0.00    +0.005 C 
ATOM     29  C   UNL     1      34.111 -21.653 -19.387  0.00  0.00    -0.000 C 
ATOM     30  C   UNL     1      34.469 -22.693 -17.237  0.00  0.00    +0.136 C 
ATOM     31  C   UNL     1      33.618 -22.360 -18.291  0.00  0.00    +0.029 C 
ATOM     32  C   UNL     1      36.725 -22.674 -16.155  0.00  0.00    +0.033 C 
ENDBRANCH  24  26
ENDBRANCH  21  24
ENDBRANCH   4  22
TORSDOF 6
ENDMDL
MODEL 5
REMARK VINA RESULT:     -12.0      1.456     10.774
REMARK  Name = 5289110
REMARK  6 active torsions:
REMARK  status: ('A' for Active; 'I' for Inactive)
REMARK    1  A    between atoms: C_3  and  C_9
REMARK    2  A    between atoms: C_4  and  C_22
REMARK    3  A    between atoms: N_8  and  C_11
REMARK    4  A    between atoms: C_11  and  C_13
REMARK    5  A    between atoms: N_21  and  C_24
REMARK    6  A    between atoms: C_24  and  C_26
REMARK                            x       y       z     vdW  Elec       q    Type
REMARK                         _______ _______ _______ _____ _____    ______ ____
ROOT
ATOM      1  N   UNL     1      32.980 -13.660 -23.599  0.00  0.00    -0.244 NA
ATOM      2  N   UNL     1      34.266 -15.696 -23.682  0.00  0.00    -0.244 NA
ATOM      3  C   UNL     1      33.079 -13.695 -22.255  0.00  0.00    +0.115 C 
ATOM      4  C   UNL     1      34.309 -15.644 -22.348  0.00  0.00    +0.115 C 
ATOM      5  C   UNL     1      33.747 -14.683 -21.560  0.00  0.00    +0.100 C 
ATOM      6  C   UNL     1      33.586 -14.677 -24.240  0.00  0.00    +0.250 C 
ENDROOT
BRANCH   3   9
ATOM      7  O   UNL     1      31.952 -12.787 -20.409  0.00  0.00    -0.269 OA
ATOM      8  N   UNL     1      32.398 -11.360 -22.182  0.00  0.00    -0.296 N 
ATOM      9  C   UNL     1      32.432 -12.606 -21.543  0.00  0.00    +0.260 C 
ATOM     10  H   UNL     1      32.796 -11.287 -23.079  0.00  0.00    +0.150 HD
BRANCH   8  11
ATOM     11  C   UNL     1      31.811 -10.177 -21.596  0.00  0.00    +0.117 C 
BRANCH  11  13
ATOM     12  F   UNL     1      33.215  -5.513 -24.404  0.00  0.00    -0.205 F 
ATOM     13  C   UNL     1      32.189  -8.932 -22.346  0.00  0.00    -0.003 C 
ATOM     14  C   UNL     1      33.530  -8.633 -22.552  0.00  0.00    -0.005 C 
ATOM     15  C   UNL     1      33.881  -7.477 -23.249  0.00  0.00    +0.005 C 
ATOM     16  C   UNL     1      31.192  -8.090 -22.827  0.00  0.00    -0.000 C 
ATOM     17  C   UNL     1      32.887  -6.626 -23.735  0.00  0.00    +0.136 C 
ATOM     18  C   UNL     1      31.543  -6.934 -23.524  0.00  0.00    +0.029 C 
ATOM     19  C   UNL     1      35.320  -7.152 -23.474  0.00  0.00    +0.033 C 
ENDBRANCH  11  13
ENDBRANCH   8  11
ENDBRANCH   3   9
BRANCH   4  22
ATOM     20  O   UNL     1      35.297 -16.710 -20.508  0.00  0.00    -0.269 OA
ATOM     21  N   UNL     1      35.402 -17.814 -22.545  0.00  0.00    -0.296 N 
ATOM     22  C   UNL     1      35.053 -16.761 -21.711  0.00  0.00    +0.260 C 
ATOM     23  H   UNL     1      35.161 -17.762 -23.498  0.00  0.00    +0.150 HD
BRANCH  21  24
ATOM     24  C   UNL     1      36.104 -18.979 -22.071  0.00  0.00    +0.117 C 
BRANCH  24  26
ATOM     25  F   UNL     1      33.005 -22.018 -18.497  0.00  0.00    -0.205 F 
ATOM     26  C   UNL     1      35.284 -19.787 -21.121  0.00  0.00    -0.003 C 
ATOM     27  C   UNL     1      35.909 -20.555 -20.138  0.00  0.00    -0.005 C 
ATOM     28  C   UNL     1      35.142 -21.310 -19.251  0.00  0.00    +0.005 C 
ATOM     29  C   UNL     1      33.892 -19.773 -21.214  0.00  0.00    -0.000 C 
ATOM     30  C   UNL     1      33.750 -21.296 -19.345  0.00  0.00    +0.136 C 
ATOM     31  C   UNL     1      33.126 -20.528 -20.328  0.00  0.00    +0.029 C 
ATOM     32  C   UNL     1      35.813 -22.130 -18.201  0.00  0.00    +0.033 C 
ENDBRANCH  24  26
ENDBRANCH  21  24
ENDBRANCH   4  22
TORSDOF 6
ENDMDL
MODEL 6
REMARK VINA RESULT:     -11.8      3.613      6.564
REMARK  Name = 5289110
REMARK  6 active torsions:
REMARK  status: ('A' for Active; 'I' for Inactive)
REMARK    1  A    between atoms: C_3  and  C_9
REMARK    2  A    between atoms: C_4  and  C_22
REMARK    3  A    between atoms: N_8  and  C_11
REMARK    4  A    between atoms: C_11  and  C_13
REMARK    5  A    between atoms: N_21  and  C_24
REMARK    6  A    between atoms: C_24  and  C_26
REMARK                            x       y       z     vdW  Elec       q    Type
REMARK                         _______ _______ _______ _____ _____    ______ ____
ROOT
ATOM      1  N   UNL     1      36.117 -20.920 -19.308  0.00  0.00    -0.244 NA
ATOM      2  N   UNL     1      36.771 -19.280 -20.949  0.00  0.00    -0.244 NA
ATOM      3  C   UNL     1      34.870 -20.879 -19.820  0.00  0.00    +0.115 C 
ATOM      4  C   UNL     1      35.509 -19.311 -21.385  0.00  0.00    +0.115 C 
ATOM      5  C   UNL     1      34.501 -20.077 -20.881  0.00  0.00    +0.100 C 
ATOM      6  C   UNL     1      37.004 -20.106 -19.911  0.00  0.00    +0.250 C 
ENDROOT
BRANCH   3   9
ATOM      7  O   UNL     1      32.783 -21.943 -19.705  0.00  0.00    -0.269 OA
ATOM      8  N   UNL     1      34.280 -22.366 -17.986  0.00  0.00    -0.296 N 
ATOM      9  C   UNL     1      33.896 -21.750 -19.184  0.00  0.00    +0.260 C 
ATOM     10  H   UNL     1      35.175 -22.169 -17.628  0.00  0.00    +0.150 HD
BRANCH   8  11
ATOM     11  C   UNL     1      33.434 -23.275 -17.246  0.00  0.00    +0.117 C 
BRANCH  11  13
ATOM     12  F   UNL     1      35.266 -24.062 -11.989  0.00  0.00    -0.205 F 
ATOM     13  C   UNL     1      33.926 -23.483 -15.843  0.00  0.00    -0.003 C 
ATOM     14  C   UNL     1      35.272 -23.299 -15.551  0.00  0.00    -0.005 C 
ATOM     15  C   UNL     1      35.729 -23.493 -14.247  0.00  0.00    +0.005 C 
ATOM     16  C   UNL     1      33.030 -23.861 -14.849  0.00  0.00    -0.000 C 
ATOM     17  C   UNL     1      34.836 -23.872 -13.244  0.00  0.00    +0.136 C 
ATOM     18  C   UNL     1      33.487 -24.054 -13.545  0.00  0.00    +0.029 C 
ATOM     19  C   UNL     1      37.173 -23.295 -13.928  0.00  0.00    +0.033 C 
ENDBRANCH  11  13
ENDBRANCH   8  11
ENDBRANCH   3   9
BRANCH   4  22
ATOM     20  O   UNL     1      34.678 -18.855 -23.530  0.00  0.00    -0.269 OA
ATOM     21  N   UNL     1      35.605 -17.079 -22.361  0.00  0.00    -0.296 N 
ATOM     22  C   UNL     1      35.230 -18.405 -22.529  0.00  0.00    +0.260 C 
ATOM     23  H   UNL     1      36.043 -16.814 -21.520  0.00  0.00    +0.150 HD
BRANCH  21  24
ATOM     24  C   UNL     1      35.379 -16.076 -23.370  0.00  0.00    +0.117 C 
BRANCH  24  26
ATOM     25  F   UNL     1      31.872 -12.039 -21.637  0.00  0.00    -0.205 F 
ATOM     26  C   UNL     1      34.448 -15.006 -22.908  0.00  0.00    -0.003 C 
ATOM     27  C   UNL     1      33.795 -15.132 -21.681  0.00  0.00    -0.005 C 
ATOM     28  C   UNL     1      32.924 -14.131 -21.250  0.00  0.00    +0.005 C 
ATOM     29  C   UNL     1      34.230 -13.880 -23.701  0.00  0.00    -0.000 C 
ATOM     30  C   UNL     1      32.707 -13.006 -22.044  0.00  0.00    +0.136 C 
ATOM     31  C   UNL     1      33.359 -12.880 -23.270  0.00  0.00    +0.029 C 
ATOM     32  C   UNL     1      32.228 -14.268 -19.937  0.00  0.00    +0.033 C 
ENDBRANCH  24  26
ENDBRANCH  21  24
ENDBRANCH   4  22
TORSDOF 6
ENDMDL
MODEL 7
REMARK VINA RESULT:     -11.8      3.655     11.102
REMARK  Name = 5289110
REMARK  6 active torsions:
REMARK  status: ('A' for Active; 'I' for Inactive)
REMARK    1  A    between atoms: C_3  and  C_9
REMARK    2  A    between atoms: C_4  and  C_22
REMARK    3  A    between atoms: N_8  and  C_11
REMARK    4  A    between atoms: C_11  and  C_13
REMARK    5  A    between atoms: N_21  and  C_24
REMARK    6  A    between atoms: C_24  and  C_26
REMARK                            x       y       z     vdW  Elec       q    Type
REMARK                         _______ _______ _______ _____ _____    ______ ____
ROOT
ATOM      1  N   UNL     1      36.780 -19.330 -20.910  0.00  0.00    -0.244 NA
ATOM      2  N   UNL     1      36.146 -20.960 -19.253  0.00  0.00    -0.244 NA
ATOM      3  C   UNL     1      35.515 -19.365 -21.376  0.00  0.00    +0.115 C 
ATOM      4  C   UNL     1      34.921 -20.925 -19.784  0.00  0.00    +0.115 C 
ATOM      5  C   UNL     1      34.522 -20.160 -20.840  0.00  0.00    +0.100 C 
ATOM      6  C   UNL     1      37.023 -20.142 -19.863  0.00  0.00    +0.250 C 
ENDROOT
BRANCH   3   9
ATOM      7  O   UNL     1      34.651 -18.938 -23.514  0.00  0.00    -0.269 OA
ATOM      8  N   UNL     1      35.620 -17.156 -22.391  0.00  0.00    -0.296 N 
ATOM      9  C   UNL     1      35.232 -18.497 -22.505  0.00  0.00    +0.260 C 
ATOM     10  H   UNL     1      36.076 -16.874 -21.565  0.00  0.00    +0.150 HD
BRANCH   8  11
ATOM     11  C   UNL     1      35.388 -16.165 -23.416  0.00  0.00    +0.117 C 
BRANCH  11  13
ATOM     12  F   UNL     1      31.881 -12.122 -21.695  0.00  0.00    -0.205 F 
ATOM     13  C   UNL     1      34.452 -15.086 -22.953  0.00  0.00    -0.003 C 
ATOM     14  C   UNL     1      33.821 -15.205 -21.721  0.00  0.00    -0.005 C 
ATOM     15  C   UNL     1      32.951 -14.203 -21.291  0.00  0.00    +0.005 C 
ATOM     16  C   UNL     1      34.224 -13.980 -23.764  0.00  0.00    -0.000 C 
ATOM     17  C   UNL     1      32.717 -13.089 -22.099  0.00  0.00    +0.136 C 
ATOM     18  C   UNL     1      33.354 -12.978 -23.334  0.00  0.00    +0.029 C 
ATOM     19  C   UNL     1      32.272 -14.325 -19.968  0.00  0.00    +0.033 C 
ENDBRANCH  11  13
ENDBRANCH   8  11
ENDBRANCH   3   9
BRANCH   4  22
ATOM     20  O   UNL     1      32.805 -21.918 -19.593  0.00  0.00    -0.269 OA
ATOM     21  N   UNL     1      34.396 -22.522 -18.018  0.00  0.00    -0.296 N 
ATOM     22  C   UNL     1      33.937 -21.824 -19.126  0.00  0.00    +0.260 C 
ATOM     23  H   UNL     1      35.324 -22.379 -17.719  0.00  0.00    +0.150 HD
BRANCH  21  24
ATOM     24  C   UNL     1      33.570 -23.449 -17.288  0.00  0.00    +0.117 C 
BRANCH  24  26
ATOM     25  F   UNL     1      35.142 -23.955 -11.915  0.00  0.00    -0.205 F 
ATOM     26  C   UNL     1      33.990 -23.583 -15.863  0.00  0.00    -0.003 C 
ATOM     27  C   UNL     1      35.327 -23.403 -15.510  0.00  0.00    -0.005 C 
ATOM     28  C   UNL     1      35.719 -23.528 -14.177  0.00  0.00    +0.005 C 
ATOM     29  C   UNL     1      33.045 -23.887 -14.883  0.00  0.00    -0.000 C 
ATOM     30  C   UNL     1      34.774 -23.833 -13.198  0.00  0.00    +0.136 C 
ATOM     31  C   UNL     1      33.437 -24.013 -13.551  0.00  0.00    +0.029 C 
ATOM     32  C   UNL     1      37.150 -23.335 -13.803  0.00  0.00    +0.033 C 
ENDBRANCH  24  26
ENDBRANCH  21  24
ENDBRANCH   4  22
TORSDOF 6
ENDMDL
MODEL 8
REMARK VINA RESULT:     -11.7      3.493     10.744
REMARK  Name = 5289110
REMARK  6 active torsions:
REMARK  status: ('A' for Active; 'I' for Inactive)
REMARK    1  A    between atoms: C_3  and  C_9
REMARK    2  A    between atoms: C_4  and  C_22
REMARK    3  A    between atoms: N_8  and  C_11
REMARK    4  A    between atoms: C_11  and  C_13
REMARK    5  A    between atoms: N_21  and  C_24
REMARK    6  A    between atoms: C_24  and  C_26
REMARK                            x       y       z     vdW  Elec       q    Type
REMARK                         _______ _______ _______ _____ _____    ______ ____
ROOT
ATOM      1  N   UNL     1      36.705 -18.890 -20.917  0.00  0.00    -0.244 NA
ATOM      2  N   UNL     1      36.142 -20.786 -19.540  0.00  0.00    -0.244 NA
ATOM      3  C   UNL     1      35.433 -18.885 -21.365  0.00  0.00    +0.115 C 
ATOM      4  C   UNL     1      34.907 -20.699 -20.042  0.00  0.00    +0.115 C 
ATOM      5  C   UNL     1      34.470 -19.785 -20.953  0.00  0.00    +0.100 C 
ATOM      6  C   UNL     1      36.987 -19.854 -20.020  0.00  0.00    +0.250 C 
ENDROOT
BRANCH   3   9
ATOM      7  O   UNL     1      34.870 -18.149 -23.519  0.00  0.00    -0.269 OA
ATOM      8  N   UNL     1      35.054 -16.534 -21.866  0.00  0.00    -0.296 N 
ATOM      9  C   UNL     1      35.107 -17.853 -22.334  0.00  0.00    +0.260 C 
ATOM     10  H   UNL     1      35.253 -16.370 -20.916  0.00  0.00    +0.150 HD
BRANCH   8  11
ATOM     11  C   UNL     1      34.722 -15.402 -22.699  0.00  0.00    +0.117 C 
BRANCH  11  13
ATOM     12  F   UNL     1      31.185 -11.873 -20.121  0.00  0.00    -0.205 F 
ATOM     13  C   UNL     1      33.777 -14.457 -22.013  0.00  0.00    -0.003 C 
ATOM     14  C   UNL     1      33.553 -13.196 -22.552  0.00  0.00    -0.005 C 
ATOM     15  C   UNL     1      32.675 -12.319 -21.915  0.00  0.00    +0.005 C 
ATOM     16  C   UNL     1      33.138 -14.854 -20.844  0.00  0.00    -0.000 C 
ATOM     17  C   UNL     1      32.029 -12.709 -20.741  0.00  0.00    +0.136 C 
ATOM     18  C   UNL     1      32.260 -13.977 -20.207  0.00  0.00    +0.029 C 
ATOM     19  C   UNL     1      32.429 -10.965 -22.490  0.00  0.00    +0.033 C 
ENDBRANCH  11  13
ENDBRANCH   8  11
ENDBRANCH   3   9
BRANCH   4  22
ATOM     20  O   UNL     1      32.764 -21.617 -19.791  0.00  0.00    -0.269 OA
ATOM     21  N   UNL     1      34.518 -22.751 -18.784  0.00  0.00    -0.296 N 
ATOM     22  C   UNL     1      33.959 -21.720 -19.526  0.00  0.00    +0.260 C 
ATOM     23  H   UNL     1      35.490 -22.746 -18.625  0.00  0.00    +0.150 HD
BRANCH  21  24
ATOM     24  C   UNL     1      33.733 -23.828 -18.238  0.00  0.00    +0.117 C 
BRANCH  24  26
ATOM     25  F   UNL     1      31.979 -22.748 -13.007  0.00  0.00    -0.205 F 
ATOM     26  C   UNL     1      33.264 -23.541 -16.850  0.00  0.00    -0.003 C 
ATOM     27  C   UNL     1      31.915 -23.285 -16.608  0.00  0.00    -0.005 C 
ATOM     28  C   UNL     1      31.478 -23.017 -15.311  0.00  0.00    +0.005 C 
ATOM     29  C   UNL     1      34.176 -23.530 -15.795  0.00  0.00    -0.000 C 
ATOM     30  C   UNL     1      32.390 -23.005 -14.256  0.00  0.00    +0.136 C 
ATOM     31  C   UNL     1      33.740 -23.261 -14.498  0.00  0.00    +0.029 C 
ATOM     32  C   UNL     1      30.033 -22.744 -15.056  0.00  0.00    +0.033 C 
ENDBRANCH  24  26
ENDBRANCH  21  24
ENDBRANCH   4  22
TORSDOF 6
ENDMDL
MODEL 9
REMARK VINA RESULT:     -11.5      8.324     12.079
REMARK  Name = 5289110
REMARK  6 active torsions:
REMARK  status: ('A' for Active; 'I' for Inactive)
REMARK    1  A    between atoms: C_3  and  C_9
REMARK    2  A    between atoms: C_4  and  C_22
REMARK    3  A    between atoms: N_8  and  C_11
REMARK    4  A    between atoms: C_11  and  C_13
REMARK    5  A    between atoms: N_21  and  C_24
REMARK    6  A    between atoms: C_24  and  C_26
REMARK                            x       y       z     vdW  Elec       q    Type
REMARK                         _______ _______ _______ _____ _____    ______ ____
ROOT
ATOM      1  N   UNL     1      36.739 -25.169 -12.654  0.00  0.00    -0.244 NA
ATOM      2  N   UNL     1      38.329 -24.442 -14.312  0.00  0.00    -0.244 NA
ATOM      3  C   UNL     1      35.831 -24.345 -13.217  0.00  0.00    +0.115 C 
ATOM      4  C   UNL     1      37.364 -23.658 -14.798  0.00  0.00    +0.115 C 
ATOM      5  C   UNL     1      36.094 -23.549 -14.315  0.00  0.00    +0.100 C 
ATOM      6  C   UNL     1      37.950 -25.167 -13.243  0.00  0.00    +0.250 C 
ENDROOT
BRANCH   3   9
ATOM      7  O   UNL     1      34.308 -24.955 -11.542  0.00  0.00    -0.269 OA
ATOM      8  N   UNL     1      33.524 -23.574 -13.230  0.00  0.00    -0.296 N 
ATOM      9  C   UNL     1      34.518 -24.331 -12.598  0.00  0.00    +0.260 C 
ATOM     10  H   UNL     1      33.757 -23.105 -14.063  0.00  0.00    +0.150 HD
BRANCH   8  11
ATOM     11  C   UNL     1      32.176 -23.442 -12.727  0.00  0.00    +0.117 C 
BRANCH  11  13
ATOM     12  F   UNL     1      28.352 -25.126 -16.488  0.00  0.00    -0.205 F 
ATOM     13  C   UNL     1      31.154 -23.889 -13.733  0.00  0.00    -0.003 C 
ATOM     14  C   UNL     1      30.398 -22.942 -14.413  0.00  0.00    -0.005 C 
ATOM     15  C   UNL     1      29.449 -23.357 -15.347  0.00  0.00    +0.005 C 
ATOM     16  C   UNL     1      30.974 -25.246 -13.972  0.00  0.00    -0.000 C 
ATOM     17  C   UNL     1      29.262 -24.717 -15.594  0.00  0.00    +0.136 C 
ATOM     18  C   UNL     1      30.025 -25.661 -14.907  0.00  0.00    +0.029 C 
ATOM     19  C   UNL     1      28.636 -22.344 -16.081  0.00  0.00    +0.033 C 
ENDBRANCH  11  13
ENDBRANCH   8  11
ENDBRANCH   3   9
BRANCH   4  22
ATOM     20  O   UNL     1      38.921 -22.446 -16.066  0.00  0.00    -0.269 OA
ATOM     21  N   UNL     1      36.774 -22.620 -16.924  0.00  0.00    -0.296 N 
ATOM     22  C   UNL     1      37.763 -22.847 -15.978  0.00  0.00    +0.260 C 
ATOM     23  H   UNL     1      35.873 -22.984 -16.763  0.00  0.00    +0.150 HD
BRANCH  21  24
ATOM     24  C   UNL     1      37.013 -21.873 -18.132  0.00  0.00    +0.117 C 
BRANCH  24  26
ATOM     25  F   UNL     1      32.237 -20.489 -20.755  0.00  0.00    -0.205 F 
ATOM     26  C   UNL     1      35.747 -21.504 -18.831  0.00  0.00    -0.003 C 
ATOM     27  C   UNL     1      35.784 -20.667 -19.945  0.00  0.00    -0.005 C 
ATOM     28  C   UNL     1      34.600 -20.322 -20.598  0.00  0.00    +0.005 C 
ATOM     29  C   UNL     1      34.527 -21.997 -18.369  0.00  0.00    -0.000 C 
ATOM     30  C   UNL     1      33.380 -20.815 -20.135  0.00  0.00    +0.136 C 
ATOM     31  C   UNL     1      33.343 -21.652 -19.020  0.00  0.00    +0.029 C 
ATOM     32  C   UNL     1      34.642 -19.427 -21.790  0.00  0.00    +0.033 C 
ENDBRANCH  24  26
ENDBRANCH  21  24
ENDBRANCH   4  22
TORSDOF 6
ENDMDL
