MODEL 1
REMARK VINA RESULT:     -11.6      0.000      0.000
REMARK  Name = 124173720
REMARK  4 active torsions:
REMARK  status: ('A' for Active; 'I' for Inactive)
REMARK    1  A    between atoms: C_13  and  N_24
REMARK    2  A    between atoms: C_18  and  C_23
REMARK    3  A    between atoms: N_24  and  C_26
REMARK    4  A    between atoms: C_26  and  C_30
REMARK                            x       y       z     vdW  Elec       q    Type
REMARK                         _______ _______ _______ _____ _____    ______ ____
ROOT
ATOM      1  O   UNL     1      32.341 -22.680 -17.893  0.00  0.00    -0.473 OA
ATOM      2  N   UNL     1      34.197 -23.768 -15.755  0.00  0.00    -0.272 N 
ATOM      3  N   UNL     1      36.324 -23.340 -16.154  0.00  0.00    -0.374 NA
ATOM      4  C   UNL     1      36.221 -24.148 -15.056  0.00  0.00    +0.190 C 
ATOM      5  C   UNL     1      35.087 -23.112 -16.583  0.00  0.00    +0.188 C 
ATOM      6  C   UNL     1      32.752 -23.802 -15.822  0.00  0.00    +0.141 C 
ATOM      7  C   UNL     1      34.909 -24.432 -14.789  0.00  0.00    +0.169 C 
ATOM      8  C   UNL     1      34.777 -22.282 -17.765  0.00  0.00    +0.078 C 
ATOM      9  C   UNL     1      32.159 -22.579 -16.484  0.00  0.00    +0.227 C 
ATOM     10  C   UNL     1      33.507 -22.120 -18.343  0.00  0.00    +0.144 C 
ATOM     11  C   UNL     1      35.857 -21.623 -18.391  0.00  0.00    +0.008 C 
ATOM     12  C   UNL     1      33.345 -21.374 -19.524  0.00  0.00    +0.051 C 
ATOM     13  C   UNL     1      34.430 -20.741 -20.120  0.00  0.00    +0.048 C 
ATOM     14  C   UNL     1      35.689 -20.861 -19.550  0.00  0.00    +0.015 C 
ATOM     15  O   UNL     1      39.463 -25.044 -13.826  0.00  0.00    -0.432 OA
ATOM     16  O   UNL     1      39.068 -23.494 -15.462  0.00  0.00    -0.226 OA
ATOM     17  N   UNL     1      37.311 -24.595 -14.349  0.00  0.00    -0.194 N 
ATOM     18  C   UNL     1      37.263 -25.451 -13.185  0.00  0.00    +0.195 C 
ATOM     19  C   UNL     1      38.660 -26.040 -13.183  0.00  0.00    +0.236 C 
ATOM     20  C   UNL     1      38.644 -24.293 -14.638  0.00  0.00    +0.411 C 
ENDROOT
BRANCH  18  23
ATOM     21  F   UNL     1      36.033 -25.305 -11.199  0.00  0.00    -0.196 F 
ATOM     22  F   UNL     1      38.101 -24.626 -11.161  0.00  0.00    -0.196 F 
ATOM     23  C   UNL     1      36.979 -24.658 -11.910  0.00  0.00    +0.340 C 
ENDBRANCH  18  23
BRANCH  13  24
ATOM     24  N   UNL     1      34.251 -19.984 -21.296  0.00  0.00    -0.327 N 
ATOM     25  H   UNL     1      33.335 -19.803 -21.603  0.00  0.00    +0.147 HD
BRANCH  24  26
ATOM     26  C   UNL     1      35.344 -19.467 -22.062  0.00  0.00    +0.146 C 
ATOM     27  C   UNL     1      35.079 -19.694 -23.543  0.00  0.00    +0.031 C 
BRANCH  26  30
ATOM     28  O   UNL     1      35.414 -17.505 -20.635  0.00  0.00    -0.274 OA
ATOM     29  N   UNL     1      35.770 -17.236 -22.888  0.00  0.00    -0.327 N 
ATOM     30  C   UNL     1      35.506 -17.986 -21.763  0.00  0.00    +0.237 C 
ATOM     31  H   UNL     1      35.893 -16.262 -22.813  0.00  0.00    +0.145 HD
ATOM     32  H   UNL     1      35.836 -17.674 -23.768  0.00  0.00    +0.145 HD
ENDBRANCH  26  30
ENDBRANCH  24  26
ENDBRANCH  13  24
TORSDOF 4
ENDMDL
MODEL 2
REMARK VINA RESULT:     -11.5      3.824      6.060
REMARK  Name = 124173720
REMARK  4 active torsions:
REMARK  status: ('A' for Active; 'I' for Inactive)
REMARK    1  A    between atoms: C_13  and  N_24
REMARK    2  A    between atoms: C_18  and  C_23
REMARK    3  A    between atoms: N_24  and  C_26
REMARK    4  A    between atoms: C_26  and  C_30
REMARK                            x       y       z     vdW  Elec       q    Type
REMARK                         _______ _______ _______ _____ _____    ______ ____
ROOT
ATOM      1  O   UNL     1      32.519 -22.429 -17.338  0.00  0.00    -0.473 OA
ATOM      2  N   UNL     1      34.913 -23.353 -15.723  0.00  0.00    -0.272 N 
ATOM      3  N   UNL     1      34.394 -23.946 -13.664  0.00  0.00    -0.374 NA
ATOM      4  C   UNL     1      35.752 -23.977 -13.817  0.00  0.00    +0.190 C 
ATOM      5  C   UNL     1      33.883 -23.559 -14.827  0.00  0.00    +0.188 C 
ATOM      6  C   UNL     1      34.843 -22.939 -17.109  0.00  0.00    +0.141 C 
ATOM      7  C   UNL     1      36.101 -23.610 -15.088  0.00  0.00    +0.169 C 
ATOM      8  C   UNL     1      32.434 -23.394 -15.065  0.00  0.00    +0.078 C 
ATOM      9  C   UNL     1      33.541 -23.319 -17.777  0.00  0.00    +0.227 C 
ATOM     10  C   UNL     1      31.849 -22.859 -16.224  0.00  0.00    +0.144 C 
ATOM     11  C   UNL     1      31.563 -23.771 -14.020  0.00  0.00    +0.008 C 
ATOM     12  C   UNL     1      30.458 -22.666 -16.303  0.00  0.00    +0.051 C 
ATOM     13  C   UNL     1      29.626 -23.043 -15.254  0.00  0.00    +0.048 C 
ATOM     14  C   UNL     1      30.179 -23.602 -14.112  0.00  0.00    +0.015 C 
ATOM     15  O   UNL     1      37.362 -24.827 -10.732  0.00  0.00    -0.432 OA
ATOM     16  O   UNL     1      35.104 -24.910 -11.094  0.00  0.00    -0.226 OA
ATOM     17  N   UNL     1      36.612 -24.331 -12.806  0.00  0.00    -0.194 N 
ATOM     18  C   UNL     1      38.054 -24.380 -12.909  0.00  0.00    +0.195 C 
ATOM     19  C   UNL     1      38.467 -24.272 -11.455  0.00  0.00    +0.236 C 
ATOM     20  C   UNL     1      36.235 -24.705 -11.514  0.00  0.00    +0.411 C 
ENDROOT
BRANCH  18  23
ATOM     21  F   UNL     1      39.159 -25.405 -14.700  0.00  0.00    -0.196 F 
ATOM     22  F   UNL     1      39.437 -26.259 -12.717  0.00  0.00    -0.196 F 
ATOM     23  C   UNL     1      38.533 -25.687 -13.539  0.00  0.00    +0.340 C 
ENDBRANCH  18  23
BRANCH  13  24
ATOM     24  N   UNL     1      28.232 -22.858 -15.352  0.00  0.00    -0.327 N 
ATOM     25  H   UNL     1      27.683 -22.991 -14.546  0.00  0.00    +0.147 HD
BRANCH  24  26
ATOM     26  C   UNL     1      27.581 -22.485 -16.570  0.00  0.00    +0.146 C 
ATOM     27  C   UNL     1      27.460 -23.703 -17.474  0.00  0.00    +0.031 C 
BRANCH  26  30
ATOM     28  O   UNL     1      25.569 -22.209 -15.241  0.00  0.00    -0.274 OA
ATOM     29  N   UNL     1      25.761 -21.025 -17.199  0.00  0.00    -0.327 N 
ATOM     30  C   UNL     1      26.211 -21.914 -16.247  0.00  0.00    +0.237 C 
ATOM     31  H   UNL     1      24.883 -20.592 -17.094  0.00  0.00    +0.145 HD
ATOM     32  H   UNL     1      26.317 -20.822 -17.986  0.00  0.00    +0.145 HD
ENDBRANCH  26  30
ENDBRANCH  24  26
ENDBRANCH  13  24
TORSDOF 4
ENDMDL
MODEL 3
REMARK VINA RESULT:     -11.0      1.220      1.497
REMARK  Name = 124173720
REMARK  4 active torsions:
REMARK  status: ('A' for Active; 'I' for Inactive)
REMARK    1  A    between atoms: C_13  and  N_24
REMARK    2  A    between atoms: C_18  and  C_23
REMARK    3  A    between atoms: N_24  and  C_26
REMARK    4  A    between atoms: C_26  and  C_30
REMARK                            x       y       z     vdW  Elec       q    Type
REMARK                         _______ _______ _______ _____ _____    ______ ____
ROOT
ATOM      1  O   UNL     1      32.864 -22.442 -18.557  0.00  0.00    -0.473 OA
ATOM      2  N   UNL     1      34.119 -23.641 -16.070  0.00  0.00    -0.272 N 
ATOM      3  N   UNL     1      36.306 -23.369 -15.985  0.00  0.00    -0.374 NA
ATOM      4  C   UNL     1      35.906 -24.158 -14.943  0.00  0.00    +0.190 C 
ATOM      5  C   UNL     1      35.215 -23.058 -16.675  0.00  0.00    +0.188 C 
ATOM      6  C   UNL     1      32.725 -23.572 -16.455  0.00  0.00    +0.141 C 
ATOM      7  C   UNL     1      34.550 -24.345 -14.975  0.00  0.00    +0.169 C 
ATOM      8  C   UNL     1      35.233 -22.217 -17.890  0.00  0.00    +0.078 C 
ATOM      9  C   UNL     1      32.382 -22.315 -17.222  0.00  0.00    +0.227 C 
ATOM     10  C   UNL     1      34.137 -21.971 -18.734  0.00  0.00    +0.144 C 
ATOM     11  C   UNL     1      36.469 -21.643 -18.258  0.00  0.00    +0.008 C 
ATOM     12  C   UNL     1      34.295 -21.225 -19.916  0.00  0.00    +0.051 C 
ATOM     13  C   UNL     1      35.527 -20.676 -20.253  0.00  0.00    +0.048 C 
ATOM     14  C   UNL     1      36.616 -20.881 -19.419  0.00  0.00    +0.015 C 
ATOM     15  O   UNL     1      38.723 -25.273 -13.032  0.00  0.00    -0.432 OA
ATOM     16  O   UNL     1      38.812 -23.712 -14.705  0.00  0.00    -0.226 OA
ATOM     17  N   UNL     1      36.777 -24.675 -14.016  0.00  0.00    -0.194 N 
ATOM     18  C   UNL     1      36.412 -25.516 -12.897  0.00  0.00    +0.195 C 
ATOM     19  C   UNL     1      37.728 -26.203 -12.591  0.00  0.00    +0.236 C 
ATOM     20  C   UNL     1      38.159 -24.472 -14.001  0.00  0.00    +0.411 C 
ENDROOT
BRANCH  18  23
ATOM     21  F   UNL     1      36.242 -23.401 -11.909  0.00  0.00    -0.196 F 
ATOM     22  F   UNL     1      34.564 -24.767 -11.670  0.00  0.00    -0.196 F 
ATOM     23  C   UNL     1      35.911 -24.693 -11.711  0.00  0.00    +0.340 C 
ENDBRANCH  18  23
BRANCH  13  24
ATOM     24  N   UNL     1      35.668 -19.919 -21.434  0.00  0.00    -0.327 N 
ATOM     25  H   UNL     1      36.377 -20.167 -22.069  0.00  0.00    +0.147 HD
BRANCH  24  26
ATOM     26  C   UNL     1      34.826 -18.806 -21.749  0.00  0.00    +0.146 C 
ATOM     27  C   UNL     1      35.290 -17.582 -20.973  0.00  0.00    +0.031 C 
BRANCH  26  30
ATOM     28  O   UNL     1      35.109 -17.447 -23.739  0.00  0.00    -0.274 OA
ATOM     29  N   UNL     1      34.644 -19.681 -23.994  0.00  0.00    -0.327 N 
ATOM     30  C   UNL     1      34.878 -18.549 -23.245  0.00  0.00    +0.237 C 
ATOM     31  H   UNL     1      34.653 -19.633 -24.977  0.00  0.00    +0.145 HD
ATOM     32  H   UNL     1      34.466 -20.540 -23.546  0.00  0.00    +0.145 HD
ENDBRANCH  26  30
ENDBRANCH  24  26
ENDBRANCH  13  24
TORSDOF 4
ENDMDL
MODEL 4
REMARK VINA RESULT:     -10.6      4.108      8.817
REMARK  Name = 124173720
REMARK  4 active torsions:
REMARK  status: ('A' for Active; 'I' for Inactive)
REMARK    1  A    between atoms: C_13  and  N_24
REMARK    2  A    between atoms: C_18  and  C_23
REMARK    3  A    between atoms: N_24  and  C_26
REMARK    4  A    between atoms: C_26  and  C_30
REMARK                            x       y       z     vdW  Elec       q    Type
REMARK                         _______ _______ _______ _____ _____    ______ ____
ROOT
ATOM      1  O   UNL     1      33.914 -23.198 -16.419  0.00  0.00    -0.473 OA
ATOM      2  N   UNL     1      34.094 -21.558 -18.963  0.00  0.00    -0.272 N 
ATOM      3  N   UNL     1      36.083 -20.657 -19.275  0.00  0.00    -0.374 NA
ATOM      4  C   UNL     1      35.224 -20.205 -20.236  0.00  0.00    +0.190 C 
ATOM      5  C   UNL     1      35.391 -21.480 -18.494  0.00  0.00    +0.188 C 
ATOM      6  C   UNL     1      32.987 -22.334 -18.446  0.00  0.00    +0.141 C 
ATOM      7  C   UNL     1      33.980 -20.747 -20.063  0.00  0.00    +0.169 C 
ATOM      8  C   UNL     1      35.971 -22.171 -17.324  0.00  0.00    +0.078 C 
ATOM      9  C   UNL     1      33.427 -23.575 -17.703  0.00  0.00    +0.227 C 
ATOM     10  C   UNL     1      35.257 -22.938 -16.388  0.00  0.00    +0.144 C 
ATOM     11  C   UNL     1      37.357 -22.016 -17.106  0.00  0.00    +0.008 C 
ATOM     12  C   UNL     1      35.903 -23.477 -15.261  0.00  0.00    +0.051 C 
ATOM     13  C   UNL     1      37.269 -23.303 -15.071  0.00  0.00    +0.048 C 
ATOM     14  C   UNL     1      38.000 -22.575 -15.998  0.00  0.00    +0.015 C 
ATOM     15  O   UNL     1      36.837 -17.818 -22.365  0.00  0.00    -0.432 OA
ATOM     16  O   UNL     1      37.897 -19.082 -20.779  0.00  0.00    -0.226 OA
ATOM     17  N   UNL     1      35.598 -19.324 -21.222  0.00  0.00    -0.194 N 
ATOM     18  C   UNL     1      34.734 -18.811 -22.262  0.00  0.00    +0.195 C 
ATOM     19  C   UNL     1      35.464 -17.545 -22.666  0.00  0.00    +0.236 C 
ATOM     20  C   UNL     1      36.875 -18.782 -21.382  0.00  0.00    +0.411 C 
ENDROOT
BRANCH  18  23
ATOM     21  F   UNL     1      34.383 -19.091 -24.558  0.00  0.00    -0.196 F 
ATOM     22  F   UNL     1      35.779 -20.441 -23.577  0.00  0.00    -0.196 F 
ATOM     23  C   UNL     1      34.607 -19.790 -23.427  0.00  0.00    +0.340 C 
ENDBRANCH  18  23
BRANCH  13  24
ATOM     24  N   UNL     1      37.906 -23.861 -13.944  0.00  0.00    -0.327 N 
ATOM     25  H   UNL     1      38.886 -23.946 -13.953  0.00  0.00    +0.147 HD
BRANCH  24  26
ATOM     26  C   UNL     1      37.191 -24.308 -12.788  0.00  0.00    +0.146 C 
ATOM     27  C   UNL     1      37.591 -25.741 -12.467  0.00  0.00    +0.031 C 
BRANCH  26  30
ATOM     28  O   UNL     1      38.261 -22.423 -11.699  0.00  0.00    -0.274 OA
ATOM     29  N   UNL     1      36.839 -23.738 -10.466  0.00  0.00    -0.327 N 
ATOM     30  C   UNL     1      37.501 -23.386 -11.622  0.00  0.00    +0.237 C 
ATOM     31  H   UNL     1      36.965 -23.210  -9.645  0.00  0.00    +0.145 HD
ATOM     32  H   UNL     1      36.239 -24.520 -10.461  0.00  0.00    +0.145 HD
ENDBRANCH  26  30
ENDBRANCH  24  26
ENDBRANCH  13  24
TORSDOF 4
ENDMDL
MODEL 5
REMARK VINA RESULT:      -8.8      7.608     11.691
REMARK  Name = 124173720
REMARK  4 active torsions:
REMARK  status: ('A' for Active; 'I' for Inactive)
REMARK    1  A    between atoms: C_13  and  N_24
REMARK    2  A    between atoms: C_18  and  C_23
REMARK    3  A    between atoms: N_24  and  C_26
REMARK    4  A    between atoms: C_26  and  C_30
REMARK                            x       y       z     vdW  Elec       q    Type
REMARK                         _______ _______ _______ _____ _____    ______ ____
ROOT
ATOM      1  O   UNL     1      33.761 -12.189 -25.877  0.00  0.00    -0.473 OA
ATOM      2  N   UNL     1      34.472 -14.944 -24.827  0.00  0.00    -0.272 N 
ATOM      3  N   UNL     1      34.501 -15.051 -22.624  0.00  0.00    -0.374 NA
ATOM      4  C   UNL     1      34.942 -16.236 -23.143  0.00  0.00    +0.190 C 
ATOM      5  C   UNL     1      34.219 -14.260 -23.654  0.00  0.00    +0.188 C 
ATOM      6  C   UNL     1      34.303 -14.496 -26.193  0.00  0.00    +0.141 C 
ATOM      7  C   UNL     1      34.937 -16.194 -24.511  0.00  0.00    +0.169 C 
ATOM      8  C   UNL     1      33.718 -12.879 -23.504  0.00  0.00    +0.078 C 
ATOM      9  C   UNL     1      33.241 -13.430 -26.342  0.00  0.00    +0.227 C 
ATOM     10  C   UNL     1      33.535 -11.955 -24.547  0.00  0.00    +0.144 C 
ATOM     11  C   UNL     1      33.434 -12.434 -22.195  0.00  0.00    +0.008 C 
ATOM     12  C   UNL     1      33.136 -10.635 -24.274  0.00  0.00    +0.051 C 
ATOM     13  C   UNL     1      32.869 -10.225 -22.972  0.00  0.00    +0.048 C 
ATOM     14  C   UNL     1      33.013 -11.129 -21.930  0.00  0.00    +0.015 C 
ATOM     15  O   UNL     1      35.938 -18.478 -20.533  0.00  0.00    -0.432 OA
ATOM     16  O   UNL     1      34.870 -16.481 -20.204  0.00  0.00    -0.226 OA
ATOM     17  N   UNL     1      35.332 -17.298 -22.363  0.00  0.00    -0.194 N 
ATOM     18  C   UNL     1      35.808 -18.572 -22.855  0.00  0.00    +0.195 C 
ATOM     19  C   UNL     1      36.578 -19.092 -21.657  0.00  0.00    +0.236 C 
ATOM     20  C   UNL     1      35.330 -17.321 -20.966  0.00  0.00    +0.411 C 
ENDROOT
BRANCH  18  23
ATOM     21  F   UNL     1      35.102 -20.400 -24.133  0.00  0.00    -0.196 F 
ATOM     22  F   UNL     1      34.264 -20.178 -22.136  0.00  0.00    -0.196 F 
ATOM     23  C   UNL     1      34.655 -19.499 -23.235  0.00  0.00    +0.340 C 
ENDBRANCH  18  23
BRANCH  13  24
ATOM     24  N   UNL     1      32.456  -8.903 -22.715  0.00  0.00    -0.327 N 
ATOM     25  H   UNL     1      31.560  -8.624 -23.012  0.00  0.00    +0.147 HD
BRANCH  24  26
ATOM     26  C   UNL     1      33.280  -7.948 -22.040  0.00  0.00    +0.146 C 
ATOM     27  C   UNL     1      33.634  -6.818 -22.996  0.00  0.00    +0.031 C 
BRANCH  26  30
ATOM     28  O   UNL     1      31.526  -6.721 -20.899  0.00  0.00    -0.274 OA
ATOM     29  N   UNL     1      33.112  -7.797 -19.634  0.00  0.00    -0.327 N 
ATOM     30  C   UNL     1      32.537  -7.416 -20.827  0.00  0.00    +0.237 C 
ATOM     31  H   UNL     1      32.715  -7.508 -18.781  0.00  0.00    +0.145 HD
ATOM     32  H   UNL     1      33.922  -8.357 -19.634  0.00  0.00    +0.145 HD
ENDBRANCH  26  30
ENDBRANCH  24  26
ENDBRANCH  13  24
TORSDOF 4
ENDMDL
