MODEL 1
REMARK VINA RESULT:     -11.4      0.000      0.000
REMARK  Name = 11560787
REMARK  5 active torsions:
REMARK  status: ('A' for Active; 'I' for Inactive)
REMARK    1  A    between atoms: N_2  and  C_23
REMARK    2  A    between atoms: C_8  and  C_9
REMARK    3  A    between atoms: C_12  and  N_15
REMARK    4  A    between atoms: C_13  and  O_21
REMARK    5  A    between atoms: C_23  and  C_26
REMARK                            x       y       z     vdW  Elec       q    Type
REMARK                         _______ _______ _______ _____ _____    ______ ____
ROOT
ATOM      1  O   UNL     1      37.445 -19.748 -20.821  0.00  0.00    -0.270 OA
ATOM      2  N   UNL     1      35.212 -19.766 -21.450  0.00  0.00    -0.274 N 
ATOM      3  C   UNL     1      33.813 -20.049 -21.133  0.00  0.00    +0.094 C 
ATOM      4  C   UNL     1      33.654 -21.256 -20.230  0.00  0.00    +0.026 C 
ATOM      5  C   UNL     1      34.487 -21.049 -18.978  0.00  0.00    +0.033 C 
ATOM      6  C   UNL     1      35.921 -20.804 -19.337  0.00  0.00    +0.031 C 
ATOM      7  C   UNL     1      36.275 -20.058 -20.592  0.00  0.00    +0.245 C 
ATOM      8  C   UNL     1      36.926 -21.265 -18.576  0.00  0.00    +0.000 C 
ENDROOT
BRANCH   8   9
ATOM      9  C   UNL     1      36.774 -22.013 -17.319  0.00  0.00    +0.003 C 
ATOM     10  C   UNL     1      35.525 -22.495 -16.959  0.00  0.00    +0.038 C 
ATOM     11  C   UNL     1      37.885 -22.226 -16.514  0.00  0.00    +0.001 C 
ATOM     12  C   UNL     1      36.489 -23.426 -14.949  0.00  0.00    +0.084 C 
ATOM     13  C   UNL     1      35.382 -23.206 -15.767  0.00  0.00    +0.152 C 
ATOM     14  C   UNL     1      37.741 -22.936 -15.323  0.00  0.00    +0.018 C 
BRANCH  12  15
ATOM     15  N   UNL     1      36.365 -24.128 -13.763  0.00  0.00    -0.280 N 
ATOM     16  N   UNL     1      36.403 -25.834 -12.330  0.00  0.00    -0.255 NA
ATOM     17  C   UNL     1      35.968 -23.620 -12.553  0.00  0.00    +0.134 C 
ATOM     18  C   UNL     1      36.615 -25.463 -13.574  0.00  0.00    +0.220 C 
ATOM     19  C   UNL     1      36.000 -24.689 -11.689  0.00  0.00    +0.054 C 
ATOM     20  C   UNL     1      35.668 -24.712 -10.256  0.00  0.00    +0.049 C 
ENDBRANCH  12  15
BRANCH  13  21
ATOM     21  O   UNL     1      34.149 -23.675 -15.424  0.00  0.00    -0.470 OA
ATOM     22  C   UNL     1      33.077 -23.392 -16.320  0.00  0.00    +0.253 C 
ENDBRANCH  13  21
ENDBRANCH   8   9
BRANCH   2  23
ATOM     23  C   UNL     1      35.450 -18.997 -22.664  0.00  0.00    +0.098 C 
ATOM     24  C   UNL     1      34.665 -19.618 -23.823  0.00  0.00    +0.026 C 
BRANCH  23  26
ATOM     25  F   UNL     1      34.173 -13.569 -21.951  0.00  0.00    -0.204 F 
ATOM     26  C   UNL     1      35.106 -17.532 -22.472  0.00  0.00    -0.004 C 
ATOM     27  C   UNL     1      34.937 -17.044 -21.189  0.00  0.00    -0.000 C 
ATOM     28  C   UNL     1      34.969 -16.722 -23.584  0.00  0.00    -0.000 C 
ATOM     29  C   UNL     1      34.620 -15.697 -21.012  0.00  0.00    +0.029 C 
ATOM     30  C   UNL     1      34.653 -15.375 -23.406  0.00  0.00    +0.029 C 
ATOM     31  C   UNL     1      34.478 -14.863 -22.121  0.00  0.00    +0.140 C 
ENDBRANCH  23  26
ENDBRANCH   2  23
TORSDOF 5
ENDMDL
MODEL 2
REMARK VINA RESULT:     -11.3      1.375      2.007
REMARK  Name = 11560787
REMARK  5 active torsions:
REMARK  status: ('A' for Active; 'I' for Inactive)
REMARK    1  A    between atoms: N_2  and  C_23
REMARK    2  A    between atoms: C_8  and  C_9
REMARK    3  A    between atoms: C_12  and  N_15
REMARK    4  A    between atoms: C_13  and  O_21
REMARK    5  A    between atoms: C_23  and  C_26
REMARK                            x       y       z     vdW  Elec       q    Type
REMARK                         _______ _______ _______ _____ _____    ______ ____
ROOT
ATOM      1  O   UNL     1      33.947 -20.006 -21.875  0.00  0.00    -0.270 OA
ATOM      2  N   UNL     1      35.945 -18.861 -22.147  0.00  0.00    -0.274 N 
ATOM      3  C   UNL     1      37.336 -18.636 -21.755  0.00  0.00    +0.094 C 
ATOM      4  C   UNL     1      37.560 -18.841 -20.269  0.00  0.00    +0.026 C 
ATOM      5  C   UNL     1      37.081 -20.229 -19.885  0.00  0.00    +0.033 C 
ATOM      6  C   UNL     1      35.643 -20.411 -20.263  0.00  0.00    +0.031 C 
ATOM      7  C   UNL     1      35.092 -19.754 -21.496  0.00  0.00    +0.245 C 
ATOM      8  C   UNL     1      34.802 -21.132 -19.506  0.00  0.00    +0.000 C 
ENDROOT
BRANCH   8   9
ATOM      9  C   UNL     1      35.159 -21.844 -18.269  0.00  0.00    +0.003 C 
ATOM     10  C   UNL     1      34.187 -22.567 -17.594  0.00  0.00    +0.038 C 
ATOM     11  C   UNL     1      36.463 -21.780 -17.799  0.00  0.00    +0.001 C 
ATOM     12  C   UNL     1      35.833 -23.187 -15.938  0.00  0.00    +0.084 C 
ATOM     13  C   UNL     1      34.527 -23.242 -16.422  0.00  0.00    +0.152 C 
ATOM     14  C   UNL     1      36.802 -22.455 -16.627  0.00  0.00    +0.018 C 
BRANCH  12  15
ATOM     15  N   UNL     1      36.187 -23.849 -14.776  0.00  0.00    -0.280 N 
ATOM     16  N   UNL     1      36.530 -24.225 -12.607  0.00  0.00    -0.255 NA
ATOM     17  C   UNL     1      36.669 -25.129 -14.681  0.00  0.00    +0.134 C 
ATOM     18  C   UNL     1      36.123 -23.351 -13.500  0.00  0.00    +0.220 C 
ATOM     19  C   UNL     1      36.871 -25.336 -13.337  0.00  0.00    +0.054 C 
ATOM     20  C   UNL     1      37.380 -26.543 -12.668  0.00  0.00    +0.049 C 
ENDBRANCH  12  15
BRANCH  13  21
ATOM     21  O   UNL     1      33.563 -23.950 -15.767  0.00  0.00    -0.470 OA
ATOM     22  C   UNL     1      32.286 -23.331 -15.630  0.00  0.00    +0.253 C 
ENDBRANCH  13  21
ENDBRANCH   8   9
BRANCH   2  23
ATOM     23  C   UNL     1      35.518 -18.219 -23.384  0.00  0.00    +0.098 C 
ATOM     24  C   UNL     1      34.544 -19.138 -24.125  0.00  0.00    +0.026 C 
BRANCH  23  26
ATOM     25  F   UNL     1      33.280 -13.155 -22.410  0.00  0.00    -0.204 F 
ATOM     26  C   UNL     1      34.914 -16.852 -23.121  0.00  0.00    -0.004 C 
ATOM     27  C   UNL     1      34.813 -16.401 -21.818  0.00  0.00    -0.000 C 
ATOM     28  C   UNL     1      34.480 -16.092 -24.191  0.00  0.00    -0.000 C 
ATOM     29  C   UNL     1      34.258 -15.145 -21.576  0.00  0.00    +0.029 C 
ATOM     30  C   UNL     1      33.925 -14.835 -23.950  0.00  0.00    +0.029 C 
ATOM     31  C   UNL     1      33.814 -14.362 -22.643  0.00  0.00    +0.140 C 
ENDBRANCH  23  26
ENDBRANCH   2  23
TORSDOF 5
ENDMDL
MODEL 3
REMARK VINA RESULT:     -10.1      3.648     10.625
REMARK  Name = 11560787
REMARK  5 active torsions:
REMARK  status: ('A' for Active; 'I' for Inactive)
REMARK    1  A    between atoms: N_2  and  C_23
REMARK    2  A    between atoms: C_8  and  C_9
REMARK    3  A    between atoms: C_12  and  N_15
REMARK    4  A    between atoms: C_13  and  O_21
REMARK    5  A    between atoms: C_23  and  C_26
REMARK                            x       y       z     vdW  Elec       q    Type
REMARK                         _______ _______ _______ _____ _____    ______ ____
ROOT
ATOM      1  O   UNL     1      36.932 -20.544 -19.348  0.00  0.00    -0.270 OA
ATOM      2  N   UNL     1      34.889 -21.598 -19.041  0.00  0.00    -0.274 N 
ATOM      3  C   UNL     1      33.482 -21.757 -19.405  0.00  0.00    +0.094 C 
ATOM      4  C   UNL     1      32.838 -20.449 -19.820  0.00  0.00    +0.026 C 
ATOM      5  C   UNL     1      33.649 -19.835 -20.946  0.00  0.00    +0.033 C 
ATOM      6  C   UNL     1      35.074 -19.647 -20.524  0.00  0.00    +0.031 C 
ATOM      7  C   UNL     1      35.727 -20.627 -19.594  0.00  0.00    +0.245 C 
ATOM      8  C   UNL     1      35.796 -18.592 -20.934  0.00  0.00    +0.000 C 
ENDROOT
BRANCH   8   9
ATOM      9  C   UNL     1      35.328 -17.534 -21.842  0.00  0.00    +0.003 C 
ATOM     10  C   UNL     1      34.820 -16.358 -21.312  0.00  0.00    +0.038 C 
ATOM     11  C   UNL     1      35.403 -17.730 -23.213  0.00  0.00    +0.001 C 
ATOM     12  C   UNL     1      34.446 -15.538 -23.553  0.00  0.00    +0.084 C 
ATOM     13  C   UNL     1      34.376 -15.354 -22.173  0.00  0.00    +0.152 C 
ATOM     14  C   UNL     1      34.959 -16.727 -24.073  0.00  0.00    +0.018 C 
BRANCH  12  15
ATOM     15  N   UNL     1      34.008 -14.553 -24.422  0.00  0.00    -0.280 N 
ATOM     16  N   UNL     1      33.678 -12.527 -25.286  0.00  0.00    -0.255 NA
ATOM     17  C   UNL     1      33.280 -14.740 -25.567  0.00  0.00    +0.134 C 
ATOM     18  C   UNL     1      34.221 -13.204 -24.299  0.00  0.00    +0.220 C 
ATOM     19  C   UNL     1      33.091 -13.479 -26.081  0.00  0.00    +0.054 C 
ATOM     20  C   UNL     1      32.372 -13.093 -27.305  0.00  0.00    +0.049 C 
ENDBRANCH  12  15
BRANCH  13  21
ATOM     21  O   UNL     1      33.879 -14.201 -21.640  0.00  0.00    -0.470 OA
ATOM     22  C   UNL     1      32.622 -14.287 -20.974  0.00  0.00    +0.253 C 
ENDBRANCH  13  21
ENDBRANCH   8   9
BRANCH   2  23
ATOM     23  C   UNL     1      35.444 -22.626 -18.170  0.00  0.00    +0.098 C 
ATOM     24  C   UNL     1      36.826 -22.186 -17.678  0.00  0.00    +0.026 C 
BRANCH  23  26
ATOM     25  F   UNL     1      31.986 -23.798 -13.896  0.00  0.00    -0.204 F 
ATOM     26  C   UNL     1      34.511 -22.942 -17.017  0.00  0.00    -0.004 C 
ATOM     27  C   UNL     1      35.024 -23.002 -15.734  0.00  0.00    -0.000 C 
ATOM     28  C   UNL     1      33.171 -23.163 -17.277  0.00  0.00    -0.000 C 
ATOM     29  C   UNL     1      34.165 -23.293 -14.673  0.00  0.00    +0.029 C 
ATOM     30  C   UNL     1      32.313 -23.454 -16.216  0.00  0.00    +0.029 C 
ATOM     31  C   UNL     1      32.810 -23.519 -14.915  0.00  0.00    +0.140 C 
ENDBRANCH  23  26
ENDBRANCH   2  23
TORSDOF 5
ENDMDL
MODEL 4
REMARK VINA RESULT:     -10.0      3.204     10.228
REMARK  Name = 11560787
REMARK  5 active torsions:
REMARK  status: ('A' for Active; 'I' for Inactive)
REMARK    1  A    between atoms: N_2  and  C_23
REMARK    2  A    between atoms: C_8  and  C_9
REMARK    3  A    between atoms: C_12  and  N_15
REMARK    4  A    between atoms: C_13  and  O_21
REMARK    5  A    between atoms: C_23  and  C_26
REMARK                            x       y       z     vdW  Elec       q    Type
REMARK                         _______ _______ _______ _____ _____    ______ ____
ROOT
ATOM      1  O   UNL     1      33.964 -24.498 -16.617  0.00  0.00    -0.270 OA
ATOM      2  N   UNL     1      35.939 -24.068 -15.480  0.00  0.00    -0.274 N 
ATOM      3  C   UNL     1      37.090 -23.202 -15.230  0.00  0.00    +0.094 C 
ATOM      4  C   UNL     1      37.554 -22.477 -16.478  0.00  0.00    +0.026 C 
ATOM      5  C   UNL     1      36.384 -21.710 -17.067  0.00  0.00    +0.033 C 
ATOM      6  C   UNL     1      35.240 -22.635 -17.350  0.00  0.00    +0.031 C 
ATOM      7  C   UNL     1      34.976 -23.814 -16.459  0.00  0.00    +0.245 C 
ATOM      8  C   UNL     1      34.441 -22.460 -18.415  0.00  0.00    +0.000 C 
ENDROOT
BRANCH   8   9
ATOM      9  C   UNL     1      34.546 -21.369 -19.395  0.00  0.00    +0.003 C 
ATOM     10  C   UNL     1      35.799 -20.932 -19.796  0.00  0.00    +0.038 C 
ATOM     11  C   UNL     1      33.389 -20.795 -19.902  0.00  0.00    +0.001 C 
ATOM     12  C   UNL     1      34.744 -19.311 -21.244  0.00  0.00    +0.084 C 
ATOM     13  C   UNL     1      35.899 -19.897 -20.726  0.00  0.00    +0.152 C 
ATOM     14  C   UNL     1      33.488 -19.760 -20.831  0.00  0.00    +0.018 C 
BRANCH  12  15
ATOM     15  N   UNL     1      34.824 -18.282 -22.166  0.00  0.00    -0.280 N 
ATOM     16  N   UNL     1      35.024 -17.246 -24.128  0.00  0.00    -0.255 NA
ATOM     17  C   UNL     1      34.760 -16.940 -21.898  0.00  0.00    +0.134 C 
ATOM     18  C   UNL     1      34.982 -18.412 -23.522  0.00  0.00    +0.220 C 
ATOM     19  C   UNL     1      34.885 -16.324 -23.121  0.00  0.00    +0.054 C 
ATOM     20  C   UNL     1      34.884 -14.884 -23.420  0.00  0.00    +0.049 C 
ENDBRANCH  12  15
BRANCH  13  21
ATOM     21  O   UNL     1      37.136 -19.476 -21.114  0.00  0.00    -0.470 OA
ATOM     22  C   UNL     1      37.818 -18.581 -20.239  0.00  0.00    +0.253 C 
ENDBRANCH  13  21
ENDBRANCH   8   9
BRANCH   2  23
ATOM     23  C   UNL     1      35.741 -25.158 -14.533  0.00  0.00    +0.098 C 
ATOM     24  C   UNL     1      36.604 -26.354 -14.944  0.00  0.00    +0.026 C 
BRANCH  23  26
ATOM     25  F   UNL     1      36.812 -23.529  -9.261  0.00  0.00    -0.204 F 
ATOM     26  C   UNL     1      36.030 -24.719 -13.110  0.00  0.00    -0.004 C 
ATOM     27  C   UNL     1      37.324 -24.804 -12.630  0.00  0.00    -0.000 C 
ATOM     28  C   UNL     1      34.993 -24.244 -12.330  0.00  0.00    -0.000 C 
ATOM     29  C   UNL     1      37.590 -24.399 -11.322  0.00  0.00    +0.029 C 
ATOM     30  C   UNL     1      35.259 -23.839 -11.021  0.00  0.00    +0.029 C 
ATOM     31  C   UNL     1      36.557 -23.917 -10.518  0.00  0.00    +0.140 C 
ENDBRANCH  23  26
ENDBRANCH   2  23
TORSDOF 5
ENDMDL
MODEL 5
REMARK VINA RESULT:      -9.5      5.798     10.337
REMARK  Name = 11560787
REMARK  5 active torsions:
REMARK  status: ('A' for Active; 'I' for Inactive)
REMARK    1  A    between atoms: N_2  and  C_23
REMARK    2  A    between atoms: C_8  and  C_9
REMARK    3  A    between atoms: C_12  and  N_15
REMARK    4  A    between atoms: C_13  and  O_21
REMARK    5  A    between atoms: C_23  and  C_26
REMARK                            x       y       z     vdW  Elec       q    Type
REMARK                         _______ _______ _______ _____ _____    ______ ____
ROOT
ATOM      1  O   UNL     1      32.766  -9.996 -23.651  0.00  0.00    -0.270 OA
ATOM      2  N   UNL     1      31.997  -9.325 -21.568  0.00  0.00    -0.274 N 
ATOM      3  C   UNL     1      31.872  -9.562 -20.131  0.00  0.00    +0.094 C 
ATOM      4  C   UNL     1      31.748 -11.035 -19.794  0.00  0.00    +0.026 C 
ATOM      5  C   UNL     1      32.928 -11.779 -20.390  0.00  0.00    +0.033 C 
ATOM      6  C   UNL     1      33.000 -11.549 -21.869  0.00  0.00    +0.031 C 
ATOM      7  C   UNL     1      32.587 -10.229 -22.454  0.00  0.00    +0.245 C 
ATOM      8  C   UNL     1      33.402 -12.512 -22.713  0.00  0.00    +0.000 C 
ENDROOT
BRANCH   8   9
ATOM      9  C   UNL     1      33.841 -13.861 -22.326  0.00  0.00    +0.003 C 
ATOM     10  C   UNL     1      34.201 -14.769 -23.310  0.00  0.00    +0.038 C 
ATOM     11  C   UNL     1      33.888 -14.203 -20.982  0.00  0.00    +0.001 C 
ATOM     12  C   UNL     1      34.671 -16.405 -21.596  0.00  0.00    +0.084 C 
ATOM     13  C   UNL     1      34.618 -16.049 -22.943  0.00  0.00    +0.152 C 
ATOM     14  C   UNL     1      34.305 -15.481 -20.615  0.00  0.00    +0.018 C 
BRANCH  12  15
ATOM     15  N   UNL     1      35.081 -17.670 -21.213  0.00  0.00    -0.280 N 
ATOM     16  N   UNL     1      36.438 -19.358 -20.693  0.00  0.00    -0.255 NA
ATOM     17  C   UNL     1      34.270 -18.733 -20.908  0.00  0.00    +0.134 C 
ATOM     18  C   UNL     1      36.375 -18.100 -21.068  0.00  0.00    +0.220 C 
ATOM     19  C   UNL     1      35.130 -19.759 -20.591  0.00  0.00    +0.054 C 
ATOM     20  C   UNL     1      34.797 -21.133 -20.187  0.00  0.00    +0.049 C 
ENDBRANCH  12  15
BRANCH  13  21
ATOM     21  O   UNL     1      34.971 -16.933 -23.919  0.00  0.00    -0.470 OA
ATOM     22  C   UNL     1      34.831 -16.496 -25.268  0.00  0.00    +0.253 C 
ENDBRANCH  13  21
ENDBRANCH   8   9
BRANCH   2  23
ATOM     23  C   UNL     1      31.614  -7.998 -22.033  0.00  0.00    +0.098 C 
ATOM     24  C   UNL     1      31.208  -7.136 -20.834  0.00  0.00    +0.026 C 
BRANCH  23  26
ATOM     25  F   UNL     1      35.718  -5.598 -25.030  0.00  0.00    -0.204 F 
ATOM     26  C   UNL     1      32.722  -7.350 -22.841  0.00  0.00    -0.004 C 
ATOM     27  C   UNL     1      34.036  -7.542 -22.456  0.00  0.00    -0.000 C 
ATOM     28  C   UNL     1      32.389  -6.585 -23.944  0.00  0.00    -0.000 C 
ATOM     29  C   UNL     1      35.054  -6.946 -23.200  0.00  0.00    +0.029 C 
ATOM     30  C   UNL     1      33.408  -5.989 -24.688  0.00  0.00    +0.029 C 
ATOM     31  C   UNL     1      34.740  -6.170 -24.316  0.00  0.00    +0.140 C 
ENDBRANCH  23  26
ENDBRANCH   2  23
TORSDOF 5
ENDMDL
MODEL 6
REMARK VINA RESULT:      -9.5      7.419     12.385
REMARK  Name = 11560787
REMARK  5 active torsions:
REMARK  status: ('A' for Active; 'I' for Inactive)
REMARK    1  A    between atoms: N_2  and  C_23
REMARK    2  A    between atoms: C_8  and  C_9
REMARK    3  A    between atoms: C_12  and  N_15
REMARK    4  A    between atoms: C_13  and  O_21
REMARK    5  A    between atoms: C_23  and  C_26
REMARK                            x       y       z     vdW  Elec       q    Type
REMARK                         _______ _______ _______ _____ _____    ______ ____
ROOT
ATOM      1  O   UNL     1      30.945  -8.653 -22.475  0.00  0.00    -0.270 OA
ATOM      2  N   UNL     1      32.784  -7.484 -23.269  0.00  0.00    -0.274 N 
ATOM      3  C   UNL     1      34.128  -7.483 -23.845  0.00  0.00    +0.094 C 
ATOM      4  C   UNL     1      34.974  -8.639 -23.349  0.00  0.00    +0.026 C 
ATOM      5  C   UNL     1      34.241  -9.939 -23.623  0.00  0.00    +0.033 C 
ATOM      6  C   UNL     1      32.886  -9.923 -22.983  0.00  0.00    +0.031 C 
ATOM      7  C   UNL     1      32.107  -8.643 -22.884  0.00  0.00    +0.245 C 
ATOM      8  C   UNL     1      32.343 -11.032 -22.456  0.00  0.00    +0.000 C 
ENDROOT
BRANCH   8   9
ATOM      9  C   UNL     1      32.955 -12.369 -22.458  0.00  0.00    +0.003 C 
ATOM     10  C   UNL     1      33.241 -12.986 -23.666  0.00  0.00    +0.038 C 
ATOM     11  C   UNL     1      33.237 -12.991 -21.250  0.00  0.00    +0.001 C 
ATOM     12  C   UNL     1      34.111 -14.891 -22.461  0.00  0.00    +0.084 C 
ATOM     13  C   UNL     1      33.822 -14.254 -23.668  0.00  0.00    +0.152 C 
ATOM     14  C   UNL     1      33.817 -14.259 -21.251  0.00  0.00    +0.018 C 
BRANCH  12  15
ATOM     15  N   UNL     1      34.686 -16.149 -22.444  0.00  0.00    -0.280 N 
ATOM     16  N   UNL     1      35.511 -18.079 -23.190  0.00  0.00    -0.255 NA
ATOM     17  C   UNL     1      35.084 -16.849 -21.335  0.00  0.00    +0.134 C 
ATOM     18  C   UNL     1      34.965 -16.934 -23.533  0.00  0.00    +0.220 C 
ATOM     19  C   UNL     1      35.588 -18.033 -21.821  0.00  0.00    +0.054 C 
ATOM     20  C   UNL     1      36.155 -19.160 -21.064  0.00  0.00    +0.049 C 
ENDBRANCH  12  15
BRANCH  13  21
ATOM     21  O   UNL     1      34.100 -14.851 -24.862  0.00  0.00    -0.470 OA
ATOM     22  C   UNL     1      33.211 -14.578 -25.942  0.00  0.00    +0.253 C 
ENDBRANCH  13  21
ENDBRANCH   8   9
BRANCH   2  23
ATOM     23  C   UNL     1      32.091  -6.202 -23.260  0.00  0.00    +0.098 C 
ATOM     24  C   UNL     1      32.285  -5.527 -21.899  0.00  0.00    +0.026 C 
BRANCH  23  26
ATOM     25  F   UNL     1      33.791  -2.907 -27.484  0.00  0.00    -0.204 F 
ATOM     26  C   UNL     1      32.550  -5.313 -24.399  0.00  0.00    -0.004 C 
ATOM     27  C   UNL     1      33.292  -5.866 -25.426  0.00  0.00    -0.000 C 
ATOM     28  C   UNL     1      32.214  -3.972 -24.383  0.00  0.00    -0.000 C 
ATOM     29  C   UNL     1      33.714  -5.048 -26.475  0.00  0.00    +0.029 C 
ATOM     30  C   UNL     1      32.636  -3.154 -25.432  0.00  0.00    +0.029 C 
ATOM     31  C   UNL     1      33.386  -3.692 -26.477  0.00  0.00    +0.140 C 
ENDBRANCH  23  26
ENDBRANCH   2  23
TORSDOF 5
ENDMDL
MODEL 7
REMARK VINA RESULT:      -9.4      1.132      2.082
REMARK  Name = 11560787
REMARK  5 active torsions:
REMARK  status: ('A' for Active; 'I' for Inactive)
REMARK    1  A    between atoms: N_2  and  C_23
REMARK    2  A    between atoms: C_8  and  C_9
REMARK    3  A    between atoms: C_12  and  N_15
REMARK    4  A    between atoms: C_13  and  O_21
REMARK    5  A    between atoms: C_23  and  C_26
REMARK                            x       y       z     vdW  Elec       q    Type
REMARK                         _______ _______ _______ _____ _____    ______ ____
ROOT
ATOM      1  O   UNL     1      37.442 -19.676 -20.767  0.00  0.00    -0.270 OA
ATOM      2  N   UNL     1      35.215 -19.709 -21.414  0.00  0.00    -0.274 N 
ATOM      3  C   UNL     1      33.818 -20.019 -21.116  0.00  0.00    +0.094 C 
ATOM      4  C   UNL     1      33.669 -21.251 -20.245  0.00  0.00    +0.026 C 
ATOM      5  C   UNL     1      34.489 -21.065 -18.982  0.00  0.00    +0.033 C 
ATOM      6  C   UNL     1      35.923 -20.791 -19.323  0.00  0.00    +0.031 C 
ATOM      7  C   UNL     1      36.275 -20.008 -20.555  0.00  0.00    +0.245 C 
ATOM      8  C   UNL     1      36.928 -21.257 -18.566  0.00  0.00    +0.000 C 
ENDROOT
BRANCH   8   9
ATOM      9  C   UNL     1      36.777 -22.040 -17.330  0.00  0.00    +0.003 C 
ATOM     10  C   UNL     1      37.907 -22.424 -16.624  0.00  0.00    +0.038 C 
ATOM     11  C   UNL     1      35.506 -22.379 -16.889  0.00  0.00    +0.001 C 
ATOM     12  C   UNL     1      36.492 -23.514 -14.998  0.00  0.00    +0.084 C 
ATOM     13  C   UNL     1      37.764 -23.166 -15.451  0.00  0.00    +0.152 C 
ATOM     14  C   UNL     1      35.363 -23.121 -15.717  0.00  0.00    +0.018 C 
BRANCH  12  15
ATOM     15  N   UNL     1      36.331 -24.251 -13.837  0.00  0.00    -0.280 N 
ATOM     16  N   UNL     1      35.427 -24.989 -11.940  0.00  0.00    -0.255 NA
ATOM     17  C   UNL     1      37.180 -25.215 -13.359  0.00  0.00    +0.134 C 
ATOM     18  C   UNL     1      35.293 -24.155 -12.946  0.00  0.00    +0.220 C 
ATOM     19  C   UNL     1      36.601 -25.654 -12.191  0.00  0.00    +0.054 C 
ATOM     20  C   UNL     1      37.089 -26.687 -11.265  0.00  0.00    +0.049 C 
ENDBRANCH  12  15
BRANCH  13  21
ATOM     21  O   UNL     1      38.882 -23.538 -14.766  0.00  0.00    -0.470 OA
ATOM     22  C   UNL     1      39.668 -24.584 -15.330  0.00  0.00    +0.253 C 
ENDBRANCH  13  21
ENDBRANCH   8   9
BRANCH   2  23
ATOM     23  C   UNL     1      35.452 -18.905 -22.606  0.00  0.00    +0.098 C 
ATOM     24  C   UNL     1      34.701 -19.518 -23.791  0.00  0.00    +0.026 C 
BRANCH  23  26
ATOM     25  F   UNL     1      34.025 -13.530 -21.789  0.00  0.00    -0.204 F 
ATOM     26  C   UNL     1      35.067 -17.455 -22.385  0.00  0.00    -0.004 C 
ATOM     27  C   UNL     1      34.873 -16.637 -23.483  0.00  0.00    -0.000 C 
ATOM     28  C   UNL     1      34.919 -16.988 -21.093  0.00  0.00    -0.000 C 
ATOM     29  C   UNL     1      34.518 -15.303 -23.280  0.00  0.00    +0.029 C 
ATOM     30  C   UNL     1      34.565 -15.654 -20.890  0.00  0.00    +0.029 C 
ATOM     31  C   UNL     1      34.365 -14.812 -21.983  0.00  0.00    +0.140 C 
ENDBRANCH  23  26
ENDBRANCH   2  23
TORSDOF 5
ENDMDL
MODEL 8
REMARK VINA RESULT:      -8.9      7.773     12.658
REMARK  Name = 11560787
REMARK  5 active torsions:
REMARK  status: ('A' for Active; 'I' for Inactive)
REMARK    1  A    between atoms: N_2  and  C_23
REMARK    2  A    between atoms: C_8  and  C_9
REMARK    3  A    between atoms: C_12  and  N_15
REMARK    4  A    between atoms: C_13  and  O_21
REMARK    5  A    between atoms: C_23  and  C_26
REMARK                            x       y       z     vdW  Elec       q    Type
REMARK                         _______ _______ _______ _____ _____    ______ ____
ROOT
ATOM      1  O   UNL     1      30.861  -8.109 -22.833  0.00  0.00    -0.270 OA
ATOM      2  N   UNL     1      32.799  -6.974 -23.413  0.00  0.00    -0.274 N 
ATOM      3  C   UNL     1      34.201  -6.998 -23.827  0.00  0.00    +0.094 C 
ATOM      4  C   UNL     1      34.964  -8.162 -23.226  0.00  0.00    +0.026 C 
ATOM      5  C   UNL     1      34.249  -9.454 -23.575  0.00  0.00    +0.033 C 
ATOM      6  C   UNL     1      32.829  -9.412 -23.100  0.00  0.00    +0.031 C 
ATOM      7  C   UNL     1      32.063  -8.120 -23.102  0.00  0.00    +0.245 C 
ATOM      8  C   UNL     1      32.210 -10.508 -22.632  0.00  0.00    +0.000 C 
ENDROOT
BRANCH   8   9
ATOM      9  C   UNL     1      32.797 -11.854 -22.552  0.00  0.00    +0.003 C 
ATOM     10  C   UNL     1      32.273 -12.774 -21.657  0.00  0.00    +0.038 C 
ATOM     11  C   UNL     1      33.865 -12.181 -23.375  0.00  0.00    +0.001 C 
ATOM     12  C   UNL     1      33.903 -14.393 -22.404  0.00  0.00    +0.084 C 
ATOM     13  C   UNL     1      32.829 -14.051 -21.582  0.00  0.00    +0.152 C 
ATOM     14  C   UNL     1      34.421 -13.457 -23.300  0.00  0.00    +0.018 C 
BRANCH  12  15
ATOM     15  N   UNL     1      34.468 -15.655 -22.341  0.00  0.00    -0.280 N 
ATOM     16  N   UNL     1      35.428 -17.474 -21.486  0.00  0.00    -0.255 NA
ATOM     17  C   UNL     1      34.651 -16.519 -23.389  0.00  0.00    +0.134 C 
ATOM     18  C   UNL     1      34.952 -16.278 -21.220  0.00  0.00    +0.220 C 
ATOM     19  C   UNL     1      35.243 -17.631 -22.836  0.00  0.00    +0.054 C 
ATOM     20  C   UNL     1      35.660 -18.870 -23.510  0.00  0.00    +0.049 C 
ENDBRANCH  12  15
BRANCH  13  21
ATOM     21  O   UNL     1      32.306 -14.947 -20.698  0.00  0.00    -0.470 OA
ATOM     22  C   UNL     1      32.253 -14.550 -19.330  0.00  0.00    +0.253 C 
ENDBRANCH  13  21
ENDBRANCH   8   9
BRANCH   2  23
ATOM     23  C   UNL     1      32.130  -5.682 -23.495  0.00  0.00    +0.098 C 
ATOM     24  C   UNL     1      32.307  -4.931 -22.172  0.00  0.00    +0.026 C 
BRANCH  23  26
ATOM     25  F   UNL     1      33.980  -2.673 -27.867  0.00  0.00    -0.204 F 
ATOM     26  C   UNL     1      32.629  -4.870 -24.674  0.00  0.00    -0.004 C 
ATOM     27  C   UNL     1      33.376  -5.497 -25.654  0.00  0.00    -0.000 C 
ATOM     28  C   UNL     1      32.325  -3.523 -24.740  0.00  0.00    -0.000 C 
ATOM     29  C   UNL     1      33.835  -4.751 -26.739  0.00  0.00    +0.029 C 
ATOM     30  C   UNL     1      32.784  -2.776 -25.825  0.00  0.00    +0.029 C 
ATOM     31  C   UNL     1      33.539  -3.390 -26.824  0.00  0.00    +0.140 C 
ENDBRANCH  23  26
ENDBRANCH   2  23
TORSDOF 5
ENDMDL
MODEL 9
REMARK VINA RESULT:      -8.9      3.246      5.923
REMARK  Name = 11560787
REMARK  5 active torsions:
REMARK  status: ('A' for Active; 'I' for Inactive)
REMARK    1  A    between atoms: N_2  and  C_23
REMARK    2  A    between atoms: C_8  and  C_9
REMARK    3  A    between atoms: C_12  and  N_15
REMARK    4  A    between atoms: C_13  and  O_21
REMARK    5  A    between atoms: C_23  and  C_26
REMARK                            x       y       z     vdW  Elec       q    Type
REMARK                         _______ _______ _______ _____ _____    ______ ____
ROOT
ATOM      1  O   UNL     1      35.169 -15.993 -25.068  0.00  0.00    -0.270 OA
ATOM      2  N   UNL     1      34.238 -14.282 -23.810  0.00  0.00    -0.274 N 
ATOM      3  C   UNL     1      33.908 -13.708 -22.506  0.00  0.00    +0.094 C 
ATOM      4  C   UNL     1      33.559 -14.766 -21.477  0.00  0.00    +0.026 C 
ATOM      5  C   UNL     1      34.701 -15.761 -21.386  0.00  0.00    +0.033 C 
ATOM      6  C   UNL     1      34.984 -16.360 -22.729  0.00  0.00    +0.031 C 
ATOM      7  C   UNL     1      34.816 -15.542 -23.977  0.00  0.00    +0.245 C 
ATOM      8  C   UNL     1      35.363 -17.641 -22.864  0.00  0.00    +0.000 C 
ENDROOT
BRANCH   8   9
ATOM      9  C   UNL     1      35.578 -18.590 -21.761  0.00  0.00    +0.003 C 
ATOM     10  C   UNL     1      34.524 -19.379 -21.325  0.00  0.00    +0.038 C 
ATOM     11  C   UNL     1      36.833 -18.682 -21.176  0.00  0.00    +0.001 C 
ATOM     12  C   UNL     1      35.985 -20.382 -19.684  0.00  0.00    +0.084 C 
ATOM     13  C   UNL     1      34.729 -20.280 -20.280  0.00  0.00    +0.152 C 
ATOM     14  C   UNL     1      37.037 -19.582 -20.132  0.00  0.00    +0.018 C 
BRANCH  12  15
ATOM     15  N   UNL     1      36.205 -21.269 -18.644  0.00  0.00    -0.280 N 
ATOM     16  N   UNL     1      35.868 -22.963 -17.237  0.00  0.00    -0.255 NA
ATOM     17  C   UNL     1      37.286 -21.287 -17.803  0.00  0.00    +0.134 C 
ATOM     18  C   UNL     1      35.383 -22.297 -18.261  0.00  0.00    +0.220 C 
ATOM     19  C   UNL     1      37.055 -22.338 -16.946  0.00  0.00    +0.054 C 
ATOM     20  C   UNL     1      37.898 -22.812 -15.838  0.00  0.00    +0.049 C 
ENDBRANCH  12  15
BRANCH  13  21
ATOM     21  O   UNL     1      33.685 -21.050 -19.860  0.00  0.00    -0.470 OA
ATOM     22  C   UNL     1      32.393 -20.448 -19.869  0.00  0.00    +0.253 C 
ENDBRANCH  13  21
ENDBRANCH   8   9
BRANCH   2  23
ATOM     23  C   UNL     1      34.086 -13.395 -24.956  0.00  0.00    +0.098 C 
ATOM     24  C   UNL     1      32.753 -13.684 -25.651  0.00  0.00    +0.026 C 
BRANCH  23  26
ATOM     25  F   UNL     1      34.528  -7.995 -23.458  0.00  0.00    -0.204 F 
ATOM     26  C   UNL     1      34.205 -11.938 -24.551  0.00  0.00    -0.004 C 
ATOM     27  C   UNL     1      35.168 -11.150 -25.154  0.00  0.00    -0.000 C 
ATOM     28  C   UNL     1      33.348 -11.434 -23.591  0.00  0.00    -0.000 C 
ATOM     29  C   UNL     1      35.278  -9.810 -24.783  0.00  0.00    +0.029 C 
ATOM     30  C   UNL     1      33.457 -10.094 -23.220  0.00  0.00    +0.029 C 
ATOM     31  C   UNL     1      34.422  -9.282 -23.815  0.00  0.00    +0.140 C 
ENDBRANCH  23  26
ENDBRANCH   2  23
TORSDOF 5
ENDMDL
