MODEL 1
REMARK VINA RESULT:     -11.2      0.000      0.000
REMARK  Name = 24812758
REMARK  9 active torsions:
REMARK  status: ('A' for Active; 'I' for Inactive)
REMARK    1  A    between atoms: C_1  and  C_11
REMARK    2  A    between atoms: C_4  and  C_23
REMARK    3  A    between atoms: C_9  and  O_14
REMARK    4  A    between atoms: C_10  and  O_16
REMARK    5  A    between atoms: C_12  and  O_18
REMARK    6  A    between atoms: C_13  and  C_20
REMARK    7  A    between atoms: C_20  and  O_21
REMARK    8  A    between atoms: C_23  and  C_25
REMARK    9  A    between atoms: C_27  and  C_30
REMARK                            x       y       z     vdW  Elec       q    Type
REMARK                         _______ _______ _______ _____ _____    ______ ____
ROOT
ATOM      1  C   UNL     1      34.628 -23.546 -14.593  0.00  0.00    +0.007 C 
ATOM      2  C   UNL     1      34.601 -23.625 -15.985  0.00  0.00    -0.006 C 
ATOM      3  C   UNL     1      33.490 -23.144 -13.894  0.00  0.00    -0.002 C 
ATOM      4  C   UNL     1      33.435 -23.301 -16.680  0.00  0.00    -0.021 C 
ATOM      5  C   UNL     1      32.296 -22.899 -15.981  0.00  0.00    -0.025 C 
ATOM      6  C   UNL     1      32.324 -22.820 -14.589  0.00  0.00    -0.005 C 
ATOM      7  C   UNL     1      31.036 -22.549 -16.701  0.00  0.00    +0.031 C 
ENDROOT
BRANCH   1  11
ATOM      8  O   UNL     1      36.924 -24.137 -14.805  0.00  0.00    -0.347 OA
ATOM      9  C   UNL     1      35.704 -25.121 -12.930  0.00  0.00    +0.171 C 
ATOM     10  C   UNL     1      37.032 -25.554 -12.304  0.00  0.00    +0.169 C 
ATOM     11  C   UNL     1      35.896 -23.897 -13.839  0.00  0.00    +0.167 C 
ATOM     12  C   UNL     1      38.134 -25.659 -13.357  0.00  0.00    +0.169 C 
ATOM     13  C   UNL     1      38.196 -24.389 -14.208  0.00  0.00    +0.174 C 
BRANCH   9  14
ATOM     14  O   UNL     1      34.790 -24.778 -11.889  0.00  0.00    -0.379 OA
ATOM     15  H   UNL     1      35.205 -24.940 -11.027  0.00  0.00    +0.211 HD
ENDBRANCH   9  14
BRANCH  10  16
ATOM     16  O   UNL     1      36.876 -26.838 -11.699  0.00  0.00    -0.379 OA
ATOM     17  H   UNL     1      35.959 -26.946 -11.402  0.00  0.00    +0.211 HD
ENDBRANCH  10  16
BRANCH  12  18
ATOM     18  O   UNL     1      39.389 -25.851 -12.708  0.00  0.00    -0.379 OA
ATOM     19  H   UNL     1      39.557 -26.801 -12.606  0.00  0.00    +0.211 HD
ENDBRANCH  12  18
BRANCH  13  20
ATOM     20  C   UNL     1      39.215 -24.513 -15.336  0.00  0.00    +0.169 C 
BRANCH  20  21
ATOM     21  O   UNL     1      39.653 -25.858 -15.402  0.00  0.00    -0.379 OA
ATOM     22  H   UNL     1      40.251 -25.967 -16.159  0.00  0.00    +0.211 HD
ENDBRANCH  20  21
ENDBRANCH  13  20
ENDBRANCH   1  11
BRANCH   4  23
ATOM     23  C   UNL     1      33.429 -23.394 -18.170  0.00  0.00    +0.059 C 
BRANCH  23  25
ATOM     24  S   UNL     1      33.542 -21.293 -20.002  0.00  0.00    -0.091 S 
ATOM     25  C   UNL     1      34.269 -22.334 -18.852  0.00  0.00    +0.012 C 
ATOM     26  C   UNL     1      35.608 -22.059 -18.680  0.00  0.00    +0.003 C 
ATOM     27  C   UNL     1      35.020 -20.472 -20.272  0.00  0.00    +0.029 C 
ATOM     28  C   UNL     1      36.043 -20.980 -19.503  0.00  0.00    +0.007 C 
BRANCH  27  30
ATOM     29  F   UNL     1      35.143 -16.292 -23.956  0.00  0.00    -0.204 F 
ATOM     30  C   UNL     1      35.052 -19.389 -21.227  0.00  0.00    +0.006 C 
ATOM     31  C   UNL     1      34.870 -19.650 -22.585  0.00  0.00    +0.003 C 
ATOM     32  C   UNL     1      35.265 -18.081 -20.791  0.00  0.00    +0.003 C 
ATOM     33  C   UNL     1      34.900 -18.605 -23.507  0.00  0.00    +0.030 C 
ATOM     34  C   UNL     1      35.296 -17.035 -21.713  0.00  0.00    +0.030 C 
ATOM     35  C   UNL     1      35.113 -17.297 -23.072  0.00  0.00    +0.140 C 
ENDBRANCH  27  30
ENDBRANCH  23  25
ENDBRANCH   4  23
TORSDOF 9
ENDMDL
MODEL 2
REMARK VINA RESULT:     -11.1      2.803      5.041
REMARK  Name = 24812758
REMARK  9 active torsions:
REMARK  status: ('A' for Active; 'I' for Inactive)
REMARK    1  A    between atoms: C_1  and  C_11
REMARK    2  A    between atoms: C_4  and  C_23
REMARK    3  A    between atoms: C_9  and  O_14
REMARK    4  A    between atoms: C_10  and  O_16
REMARK    5  A    between atoms: C_12  and  O_18
REMARK    6  A    between atoms: C_13  and  C_20
REMARK    7  A    between atoms: C_20  and  O_21
REMARK    8  A    between atoms: C_23  and  C_25
REMARK    9  A    between atoms: C_27  and  C_30
REMARK                            x       y       z     vdW  Elec       q    Type
REMARK                         _______ _______ _______ _____ _____    ______ ____
ROOT
ATOM      1  C   UNL     1      33.837 -23.317 -15.769  0.00  0.00    +0.007 C 
ATOM      2  C   UNL     1      34.324 -23.151 -17.065  0.00  0.00    -0.006 C 
ATOM      3  C   UNL     1      34.576 -22.851 -14.681  0.00  0.00    -0.002 C 
ATOM      4  C   UNL     1      35.550 -22.519 -17.274  0.00  0.00    -0.021 C 
ATOM      5  C   UNL     1      36.288 -22.053 -16.186  0.00  0.00    -0.025 C 
ATOM      6  C   UNL     1      35.801 -22.219 -14.890  0.00  0.00    -0.005 C 
ATOM      7  C   UNL     1      37.603 -21.372 -16.385  0.00  0.00    +0.031 C 
ENDROOT
BRANCH   1  11
ATOM      8  O   UNL     1      31.476 -23.116 -15.989  0.00  0.00    -0.347 OA
ATOM      9  C   UNL     1      32.297 -24.383 -14.067  0.00  0.00    +0.171 C 
ATOM     10  C   UNL     1      30.885 -24.927 -13.834  0.00  0.00    +0.169 C 
ATOM     11  C   UNL     1      32.505 -24.004 -15.542  0.00  0.00    +0.167 C 
ATOM     12  C   UNL     1      29.829 -24.014 -14.453  0.00  0.00    +0.169 C 
ATOM     13  C   UNL     1      30.173 -23.694 -15.909  0.00  0.00    +0.174 C 
BRANCH   9  14
ATOM     14  O   UNL     1      33.247 -25.390 -13.716  0.00  0.00    -0.379 OA
ATOM     15  H   UNL     1      34.124 -24.988 -13.622  0.00  0.00    +0.211 HD
ENDBRANCH   9  14
BRANCH  10  16
ATOM     16  O   UNL     1      30.633 -25.006 -12.430  0.00  0.00    -0.379 OA
ATOM     17  H   UNL     1      30.484 -24.115 -12.078  0.00  0.00    +0.211 HD
ENDBRANCH  10  16
BRANCH  12  18
ATOM     18  O   UNL     1      28.559 -24.661 -14.402  0.00  0.00    -0.379 OA
ATOM     19  H   UNL     1      28.346 -24.880 -13.481  0.00  0.00    +0.211 HD
ENDBRANCH  12  18
BRANCH  13  20
ATOM     20  C   UNL     1      29.192 -22.697 -16.516  0.00  0.00    +0.169 C 
BRANCH  20  21
ATOM     21  O   UNL     1      28.243 -23.411 -17.290  0.00  0.00    -0.379 OA
ATOM     22  H   UNL     1      27.404 -22.924 -17.303  0.00  0.00    +0.211 HD
ENDBRANCH  20  21
ENDBRANCH  13  20
ENDBRANCH   1  11
BRANCH   4  23
ATOM     23  C   UNL     1      36.051 -22.351 -18.671  0.00  0.00    +0.059 C 
BRANCH  23  25
ATOM     24  S   UNL     1      36.166 -20.075 -20.278  0.00  0.00    -0.091 S 
ATOM     25  C   UNL     1      35.296 -21.310 -19.471  0.00  0.00    +0.012 C 
ATOM     26  C   UNL     1      33.937 -21.197 -19.665  0.00  0.00    +0.003 C 
ATOM     27  C   UNL     1      34.723 -19.384 -20.889  0.00  0.00    +0.029 C 
ATOM     28  C   UNL     1      33.605 -20.081 -20.487  0.00  0.00    +0.007 C 
BRANCH  27  30
ATOM     29  F   UNL     1      35.057 -14.833 -24.089  0.00  0.00    -0.204 F 
ATOM     30  C   UNL     1      34.810 -18.205 -21.718  0.00  0.00    +0.006 C 
ATOM     31  C   UNL     1      34.935 -18.332 -23.102  0.00  0.00    +0.003 C 
ATOM     32  C   UNL     1      34.768 -16.938 -21.136  0.00  0.00    +0.003 C 
ATOM     33  C   UNL     1      35.019 -17.194 -23.902  0.00  0.00    +0.030 C 
ATOM     34  C   UNL     1      34.851 -15.799 -21.936  0.00  0.00    +0.030 C 
ATOM     35  C   UNL     1      34.977 -15.927 -23.320  0.00  0.00    +0.140 C 
ENDBRANCH  27  30
ENDBRANCH  23  25
ENDBRANCH   4  23
TORSDOF 9
ENDMDL
MODEL 3
REMARK VINA RESULT:     -11.0      1.477      2.035
REMARK  Name = 24812758
REMARK  9 active torsions:
REMARK  status: ('A' for Active; 'I' for Inactive)
REMARK    1  A    between atoms: C_1  and  C_11
REMARK    2  A    between atoms: C_4  and  C_23
REMARK    3  A    between atoms: C_9  and  O_14
REMARK    4  A    between atoms: C_10  and  O_16
REMARK    5  A    between atoms: C_12  and  O_18
REMARK    6  A    between atoms: C_13  and  C_20
REMARK    7  A    between atoms: C_20  and  O_21
REMARK    8  A    between atoms: C_23  and  C_25
REMARK    9  A    between atoms: C_27  and  C_30
REMARK                            x       y       z     vdW  Elec       q    Type
REMARK                         _______ _______ _______ _____ _____    ______ ____
ROOT
ATOM      1  C   UNL     1      34.172 -24.212 -14.054  0.00  0.00    +0.007 C 
ATOM      2  C   UNL     1      33.963 -24.021 -15.419  0.00  0.00    -0.006 C 
ATOM      3  C   UNL     1      33.149 -23.935 -13.146  0.00  0.00    -0.002 C 
ATOM      4  C   UNL     1      32.732 -23.552 -15.879  0.00  0.00    -0.021 C 
ATOM      5  C   UNL     1      31.709 -23.275 -14.971  0.00  0.00    -0.025 C 
ATOM      6  C   UNL     1      31.918 -23.466 -13.606  0.00  0.00    -0.005 C 
ATOM      7  C   UNL     1      30.383 -22.773 -15.438  0.00  0.00    +0.031 C 
ENDROOT
BRANCH   1  11
ATOM      8  O   UNL     1      36.226 -23.605 -13.017  0.00  0.00    -0.347 OA
ATOM      9  C   UNL     1      36.318 -25.402 -14.670  0.00  0.00    +0.171 C 
ATOM     10  C   UNL     1      37.725 -25.763 -14.186  0.00  0.00    +0.169 C 
ATOM     11  C   UNL     1      35.510 -24.721 -13.555  0.00  0.00    +0.167 C 
ATOM     12  C   UNL     1      38.395 -24.578 -13.492  0.00  0.00    +0.169 C 
ATOM     13  C   UNL     1      37.473 -23.979 -12.429  0.00  0.00    +0.174 C 
BRANCH   9  14
ATOM     14  O   UNL     1      35.641 -26.596 -15.061  0.00  0.00    -0.379 OA
ATOM     15  H   UNL     1      34.688 -26.493 -14.907  0.00  0.00    +0.211 HD
ENDBRANCH   9  14
BRANCH  10  16
ATOM     16  O   UNL     1      38.532 -26.133 -15.306  0.00  0.00    -0.379 OA
ATOM     17  H   UNL     1      38.409 -27.076 -15.496  0.00  0.00    +0.211 HD
ENDBRANCH  10  16
BRANCH  12  18
ATOM     18  O   UNL     1      39.602 -25.016 -12.874  0.00  0.00    -0.379 OA
ATOM     19  H   UNL     1      40.324 -24.412 -13.112  0.00  0.00    +0.211 HD
ENDBRANCH  12  18
BRANCH  13  20
ATOM     20  C   UNL     1      38.075 -22.728 -11.798  0.00  0.00    +0.169 C 
BRANCH  20  21
ATOM     21  O   UNL     1      39.195 -23.110 -11.020  0.00  0.00    -0.379 OA
ATOM     22  H   UNL     1      39.054 -22.842 -10.098  0.00  0.00    +0.211 HD
ENDBRANCH  20  21
ENDBRANCH  13  20
ENDBRANCH   1  11
BRANCH   4  23
ATOM     23  C   UNL     1      32.532 -23.356 -17.345  0.00  0.00    +0.059 C 
BRANCH  23  25
ATOM     24  S   UNL     1      33.295 -21.515 -19.297  0.00  0.00    -0.091 S 
ATOM     25  C   UNL     1      33.656 -22.598 -18.021  0.00  0.00    +0.012 C 
ATOM     26  C   UNL     1      35.006 -22.645 -17.749  0.00  0.00    +0.003 C 
ATOM     27  C   UNL     1      34.946 -21.107 -19.491  0.00  0.00    +0.029 C 
ATOM     28  C   UNL     1      35.753 -21.781 -18.601  0.00  0.00    +0.007 C 
BRANCH  27  30
ATOM     29  F   UNL     1      36.368 -17.422 -23.423  0.00  0.00    -0.204 F 
ATOM     30  C   UNL     1      35.315 -20.153 -20.510  0.00  0.00    +0.006 C 
ATOM     31  C   UNL     1      34.383 -19.765 -21.473  0.00  0.00    +0.003 C 
ATOM     32  C   UNL     1      36.603 -19.617 -20.532  0.00  0.00    +0.003 C 
ATOM     33  C   UNL     1      34.738 -18.843 -22.456  0.00  0.00    +0.030 C 
ATOM     34  C   UNL     1      36.958 -18.695 -21.515  0.00  0.00    +0.030 C 
ATOM     35  C   UNL     1      36.026 -18.308 -22.478  0.00  0.00    +0.140 C 
ENDBRANCH  27  30
ENDBRANCH  23  25
ENDBRANCH   4  23
TORSDOF 9
ENDMDL
MODEL 4
REMARK VINA RESULT:     -11.0     11.262     16.101
REMARK  Name = 24812758
REMARK  9 active torsions:
REMARK  status: ('A' for Active; 'I' for Inactive)
REMARK    1  A    between atoms: C_1  and  C_11
REMARK    2  A    between atoms: C_4  and  C_23
REMARK    3  A    between atoms: C_9  and  O_14
REMARK    4  A    between atoms: C_10  and  O_16
REMARK    5  A    between atoms: C_12  and  O_18
REMARK    6  A    between atoms: C_13  and  C_20
REMARK    7  A    between atoms: C_20  and  O_21
REMARK    8  A    between atoms: C_23  and  C_25
REMARK    9  A    between atoms: C_27  and  C_30
REMARK                            x       y       z     vdW  Elec       q    Type
REMARK                         _______ _______ _______ _____ _____    ______ ____
ROOT
ATOM      1  C   UNL     1      32.639  -7.686 -21.244  0.00  0.00    +0.007 C 
ATOM      2  C   UNL     1      32.144  -8.854 -21.823  0.00  0.00    -0.006 C 
ATOM      3  C   UNL     1      32.760  -7.593 -19.857  0.00  0.00    -0.002 C 
ATOM      4  C   UNL     1      31.770  -9.929 -21.018  0.00  0.00    -0.021 C 
ATOM      5  C   UNL     1      31.892  -9.836 -19.631  0.00  0.00    -0.025 C 
ATOM      6  C   UNL     1      32.387  -8.668 -19.051  0.00  0.00    -0.005 C 
ATOM      7  C   UNL     1      31.499 -10.974 -18.747  0.00  0.00    +0.031 C 
ENDROOT
BRANCH   1  11
ATOM      8  O   UNL     1      31.851  -5.826 -22.502  0.00  0.00    -0.347 OA
ATOM      9  C   UNL     1      33.832  -6.973 -23.358  0.00  0.00    +0.171 C 
ATOM     10  C   UNL     1      34.091  -5.799 -24.307  0.00  0.00    +0.169 C 
ATOM     11  C   UNL     1      33.044  -6.517 -22.120  0.00  0.00    +0.167 C 
ATOM     12  C   UNL     1      32.812  -5.007 -24.572  0.00  0.00    +0.169 C 
ATOM     13  C   UNL     1      32.115  -4.644 -23.260  0.00  0.00    +0.174 C 
BRANCH   9  14
ATOM     14  O   UNL     1      35.084  -7.509 -22.931  0.00  0.00    -0.379 OA
ATOM     15  H   UNL     1      35.225  -8.373 -23.348  0.00  0.00    +0.211 HD
ENDBRANCH   9  14
BRANCH  10  16
ATOM     16  O   UNL     1      34.570  -6.296 -25.557  0.00  0.00    -0.379 OA
ATOM     17  H   UNL     1      34.248  -7.202 -25.690  0.00  0.00    +0.211 HD
ENDBRANCH  10  16
BRANCH  12  18
ATOM     18  O   UNL     1      33.136  -3.812 -25.278  0.00  0.00    -0.379 OA
ATOM     19  H   UNL     1      32.481  -3.127 -25.071  0.00  0.00    +0.211 HD
ENDBRANCH  12  18
BRANCH  13  20
ATOM     20  C   UNL     1      30.779  -3.948 -23.502  0.00  0.00    +0.169 C 
BRANCH  20  21
ATOM     21  O   UNL     1      30.418  -3.244 -22.328  0.00  0.00    -0.379 OA
ATOM     22  H   UNL     1      29.451  -3.208 -22.256  0.00  0.00    +0.211 HD
ENDBRANCH  20  21
ENDBRANCH  13  20
ENDBRANCH   1  11
BRANCH   4  23
ATOM     23  C   UNL     1      31.244 -11.170 -21.661  0.00  0.00    +0.059 C 
BRANCH  23  25
ATOM     24  S   UNL     1      32.422 -13.693 -21.494  0.00  0.00    -0.091 S 
ATOM     25  C   UNL     1      32.325 -12.112 -22.148  0.00  0.00    +0.012 C 
ATOM     26  C   UNL     1      33.299 -11.884 -23.094  0.00  0.00    +0.003 C 
ATOM     27  C   UNL     1      33.770 -14.074 -22.477  0.00  0.00    +0.029 C 
ATOM     28  C   UNL     1      34.137 -13.021 -23.285  0.00  0.00    +0.007 C 
BRANCH  27  30
ATOM     29  F   UNL     1      36.055 -19.141 -22.069  0.00  0.00    -0.204 F 
ATOM     30  C   UNL     1      34.362 -15.387 -22.371  0.00  0.00    +0.006 C 
ATOM     31  C   UNL     1      34.699 -16.096 -23.525  0.00  0.00    +0.003 C 
ATOM     32  C   UNL     1      34.599 -15.947 -21.115  0.00  0.00    +0.003 C 
ATOM     33  C   UNL     1      35.270 -17.364 -23.423  0.00  0.00    +0.030 C 
ATOM     34  C   UNL     1      35.170 -17.215 -21.013  0.00  0.00    +0.030 C 
ATOM     35  C   UNL     1      35.506 -17.924 -22.167  0.00  0.00    +0.140 C 
ENDBRANCH  27  30
ENDBRANCH  23  25
ENDBRANCH   4  23
TORSDOF 9
ENDMDL
MODEL 5
REMARK VINA RESULT:     -10.9     10.548     14.078
REMARK  Name = 24812758
REMARK  9 active torsions:
REMARK  status: ('A' for Active; 'I' for Inactive)
REMARK    1  A    between atoms: C_1  and  C_11
REMARK    2  A    between atoms: C_4  and  C_23
REMARK    3  A    between atoms: C_9  and  O_14
REMARK    4  A    between atoms: C_10  and  O_16
REMARK    5  A    between atoms: C_12  and  O_18
REMARK    6  A    between atoms: C_13  and  C_20
REMARK    7  A    between atoms: C_20  and  O_21
REMARK    8  A    between atoms: C_23  and  C_25
REMARK    9  A    between atoms: C_27  and  C_30
REMARK                            x       y       z     vdW  Elec       q    Type
REMARK                         _______ _______ _______ _____ _____    ______ ____
ROOT
ATOM      1  C   UNL     1      32.955 -12.966 -21.787  0.00  0.00    +0.007 C 
ATOM      2  C   UNL     1      32.374 -11.762 -22.183  0.00  0.00    -0.006 C 
ATOM      3  C   UNL     1      32.761 -13.441 -20.490  0.00  0.00    -0.002 C 
ATOM      4  C   UNL     1      31.598 -11.032 -21.283  0.00  0.00    -0.021 C 
ATOM      5  C   UNL     1      31.404 -11.507 -19.986  0.00  0.00    -0.025 C 
ATOM      6  C   UNL     1      31.985 -12.711 -19.590  0.00  0.00    -0.005 C 
ATOM      7  C   UNL     1      30.577 -10.744 -19.003  0.00  0.00    +0.031 C 
ENDROOT
BRANCH   1  11
ATOM      8  O   UNL     1      33.149 -13.707 -24.041  0.00  0.00    -0.347 OA
ATOM      9  C   UNL     1      33.993 -15.213 -22.312  0.00  0.00    +0.171 C 
ATOM     10  C   UNL     1      34.708 -16.034 -23.388  0.00  0.00    +0.169 C 
ATOM     11  C   UNL     1      33.799 -13.759 -22.766  0.00  0.00    +0.167 C 
ATOM     12  C   UNL     1      34.063 -15.834 -24.759  0.00  0.00    +0.169 C 
ATOM     13  C   UNL     1      33.903 -14.345 -25.072  0.00  0.00    +0.174 C 
BRANCH   9  14
ATOM     14  O   UNL     1      34.784 -15.218 -21.123  0.00  0.00    -0.379 OA
ATOM     15  H   UNL     1      35.169 -14.338 -20.987  0.00  0.00    +0.211 HD
ENDBRANCH   9  14
BRANCH  10  16
ATOM     16  O   UNL     1      34.626 -17.422 -23.060  0.00  0.00    -0.379 OA
ATOM     17  H   UNL     1      34.656 -17.529 -22.096  0.00  0.00    +0.211 HD
ENDBRANCH  10  16
BRANCH  12  18
ATOM     18  O   UNL     1      34.882 -16.439 -25.757  0.00  0.00    -0.379 OA
ATOM     19  H   UNL     1      35.723 -16.715 -25.361  0.00  0.00    +0.211 HD
ENDBRANCH  12  18
BRANCH  13  20
ATOM     20  C   UNL     1      33.162 -14.121 -26.386  0.00  0.00    +0.169 C 
BRANCH  20  21
ATOM     21  O   UNL     1      34.114 -13.846 -27.399  0.00  0.00    -0.379 OA
ATOM     22  H   UNL     1      33.721 -13.255 -28.061  0.00  0.00    +0.211 HD
ENDBRANCH  20  21
ENDBRANCH  13  20
ENDBRANCH   1  11
BRANCH   4  23
ATOM     23  C   UNL     1      30.985  -9.746 -21.729  0.00  0.00    +0.059 C 
BRANCH  23  25
ATOM     24  S   UNL     1      31.821  -7.902 -23.648  0.00  0.00    -0.091 S 
ATOM     25  C   UNL     1      31.996  -8.696 -22.140  0.00  0.00    +0.012 C 
ATOM     26  C   UNL     1      33.100  -8.250 -21.447  0.00  0.00    +0.003 C 
ATOM     27  C   UNL     1      33.225  -6.961 -23.376  0.00  0.00    +0.029 C 
ATOM     28  C   UNL     1      33.812  -7.245 -22.163  0.00  0.00    +0.007 C 
BRANCH  27  30
ATOM     29  F   UNL     1      34.817  -3.309 -27.274  0.00  0.00    -0.204 F 
ATOM     30  C   UNL     1      33.637  -6.014 -24.386  0.00  0.00    +0.006 C 
ATOM     31  C   UNL     1      34.908  -6.111 -24.956  0.00  0.00    +0.003 C 
ATOM     32  C   UNL     1      32.766  -5.003 -24.793  0.00  0.00    +0.003 C 
ATOM     33  C   UNL     1      35.306  -5.197 -25.931  0.00  0.00    +0.030 C 
ATOM     34  C   UNL     1      33.165  -4.090 -25.768  0.00  0.00    +0.030 C 
ATOM     35  C   UNL     1      34.435  -4.187 -26.337  0.00  0.00    +0.140 C 
ENDBRANCH  27  30
ENDBRANCH  23  25
ENDBRANCH   4  23
TORSDOF 9
ENDMDL
MODEL 6
REMARK VINA RESULT:     -10.6     11.797     16.635
REMARK  Name = 24812758
REMARK  9 active torsions:
REMARK  status: ('A' for Active; 'I' for Inactive)
REMARK    1  A    between atoms: C_1  and  C_11
REMARK    2  A    between atoms: C_4  and  C_23
REMARK    3  A    between atoms: C_9  and  O_14
REMARK    4  A    between atoms: C_10  and  O_16
REMARK    5  A    between atoms: C_12  and  O_18
REMARK    6  A    between atoms: C_13  and  C_20
REMARK    7  A    between atoms: C_20  and  O_21
REMARK    8  A    between atoms: C_23  and  C_25
REMARK    9  A    between atoms: C_27  and  C_30
REMARK                            x       y       z     vdW  Elec       q    Type
REMARK                         _______ _______ _______ _____ _____    ______ ____
ROOT
ATOM      1  C   UNL     1      31.885  -7.271 -22.004  0.00  0.00    +0.007 C 
ATOM      2  C   UNL     1      31.465  -8.590 -22.170  0.00  0.00    -0.006 C 
ATOM      3  C   UNL     1      32.466  -6.870 -20.800  0.00  0.00    -0.002 C 
ATOM      4  C   UNL     1      31.624  -9.509 -21.133  0.00  0.00    -0.021 C 
ATOM      5  C   UNL     1      32.204  -9.108 -19.929  0.00  0.00    -0.025 C 
ATOM      6  C   UNL     1      32.625  -7.789 -19.763  0.00  0.00    -0.005 C 
ATOM      7  C   UNL     1      32.386 -10.073 -18.804  0.00  0.00    +0.031 C 
ENDROOT
BRANCH   1  11
ATOM      8  O   UNL     1      32.946  -6.216 -23.855  0.00  0.00    -0.347 OA
ATOM      9  C   UNL     1      31.319  -4.881 -22.612  0.00  0.00    +0.171 C 
ATOM     10  C   UNL     1      31.307  -3.854 -23.748  0.00  0.00    +0.169 C 
ATOM     11  C   UNL     1      31.712  -6.272 -23.131  0.00  0.00    +0.167 C 
ATOM     12  C   UNL     1      32.587  -3.930 -24.579  0.00  0.00    +0.169 C 
ATOM     13  C   UNL     1      32.874  -5.371 -25.005  0.00  0.00    +0.174 C 
BRANCH   9  14
ATOM     14  O   UNL     1      30.013  -4.958 -22.042  0.00  0.00    -0.379 OA
ATOM     15  H   UNL     1      30.036  -5.526 -21.256  0.00  0.00    +0.211 HD
ENDBRANCH   9  14
BRANCH  10  16
ATOM     16  O   UNL     1      31.215  -2.539 -23.198  0.00  0.00    -0.379 OA
ATOM     17  H   UNL     1      31.950  -2.393 -22.583  0.00  0.00    +0.211 HD
ENDBRANCH  10  16
BRANCH  12  18
ATOM     18  O   UNL     1      32.443  -3.117 -25.741  0.00  0.00    -0.379 OA
ATOM     19  H   UNL     1      31.571  -2.689 -25.730  0.00  0.00    +0.211 HD
ENDBRANCH  12  18
BRANCH  13  20
ATOM     20  C   UNL     1      34.204  -5.488 -25.742  0.00  0.00    +0.169 C 
BRANCH  20  21
ATOM     21  O   UNL     1      35.206  -5.853 -24.810  0.00  0.00    -0.379 OA
ATOM     22  H   UNL     1      36.000  -6.146 -25.285  0.00  0.00    +0.211 HD
ENDBRANCH  20  21
ENDBRANCH  13  20
ENDBRANCH   1  11
BRANCH   4  23
ATOM     23  C   UNL     1      31.166 -10.916 -21.333  0.00  0.00    +0.059 C 
BRANCH  23  25
ATOM     24  S   UNL     1      32.335 -13.447 -21.417  0.00  0.00    -0.091 S 
ATOM     25  C   UNL     1      32.218 -11.821 -21.941  0.00  0.00    +0.012 C 
ATOM     26  C   UNL     1      33.150 -11.522 -22.909  0.00  0.00    +0.003 C 
ATOM     27  C   UNL     1      33.636 -13.755 -22.486  0.00  0.00    +0.029 C 
ATOM     28  C   UNL     1      33.972 -12.643 -23.226  0.00  0.00    +0.007 C 
BRANCH  27  30
ATOM     29  F   UNL     1      35.906 -18.844 -22.576  0.00  0.00    -0.204 F 
ATOM     30  C   UNL     1      34.224 -15.074 -22.509  0.00  0.00    +0.006 C 
ATOM     31  C   UNL     1      34.471 -15.706 -23.728  0.00  0.00    +0.003 C 
ATOM     32  C   UNL     1      34.545 -15.716 -21.313  0.00  0.00    +0.003 C 
ATOM     33  C   UNL     1      35.039 -16.979 -23.751  0.00  0.00    +0.030 C 
ATOM     34  C   UNL     1      35.113 -16.989 -21.336  0.00  0.00    +0.030 C 
ATOM     35  C   UNL     1      35.360 -17.621 -22.555  0.00  0.00    +0.140 C 
ENDBRANCH  27  30
ENDBRANCH  23  25
ENDBRANCH   4  23
TORSDOF 9
ENDMDL
MODEL 7
REMARK VINA RESULT:     -10.2      4.408      8.195
REMARK  Name = 24812758
REMARK  9 active torsions:
REMARK  status: ('A' for Active; 'I' for Inactive)
REMARK    1  A    between atoms: C_1  and  C_11
REMARK    2  A    between atoms: C_4  and  C_23
REMARK    3  A    between atoms: C_9  and  O_14
REMARK    4  A    between atoms: C_10  and  O_16
REMARK    5  A    between atoms: C_12  and  O_18
REMARK    6  A    between atoms: C_13  and  C_20
REMARK    7  A    between atoms: C_20  and  O_21
REMARK    8  A    between atoms: C_23  and  C_25
REMARK    9  A    between atoms: C_27  and  C_30
REMARK                            x       y       z     vdW  Elec       q    Type
REMARK                         _______ _______ _______ _____ _____    ______ ____
ROOT
ATOM      1  C   UNL     1      35.924 -22.046 -17.707  0.00  0.00    +0.007 C 
ATOM      2  C   UNL     1      35.180 -22.991 -17.002  0.00  0.00    -0.006 C 
ATOM      3  C   UNL     1      37.072 -21.495 -17.137  0.00  0.00    -0.002 C 
ATOM      4  C   UNL     1      35.582 -23.386 -15.726  0.00  0.00    -0.021 C 
ATOM      5  C   UNL     1      36.729 -22.834 -15.155  0.00  0.00    -0.025 C 
ATOM      6  C   UNL     1      37.474 -21.889 -15.861  0.00  0.00    -0.005 C 
ATOM      7  C   UNL     1      37.181 -23.241 -13.791  0.00  0.00    +0.031 C 
ENDROOT
BRANCH   1  11
ATOM      8  O   UNL     1      36.268 -20.477 -19.463  0.00  0.00    -0.347 OA
ATOM      9  C   UNL     1      33.986 -21.292 -19.149  0.00  0.00    +0.171 C 
ATOM     10  C   UNL     1      33.600 -20.710 -20.511  0.00  0.00    +0.169 C 
ATOM     11  C   UNL     1      35.486 -21.617 -19.094  0.00  0.00    +0.167 C 
ATOM     12  C   UNL     1      34.551 -19.588 -20.926  0.00  0.00    +0.169 C 
ATOM     13  C   UNL     1      36.008 -20.036 -20.797  0.00  0.00    +0.174 C 
BRANCH   9  14
ATOM     14  O   UNL     1      33.250 -22.496 -18.933  0.00  0.00    -0.379 OA
ATOM     15  H   UNL     1      33.421 -22.823 -18.036  0.00  0.00    +0.211 HD
ENDBRANCH   9  14
BRANCH  10  16
ATOM     16  O   UNL     1      32.281 -20.166 -20.438  0.00  0.00    -0.379 OA
ATOM     17  H   UNL     1      31.632 -20.866 -20.612  0.00  0.00    +0.211 HD
ENDBRANCH  10  16
BRANCH  12  18
ATOM     18  O   UNL     1      34.290 -19.226 -22.279  0.00  0.00    -0.379 OA
ATOM     19  H   UNL     1      35.130 -19.090 -22.745  0.00  0.00    +0.211 HD
ENDBRANCH  12  18
BRANCH  13  20
ATOM     20  C   UNL     1      36.978 -18.899 -21.100  0.00  0.00    +0.169 C 
BRANCH  20  21
ATOM     21  O   UNL     1      37.749 -18.642 -19.940  0.00  0.00    -0.379 OA
ATOM     22  H   UNL     1      37.426 -19.191 -19.208  0.00  0.00    +0.211 HD
ENDBRANCH  20  21
ENDBRANCH  13  20
ENDBRANCH   1  11
BRANCH   4  23
ATOM     23  C   UNL     1      34.769 -24.399 -14.990  0.00  0.00    +0.059 C 
BRANCH  23  25
ATOM     24  S   UNL     1      32.183 -23.812 -15.852  0.00  0.00    -0.091 S 
ATOM     25  C   UNL     1      33.377 -23.924 -14.630  0.00  0.00    +0.012 C 
ATOM     26  C   UNL     1      32.892 -23.548 -13.397  0.00  0.00    +0.003 C 
ATOM     27  C   UNL     1      31.012 -23.258 -14.733  0.00  0.00    +0.029 C 
ATOM     28  C   UNL     1      31.521 -23.162 -13.456  0.00  0.00    +0.007 C 
BRANCH  27  30
ATOM     29  F   UNL     1      25.873 -22.108 -16.556  0.00  0.00    -0.204 F 
ATOM     30  C   UNL     1      29.680 -22.960 -15.205  0.00  0.00    +0.006 C 
ATOM     31  C   UNL     1      29.333 -23.230 -16.529  0.00  0.00    +0.003 C 
ATOM     32  C   UNL     1      28.741 -22.401 -14.338  0.00  0.00    +0.003 C 
ATOM     33  C   UNL     1      28.047 -22.943 -16.986  0.00  0.00    +0.030 C 
ATOM     34  C   UNL     1      27.455 -22.114 -14.795  0.00  0.00    +0.030 C 
ATOM     35  C   UNL     1      27.108 -22.385 -16.119  0.00  0.00    +0.140 C 
ENDBRANCH  27  30
ENDBRANCH  23  25
ENDBRANCH   4  23
TORSDOF 9
ENDMDL
MODEL 8
REMARK VINA RESULT:      -9.9      1.547      2.676
REMARK  Name = 24812758
REMARK  9 active torsions:
REMARK  status: ('A' for Active; 'I' for Inactive)
REMARK    1  A    between atoms: C_1  and  C_11
REMARK    2  A    between atoms: C_4  and  C_23
REMARK    3  A    between atoms: C_9  and  O_14
REMARK    4  A    between atoms: C_10  and  O_16
REMARK    5  A    between atoms: C_12  and  O_18
REMARK    6  A    between atoms: C_13  and  C_20
REMARK    7  A    between atoms: C_20  and  O_21
REMARK    8  A    between atoms: C_23  and  C_25
REMARK    9  A    between atoms: C_27  and  C_30
REMARK                            x       y       z     vdW  Elec       q    Type
REMARK                         _______ _______ _______ _____ _____    ______ ____
ROOT
ATOM      1  C   UNL     1      34.310 -23.547 -14.570  0.00  0.00    +0.007 C 
ATOM      2  C   UNL     1      34.412 -23.670 -15.955  0.00  0.00    -0.006 C 
ATOM      3  C   UNL     1      33.128 -23.078 -13.996  0.00  0.00    -0.002 C 
ATOM      4  C   UNL     1      33.333 -23.324 -16.768  0.00  0.00    -0.021 C 
ATOM      5  C   UNL     1      32.150 -22.855 -16.194  0.00  0.00    -0.025 C 
ATOM      6  C   UNL     1      32.049 -22.732 -14.809  0.00  0.00    -0.005 C 
ATOM      7  C   UNL     1      30.981 -22.479 -17.043  0.00  0.00    +0.031 C 
ENDROOT
BRANCH   1  11
ATOM      8  O   UNL     1      34.957 -24.410 -12.448  0.00  0.00    -0.347 OA
ATOM      9  C   UNL     1      36.428 -22.735 -13.449  0.00  0.00    +0.171 C 
ATOM     10  C   UNL     1      37.514 -23.092 -12.430  0.00  0.00    +0.169 C 
ATOM     11  C   UNL     1      35.484 -23.923 -13.687  0.00  0.00    +0.167 C 
ATOM     12  C   UNL     1      36.913 -23.739 -11.183  0.00  0.00    +0.169 C 
ATOM     13  C   UNL     1      35.973 -24.884 -11.564  0.00  0.00    +0.174 C 
BRANCH   9  14
ATOM     14  O   UNL     1      37.050 -22.391 -14.687  0.00  0.00    -0.379 OA
ATOM     15  H   UNL     1      37.750 -21.739 -14.527  0.00  0.00    +0.211 HD
ENDBRANCH   9  14
BRANCH  10  16
ATOM     16  O   UNL     1      38.195 -21.903 -12.026  0.00  0.00    -0.379 OA
ATOM     17  H   UNL     1      38.266 -21.298 -12.780  0.00  0.00    +0.211 HD
ENDBRANCH  10  16
BRANCH  12  18
ATOM     18  O   UNL     1      37.963 -24.246 -10.363  0.00  0.00    -0.379 OA
ATOM     19  H   UNL     1      38.378 -23.514  -9.879  0.00  0.00    +0.211 HD
ENDBRANCH  12  18
BRANCH  13  20
ATOM     20  C   UNL     1      35.277 -25.475 -10.342  0.00  0.00    +0.169 C 
BRANCH  20  21
ATOM     21  O   UNL     1      35.455 -24.591  -9.250  0.00  0.00    -0.379 OA
ATOM     22  H   UNL     1      36.276 -24.814  -8.783  0.00  0.00    +0.211 HD
ENDBRANCH  20  21
ENDBRANCH  13  20
ENDBRANCH   1  11
BRANCH   4  23
ATOM     23  C   UNL     1      33.464 -23.465 -18.249  0.00  0.00    +0.059 C 
BRANCH  23  25
ATOM     24  S   UNL     1      33.567 -21.339 -20.051  0.00  0.00    -0.091 S 
ATOM     25  C   UNL     1      34.293 -22.374 -18.896  0.00  0.00    +0.012 C 
ATOM     26  C   UNL     1      35.618 -22.065 -18.684  0.00  0.00    +0.003 C 
ATOM     27  C   UNL     1      35.028 -20.474 -20.273  0.00  0.00    +0.029 C 
ATOM     28  C   UNL     1      36.044 -20.964 -19.483  0.00  0.00    +0.007 C 
BRANCH  27  30
ATOM     29  F   UNL     1      35.133 -16.245 -23.901  0.00  0.00    -0.204 F 
ATOM     30  C   UNL     1      35.055 -19.378 -21.213  0.00  0.00    +0.006 C 
ATOM     31  C   UNL     1      35.247 -18.073 -20.758  0.00  0.00    +0.003 C 
ATOM     32  C   UNL     1      34.890 -19.624 -22.576  0.00  0.00    +0.003 C 
ATOM     33  C   UNL     1      35.273 -17.015 -21.665  0.00  0.00    +0.030 C 
ATOM     34  C   UNL     1      34.916 -18.566 -23.483  0.00  0.00    +0.030 C 
ATOM     35  C   UNL     1      35.108 -17.260 -23.028  0.00  0.00    +0.140 C 
ENDBRANCH  27  30
ENDBRANCH  23  25
ENDBRANCH   4  23
TORSDOF 9
ENDMDL
MODEL 9
REMARK VINA RESULT:      -9.8      7.767     12.842
REMARK  Name = 24812758
REMARK  9 active torsions:
REMARK  status: ('A' for Active; 'I' for Inactive)
REMARK    1  A    between atoms: C_1  and  C_11
REMARK    2  A    between atoms: C_4  and  C_23
REMARK    3  A    between atoms: C_9  and  O_14
REMARK    4  A    between atoms: C_10  and  O_16
REMARK    5  A    between atoms: C_12  and  O_18
REMARK    6  A    between atoms: C_13  and  C_20
REMARK    7  A    between atoms: C_20  and  O_21
REMARK    8  A    between atoms: C_23  and  C_25
REMARK    9  A    between atoms: C_27  and  C_30
REMARK                            x       y       z     vdW  Elec       q    Type
REMARK                         _______ _______ _______ _____ _____    ______ ____
ROOT
ATOM      1  C   UNL     1      33.730 -13.291 -23.287  0.00  0.00    +0.007 C 
ATOM      2  C   UNL     1      34.718 -14.181 -22.867  0.00  0.00    -0.006 C 
ATOM      3  C   UNL     1      32.973 -13.577 -24.424  0.00  0.00    -0.002 C 
ATOM      4  C   UNL     1      34.951 -15.355 -23.582  0.00  0.00    -0.021 C 
ATOM      5  C   UNL     1      34.194 -15.641 -24.718  0.00  0.00    -0.025 C 
ATOM      6  C   UNL     1      33.205 -14.751 -25.139  0.00  0.00    -0.005 C 
ATOM      7  C   UNL     1      34.423 -16.892 -25.501  0.00  0.00    +0.031 C 
ENDROOT
BRANCH   1  11
ATOM      8  O   UNL     1      32.224 -12.157 -21.835  0.00  0.00    -0.347 OA
ATOM      9  C   UNL     1      33.470 -10.778 -23.422  0.00  0.00    +0.171 C 
ATOM     10  C   UNL     1      33.056  -9.525 -22.644  0.00  0.00    +0.169 C 
ATOM     11  C   UNL     1      33.478 -12.015 -22.510  0.00  0.00    +0.167 C 
ATOM     12  C   UNL     1      31.789  -9.772 -21.828  0.00  0.00    +0.169 C 
ATOM     13  C   UNL     1      31.921 -11.046 -20.991  0.00  0.00    +0.174 C 
BRANCH   9  14
ATOM     14  O   UNL     1      34.785 -10.587 -23.944  0.00  0.00    -0.379 OA
ATOM     15  H   UNL     1      34.746  -9.991 -24.708  0.00  0.00    +0.211 HD
ENDBRANCH   9  14
BRANCH  10  16
ATOM     16  O   UNL     1      32.790  -8.464 -23.562  0.00  0.00    -0.379 OA
ATOM     17  H   UNL     1      33.344  -8.571 -24.351  0.00  0.00    +0.211 HD
ENDBRANCH  10  16
BRANCH  12  18
ATOM     18  O   UNL     1      31.563  -8.663 -20.962  0.00  0.00    -0.379 OA
ATOM     19  H   UNL     1      31.232  -8.982 -20.107  0.00  0.00    +0.211 HD
ENDBRANCH  12  18
BRANCH  13  20
ATOM     20  C   UNL     1      30.628 -11.373 -20.250  0.00  0.00    +0.169 C 
BRANCH  20  21
ATOM     21  O   UNL     1      30.685 -10.786 -18.962  0.00  0.00    -0.379 OA
ATOM     22  H   UNL     1      31.511 -11.044 -18.525  0.00  0.00    +0.211 HD
ENDBRANCH  20  21
ENDBRANCH  13  20
ENDBRANCH   1  11
BRANCH   4  23
ATOM     23  C   UNL     1      36.014 -16.293 -23.112  0.00  0.00    +0.059 C 
BRANCH  23  25
ATOM     24  S   UNL     1      35.541 -18.099 -21.040  0.00  0.00    -0.091 S 
ATOM     25  C   UNL     1      35.490 -17.651 -22.692  0.00  0.00    +0.012 C 
ATOM     26  C   UNL     1      34.944 -18.640 -23.479  0.00  0.00    +0.003 C 
ATOM     27  C   UNL     1      34.832 -19.621 -21.375  0.00  0.00    +0.029 C 
ATOM     28  C   UNL     1      34.563 -19.782 -22.716  0.00  0.00    +0.007 C 
BRANCH  27  30
ATOM     29  F   UNL     1      33.931 -23.161 -17.166  0.00  0.00    -0.204 F 
ATOM     30  C   UNL     1      34.599 -20.538 -20.284  0.00  0.00    +0.006 C 
ATOM     31  C   UNL     1      33.295 -20.813 -19.870  0.00  0.00    +0.003 C 
ATOM     32  C   UNL     1      35.676 -21.150 -19.644  0.00  0.00    +0.003 C 
ATOM     33  C   UNL     1      33.069 -21.698 -18.818  0.00  0.00    +0.030 C 
ATOM     34  C   UNL     1      35.451 -22.035 -18.591  0.00  0.00    +0.030 C 
ATOM     35  C   UNL     1      34.147 -22.310 -18.178  0.00  0.00    +0.140 C 
ENDBRANCH  27  30
ENDBRANCH  23  25
ENDBRANCH   4  23
TORSDOF 9
ENDMDL
