MODEL 1
REMARK VINA RESULT:     -11.7      0.000      0.000
REMARK  Name = 5288250
REMARK  9 active torsions:
REMARK  status: ('A' for Active; 'I' for Inactive)
REMARK    1  A    between atoms: C_1  and  N_3
REMARK    2  A    between atoms: C_1  and  C_20
REMARK    3  A    between atoms: C_1  and  C_23
REMARK    4  A    between atoms: C_4  and  C_6
REMARK    5  A    between atoms: C_6  and  C_10
REMARK    6  A    between atoms: C_20  and  O_21
REMARK    7  A    between atoms: C_23  and  C_24
REMARK    8  A    between atoms: C_29  and  C_30
REMARK    9  A    between atoms: C_31  and  C_32
REMARK                            x       y       z     vdW  Elec       q    Type
REMARK                         _______ _______ _______ _____ _____    ______ ____
ROOT
ATOM      1  C   UNL     1      35.500 -22.043 -18.016  0.00  0.00    +0.176 C 
ENDROOT
BRANCH   1   3
ATOM      2  O   UNL     1      37.664 -20.551 -16.805  0.00  0.00    -0.275 OA
ATOM      3  N   UNL     1      36.494 -22.539 -17.093  0.00  0.00    -0.297 N 
ATOM      4  C   UNL     1      37.499 -21.743 -16.562  0.00  0.00    +0.223 C 
ATOM      5  H   UNL     1      36.456 -23.486 -16.828  0.00  0.00    +0.150 HD
BRANCH   4   6
ATOM      6  C   UNL     1      38.387 -22.535 -15.625  0.00  0.00    +0.087 C 
BRANCH   6  10
ATOM      7  N   UNL     1      36.351 -24.389 -12.999  0.00  0.00    -0.282 N 
ATOM      8  N   UNL     1      34.251 -23.620 -13.445  0.00  0.00    -0.331 N 
ATOM      9  N   UNL     1      34.605 -24.971 -11.558  0.00  0.00    -0.273 NA
ATOM     10  C   UNL     1      37.644 -23.695 -14.965  0.00  0.00    +0.029 C 
ATOM     11  C   UNL     1      38.589 -24.883 -14.730  0.00  0.00    +0.004 C 
ATOM     12  C   UNL     1      36.999 -23.249 -13.645  0.00  0.00    +0.094 C 
ATOM     13  C   UNL     1      37.865 -26.020 -14.009  0.00  0.00    +0.022 C 
ATOM     14  C   UNL     1      37.217 -25.532 -12.717  0.00  0.00    +0.093 C 
ATOM     15  C   UNL     1      35.054 -24.358 -12.616  0.00  0.00    +0.174 C 
ATOM     16  H   UNL     1      34.634 -23.173 -14.234  0.00  0.00    +0.145 HD
ATOM     17  H   UNL     1      33.289 -23.536 -13.252  0.00  0.00    +0.145 HD
ATOM     18  H   UNL     1      35.222 -25.490 -10.992  0.00  0.00    +0.189 HD
ENDBRANCH   6  10
ENDBRANCH   4   6
ENDBRANCH   1   3
BRANCH   1  20
ATOM     19  O   UNL     1      33.615 -23.237 -18.943  0.00  0.00    -0.248 OA
ATOM     20  C   UNL     1      34.197 -22.828 -17.944  0.00  0.00    +0.335 C 
BRANCH  20  21
ATOM     21  O   UNL     1      33.768 -22.995 -16.661  0.00  0.00    -0.443 OA
ATOM     22  C   UNL     1      32.351 -23.093 -16.489  0.00  0.00    +0.256 C 
ENDBRANCH  20  21
ENDBRANCH   1  20
BRANCH   1  23
ATOM     23  C   UNL     1      36.051 -21.974 -19.448  0.00  0.00    +0.057 C 
BRANCH  23  24
ATOM     24  C   UNL     1      35.731 -20.694 -20.188  0.00  0.00    -0.020 C 
ATOM     25  C   UNL     1      34.407 -20.368 -20.479  0.00  0.00    -0.004 C 
ATOM     26  C   UNL     1      36.762 -19.838 -20.577  0.00  0.00    -0.004 C 
ATOM     27  C   UNL     1      34.113 -19.188 -21.161  0.00  0.00    +0.008 C 
ATOM     28  C   UNL     1      36.468 -18.657 -21.259  0.00  0.00    +0.008 C 
ATOM     29  C   UNL     1      35.143 -18.332 -21.551  0.00  0.00    +0.042 C 
BRANCH  29  30
ATOM     30  C   UNL     1      34.841 -17.123 -22.250  0.00  0.00    -0.060 C 
ATOM     31  C   UNL     1      34.589 -16.107 -22.838  0.00  0.00    -0.060 C 
BRANCH  31  32
ATOM     32  C   UNL     1      34.288 -14.896 -23.539  0.00  0.00    +0.042 C 
ATOM     33  C   UNL     1      34.470 -13.664 -22.912  0.00  0.00    +0.008 C 
ATOM     34  C   UNL     1      33.811 -14.949 -24.848  0.00  0.00    +0.008 C 
ATOM     35  C   UNL     1      34.177 -12.483 -23.594  0.00  0.00    +0.001 C 
ATOM     36  C   UNL     1      33.517 -13.768 -25.531  0.00  0.00    +0.001 C 
ATOM     37  C   UNL     1      33.700 -12.535 -24.903  0.00  0.00    +0.000 C 
ENDBRANCH  31  32
ENDBRANCH  29  30
ENDBRANCH  23  24
ENDBRANCH   1  23
TORSDOF 9
ENDMDL
MODEL 2
REMARK VINA RESULT:     -11.2      1.449      2.470
REMARK  Name = 5288250
REMARK  9 active torsions:
REMARK  status: ('A' for Active; 'I' for Inactive)
REMARK    1  A    between atoms: C_1  and  N_3
REMARK    2  A    between atoms: C_1  and  C_20
REMARK    3  A    between atoms: C_1  and  C_23
REMARK    4  A    between atoms: C_4  and  C_6
REMARK    5  A    between atoms: C_6  and  C_10
REMARK    6  A    between atoms: C_20  and  O_21
REMARK    7  A    between atoms: C_23  and  C_24
REMARK    8  A    between atoms: C_29  and  C_30
REMARK    9  A    between atoms: C_31  and  C_32
REMARK                            x       y       z     vdW  Elec       q    Type
REMARK                         _______ _______ _______ _____ _____    ______ ____
ROOT
ATOM      1  C   UNL     1      34.374 -23.078 -16.289  0.00  0.00    +0.176 C 
ENDROOT
BRANCH   1   3
ATOM      2  O   UNL     1      36.825 -21.542 -16.198  0.00  0.00    -0.275 OA
ATOM      3  N   UNL     1      35.664 -23.518 -15.811  0.00  0.00    -0.297 N 
ATOM      4  C   UNL     1      36.788 -22.705 -15.806  0.00  0.00    +0.223 C 
ATOM      5  H   UNL     1      35.749 -24.438 -15.472  0.00  0.00    +0.150 HD
BRANCH   4   6
ATOM      6  C   UNL     1      37.990 -23.436 -15.246  0.00  0.00    +0.087 C 
BRANCH   6  10
ATOM      7  N   UNL     1      36.954 -24.290 -11.686  0.00  0.00    -0.282 N 
ATOM      8  N   UNL     1      34.705 -23.920 -11.781  0.00  0.00    -0.331 N 
ATOM      9  N   UNL     1      35.706 -24.407  -9.714  0.00  0.00    -0.273 NA
ATOM     10  C   UNL     1      37.631 -24.307 -14.044  0.00  0.00    +0.029 C 
ATOM     11  C   UNL     1      38.798 -25.234 -13.674  0.00  0.00    +0.004 C 
ATOM     12  C   UNL     1      37.229 -23.440 -12.843  0.00  0.00    +0.094 C 
ATOM     13  C   UNL     1      38.467 -26.058 -12.431  0.00  0.00    +0.022 C 
ATOM     14  C   UNL     1      38.049 -25.163 -11.268  0.00  0.00    +0.093 C 
ATOM     15  C   UNL     1      35.791 -24.215 -10.999  0.00  0.00    +0.174 C 
ATOM     16  H   UNL     1      34.818 -23.783 -12.749  0.00  0.00    +0.145 HD
ATOM     17  H   UNL     1      33.812 -23.845 -11.374  0.00  0.00    +0.145 HD
ATOM     18  H   UNL     1      36.516 -24.618  -9.193  0.00  0.00    +0.189 HD
ENDBRANCH   6  10
ENDBRANCH   4   6
ENDBRANCH   1   3
BRANCH   1  20
ATOM     19  O   UNL     1      33.406 -24.328 -14.462  0.00  0.00    -0.248 OA
ATOM     20  C   UNL     1      33.229 -23.586 -15.423  0.00  0.00    +0.335 C 
BRANCH  20  21
ATOM     21  O   UNL     1      32.018 -23.135 -15.855  0.00  0.00    -0.443 OA
ATOM     22  C   UNL     1      30.895 -23.956 -15.520  0.00  0.00    +0.256 C 
ENDBRANCH  20  21
ENDBRANCH   1  20
BRANCH   1  23
ATOM     23  C   UNL     1      34.176 -23.432 -17.771  0.00  0.00    +0.057 C 
BRANCH  23  24
ATOM     24  C   UNL     1      34.269 -22.258 -18.719  0.00  0.00    -0.020 C 
ATOM     25  C   UNL     1      35.509 -21.859 -19.217  0.00  0.00    -0.004 C 
ATOM     26  C   UNL     1      33.113 -21.575 -19.098  0.00  0.00    -0.004 C 
ATOM     27  C   UNL     1      35.594 -20.776 -20.091  0.00  0.00    +0.008 C 
ATOM     28  C   UNL     1      33.198 -20.492 -19.973  0.00  0.00    +0.008 C 
ATOM     29  C   UNL     1      34.438 -20.092 -20.469  0.00  0.00    +0.042 C 
BRANCH  29  30
ATOM     30  C   UNL     1      34.526 -18.982 -21.365  0.00  0.00    -0.060 C 
ATOM     31  C   UNL     1      34.602 -18.049 -22.117  0.00  0.00    -0.060 C 
BRANCH  31  32
ATOM     32  C   UNL     1      34.691 -16.937 -23.014  0.00  0.00    +0.042 C 
ATOM     33  C   UNL     1      34.856 -17.156 -24.381  0.00  0.00    +0.008 C 
ATOM     34  C   UNL     1      34.613 -15.635 -22.520  0.00  0.00    +0.008 C 
ATOM     35  C   UNL     1      34.943 -16.074 -25.256  0.00  0.00    +0.001 C 
ATOM     36  C   UNL     1      34.700 -14.552 -23.395  0.00  0.00    +0.001 C 
ATOM     37  C   UNL     1      34.865 -14.772 -24.763  0.00  0.00    +0.000 C 
ENDBRANCH  31  32
ENDBRANCH  29  30
ENDBRANCH  23  24
ENDBRANCH   1  23
TORSDOF 9
ENDMDL
MODEL 3
REMARK VINA RESULT:     -10.7      2.869      5.589
REMARK  Name = 5288250
REMARK  9 active torsions:
REMARK  status: ('A' for Active; 'I' for Inactive)
REMARK    1  A    between atoms: C_1  and  N_3
REMARK    2  A    between atoms: C_1  and  C_20
REMARK    3  A    between atoms: C_1  and  C_23
REMARK    4  A    between atoms: C_4  and  C_6
REMARK    5  A    between atoms: C_6  and  C_10
REMARK    6  A    between atoms: C_20  and  O_21
REMARK    7  A    between atoms: C_23  and  C_24
REMARK    8  A    between atoms: C_29  and  C_30
REMARK    9  A    between atoms: C_31  and  C_32
REMARK                            x       y       z     vdW  Elec       q    Type
REMARK                         _______ _______ _______ _____ _____    ______ ____
ROOT
ATOM      1  C   UNL     1      35.798 -24.966 -15.150  0.00  0.00    +0.176 C 
ENDROOT
BRANCH   1   3
ATOM      2  O   UNL     1      35.471 -23.533 -12.657  0.00  0.00    -0.275 OA
ATOM      3  N   UNL     1      34.580 -24.798 -14.391  0.00  0.00    -0.297 N 
ATOM      4  C   UNL     1      34.521 -24.090 -13.200  0.00  0.00    +0.223 C 
ATOM      5  H   UNL     1      33.753 -25.205 -14.736  0.00  0.00    +0.150 HD
BRANCH   4   6
ATOM      6  C   UNL     1      33.115 -24.081 -12.637  0.00  0.00    +0.087 C 
BRANCH   6  10
ATOM      7  N   UNL     1      30.292 -23.373 -15.087  0.00  0.00    -0.282 N 
ATOM      8  N   UNL     1      31.437 -22.422 -16.816  0.00  0.00    -0.331 N 
ATOM      9  N   UNL     1      29.090 -22.467 -16.875  0.00  0.00    -0.273 NA
ATOM     10  C   UNL     1      32.061 -24.362 -13.705  0.00  0.00    +0.029 C 
ATOM     11  C   UNL     1      31.053 -25.411 -13.213  0.00  0.00    +0.004 C 
ATOM     12  C   UNL     1      31.340 -23.070 -14.114  0.00  0.00    +0.094 C 
ATOM     13  C   UNL     1      29.958 -25.645 -14.253  0.00  0.00    +0.022 C 
ATOM     14  C   UNL     1      29.283 -24.336 -14.652  0.00  0.00    +0.093 C 
ATOM     15  C   UNL     1      30.217 -22.743 -16.282  0.00  0.00    +0.174 C 
ATOM     16  H   UNL     1      32.262 -22.651 -16.331  0.00  0.00    +0.145 HD
ATOM     17  H   UNL     1      31.488 -21.961 -17.685  0.00  0.00    +0.145 HD
ATOM     18  H   UNL     1      28.237 -22.718 -16.452  0.00  0.00    +0.189 HD
ENDBRANCH   6  10
ENDBRANCH   4   6
ENDBRANCH   1   3
BRANCH   1  20
ATOM     19  O   UNL     1      36.441 -27.291 -15.005  0.00  0.00    -0.248 OA
ATOM     20  C   UNL     1      36.638 -26.133 -14.649  0.00  0.00    +0.335 C 
BRANCH  20  21
ATOM     21  O   UNL     1      37.597 -25.736 -13.767  0.00  0.00    -0.443 OA
ATOM     22  C   UNL     1      37.555 -26.362 -12.481  0.00  0.00    +0.256 C 
ENDBRANCH  20  21
ENDBRANCH   1  20
BRANCH   1  23
ATOM     23  C   UNL     1      36.604 -23.660 -15.208  0.00  0.00    +0.057 C 
BRANCH  23  24
ATOM     24  C   UNL     1      36.364 -22.824 -16.446  0.00  0.00    -0.020 C 
ATOM     25  C   UNL     1      37.390 -22.036 -16.966  0.00  0.00    -0.004 C 
ATOM     26  C   UNL     1      35.115 -22.843 -17.068  0.00  0.00    -0.004 C 
ATOM     27  C   UNL     1      37.167 -21.264 -18.106  0.00  0.00    +0.008 C 
ATOM     28  C   UNL     1      34.893 -22.073 -18.209  0.00  0.00    +0.008 C 
ATOM     29  C   UNL     1      35.919 -21.284 -18.728  0.00  0.00    +0.042 C 
BRANCH  29  30
ATOM     30  C   UNL     1      35.691 -20.493 -19.897  0.00  0.00    -0.060 C 
ATOM     31  C   UNL     1      35.501 -19.828 -20.878  0.00  0.00    -0.060 C 
BRANCH  31  32
ATOM     32  C   UNL     1      35.274 -19.037 -22.049  0.00  0.00    +0.042 C 
ATOM     33  C   UNL     1      35.383 -17.648 -21.983  0.00  0.00    +0.008 C 
ATOM     34  C   UNL     1      34.943 -19.655 -23.255  0.00  0.00    +0.008 C 
ATOM     35  C   UNL     1      35.162 -16.876 -23.124  0.00  0.00    +0.001 C 
ATOM     36  C   UNL     1      34.722 -18.882 -24.396  0.00  0.00    +0.001 C 
ATOM     37  C   UNL     1      34.831 -17.493 -24.329  0.00  0.00    +0.000 C 
ENDBRANCH  31  32
ENDBRANCH  29  30
ENDBRANCH  23  24
ENDBRANCH   1  23
TORSDOF 9
ENDMDL
MODEL 4
REMARK VINA RESULT:     -10.6      2.066      3.548
REMARK  Name = 5288250
REMARK  9 active torsions:
REMARK  status: ('A' for Active; 'I' for Inactive)
REMARK    1  A    between atoms: C_1  and  N_3
REMARK    2  A    between atoms: C_1  and  C_20
REMARK    3  A    between atoms: C_1  and  C_23
REMARK    4  A    between atoms: C_4  and  C_6
REMARK    5  A    between atoms: C_6  and  C_10
REMARK    6  A    between atoms: C_20  and  O_21
REMARK    7  A    between atoms: C_23  and  C_24
REMARK    8  A    between atoms: C_29  and  C_30
REMARK    9  A    between atoms: C_31  and  C_32
REMARK                            x       y       z     vdW  Elec       q    Type
REMARK                         _______ _______ _______ _____ _____    ______ ____
ROOT
ATOM      1  C   UNL     1      32.782 -23.147 -15.859  0.00  0.00    +0.176 C 
ENDROOT
BRANCH   1   3
ATOM      2  O   UNL     1      35.389 -22.445 -14.816  0.00  0.00    -0.275 OA
ATOM      3  N   UNL     1      33.425 -23.682 -14.682  0.00  0.00    -0.297 N 
ATOM      4  C   UNL     1      34.684 -23.281 -14.257  0.00  0.00    +0.223 C 
ATOM      5  H   UNL     1      32.947 -24.362 -14.154  0.00  0.00    +0.150 HD
BRANCH   4   6
ATOM      6  C   UNL     1      35.094 -24.010 -12.995  0.00  0.00    +0.087 C 
BRANCH   6  10
ATOM      7  N   UNL     1      38.460 -25.352 -14.158  0.00  0.00    -0.282 N 
ATOM      8  N   UNL     1      39.060 -23.770 -15.688  0.00  0.00    -0.331 N 
ATOM      9  N   UNL     1      40.374 -25.702 -15.452  0.00  0.00    -0.273 NA
ATOM     10  C   UNL     1      36.592 -24.307 -12.958  0.00  0.00    +0.029 C 
ATOM     11  C   UNL     1      36.950 -25.147 -11.723  0.00  0.00    +0.004 C 
ATOM     12  C   UNL     1      37.039 -25.019 -14.243  0.00  0.00    +0.094 C 
ATOM     13  C   UNL     1      38.436 -25.503 -11.719  0.00  0.00    +0.022 C 
ATOM     14  C   UNL     1      38.847 -26.184 -13.021  0.00  0.00    +0.093 C 
ATOM     15  C   UNL     1      39.345 -24.980 -15.111  0.00  0.00    +0.174 C 
ATOM     16  H   UNL     1      38.271 -23.260 -15.398  0.00  0.00    +0.145 HD
ATOM     17  H   UNL     1      39.646 -23.412 -16.394  0.00  0.00    +0.145 HD
ATOM     18  H   UNL     1      40.537 -26.566 -15.009  0.00  0.00    +0.189 HD
ENDBRANCH   6  10
ENDBRANCH   4   6
ENDBRANCH   1   3
BRANCH   1  20
ATOM     19  O   UNL     1      30.493 -22.771 -16.536  0.00  0.00    -0.248 OA
ATOM     20  C   UNL     1      31.290 -23.447 -15.893  0.00  0.00    +0.335 C 
BRANCH  20  21
ATOM     21  O   UNL     1      30.964 -24.524 -15.123  0.00  0.00    -0.443 OA
ATOM     22  C   UNL     1      29.637 -25.031 -15.295  0.00  0.00    +0.256 C 
ENDBRANCH  20  21
ENDBRANCH   1  20
BRANCH   1  23
ATOM     23  C   UNL     1      33.491 -23.607 -17.141  0.00  0.00    +0.057 C 
BRANCH  23  24
ATOM     24  C   UNL     1      33.725 -22.515 -18.161  0.00  0.00    -0.020 C 
ATOM     25  C   UNL     1      32.647 -21.787 -18.664  0.00  0.00    -0.004 C 
ATOM     26  C   UNL     1      35.020 -22.235 -18.597  0.00  0.00    -0.004 C 
ATOM     27  C   UNL     1      32.864 -20.780 -19.605  0.00  0.00    +0.008 C 
ATOM     28  C   UNL     1      35.237 -21.228 -19.537  0.00  0.00    +0.008 C 
ATOM     29  C   UNL     1      34.159 -20.500 -20.041  0.00  0.00    +0.042 C 
BRANCH  29  30
ATOM     30  C   UNL     1      34.380 -19.469 -21.005  0.00  0.00    -0.060 C 
ATOM     31  C   UNL     1      34.564 -18.601 -21.815  0.00  0.00    -0.060 C 
BRANCH  31  32
ATOM     32  C   UNL     1      34.786 -17.568 -22.780  0.00  0.00    +0.042 C 
ATOM     33  C   UNL     1      34.949 -16.248 -22.361  0.00  0.00    +0.008 C 
ATOM     34  C   UNL     1      34.837 -17.881 -24.138  0.00  0.00    +0.008 C 
ATOM     35  C   UNL     1      35.165 -15.239 -23.301  0.00  0.00    +0.001 C 
ATOM     36  C   UNL     1      35.052 -16.873 -25.078  0.00  0.00    +0.001 C 
ATOM     37  C   UNL     1      35.216 -15.552 -24.659  0.00  0.00    +0.000 C 
ENDBRANCH  31  32
ENDBRANCH  29  30
ENDBRANCH  23  24
ENDBRANCH   1  23
TORSDOF 9
ENDMDL
MODEL 5
REMARK VINA RESULT:      -9.9      4.920     11.308
REMARK  Name = 5288250
REMARK  9 active torsions:
REMARK  status: ('A' for Active; 'I' for Inactive)
REMARK    1  A    between atoms: C_1  and  N_3
REMARK    2  A    between atoms: C_1  and  C_20
REMARK    3  A    between atoms: C_1  and  C_23
REMARK    4  A    between atoms: C_4  and  C_6
REMARK    5  A    between atoms: C_6  and  C_10
REMARK    6  A    between atoms: C_20  and  O_21
REMARK    7  A    between atoms: C_23  and  C_24
REMARK    8  A    between atoms: C_29  and  C_30
REMARK    9  A    between atoms: C_31  and  C_32
REMARK                            x       y       z     vdW  Elec       q    Type
REMARK                         _______ _______ _______ _____ _____    ______ ____
ROOT
ATOM      1  C   UNL     1      35.870 -18.426 -21.329  0.00  0.00    +0.176 C 
ENDROOT
BRANCH   1   3
ATOM      2  O   UNL     1      34.579 -15.912 -20.705  0.00  0.00    -0.275 OA
ATOM      3  N   UNL     1      35.475 -17.392 -22.257  0.00  0.00    -0.297 N 
ATOM      4  C   UNL     1      34.858 -16.213 -21.862  0.00  0.00    +0.223 C 
ATOM      5  H   UNL     1      35.653 -17.529 -23.215  0.00  0.00    +0.150 HD
BRANCH   4   6
ATOM      6  C   UNL     1      34.567 -15.322 -23.051  0.00  0.00    +0.087 C 
BRANCH   6  10
ATOM      7  N   UNL     1      32.313 -12.506 -21.838  0.00  0.00    -0.282 N 
ATOM      8  N   UNL     1      32.252 -12.925 -19.596  0.00  0.00    -0.331 N 
ATOM      9  N   UNL     1      30.875 -11.248 -20.492  0.00  0.00    -0.273 NA
ATOM     10  C   UNL     1      34.162 -13.911 -22.632  0.00  0.00    +0.029 C 
ATOM     11  C   UNL     1      34.389 -12.915 -23.780  0.00  0.00    +0.004 C 
ATOM     12  C   UNL     1      32.698 -13.877 -22.170  0.00  0.00    +0.094 C 
ATOM     13  C   UNL     1      33.922 -11.515 -23.387  0.00  0.00    +0.022 C 
ATOM     14  C   UNL     1      32.473 -11.527 -22.910  0.00  0.00    +0.093 C 
ATOM     15  C   UNL     1      31.771 -12.182 -20.641  0.00  0.00    +0.174 C 
ATOM     16  H   UNL     1      32.930 -13.620 -19.757  0.00  0.00    +0.145 HD
ATOM     17  H   UNL     1      31.920 -12.764 -18.683  0.00  0.00    +0.145 HD
ATOM     18  H   UNL     1      30.560 -10.740 -21.275  0.00  0.00    +0.189 HD
ENDBRANCH   6  10
ENDBRANCH   4   6
ENDBRANCH   1   3
BRANCH   1  20
ATOM     19  O   UNL     1      38.141 -18.759 -22.085  0.00  0.00    -0.248 OA
ATOM     20  C   UNL     1      37.381 -18.504 -21.156  0.00  0.00    +0.335 C 
BRANCH  20  21
ATOM     21  O   UNL     1      37.764 -18.278 -19.868  0.00  0.00    -0.443 OA
ATOM     22  C   UNL     1      37.729 -19.415 -19.001  0.00  0.00    +0.256 C 
ENDBRANCH  20  21
ENDBRANCH   1  20
BRANCH   1  23
ATOM     23  C   UNL     1      35.264 -19.783 -21.713  0.00  0.00    +0.057 C 
BRANCH  23  24
ATOM     24  C   UNL     1      34.609 -20.529 -20.572  0.00  0.00    -0.020 C 
ATOM     25  C   UNL     1      33.252 -20.345 -20.306  0.00  0.00    -0.004 C 
ATOM     26  C   UNL     1      35.362 -21.401 -19.785  0.00  0.00    -0.004 C 
ATOM     27  C   UNL     1      32.648 -21.032 -19.252  0.00  0.00    +0.008 C 
ATOM     28  C   UNL     1      34.758 -22.089 -18.733  0.00  0.00    +0.008 C 
ATOM     29  C   UNL     1      33.401 -21.904 -18.466  0.00  0.00    +0.042 C 
BRANCH  29  30
ATOM     30  C   UNL     1      32.783 -22.608 -17.387  0.00  0.00    -0.060 C 
ATOM     31  C   UNL     1      32.262 -23.197 -16.480  0.00  0.00    -0.060 C 
BRANCH  31  32
ATOM     32  C   UNL     1      31.642 -23.901 -15.399  0.00  0.00    +0.042 C 
ATOM     33  C   UNL     1      32.380 -24.221 -14.261  0.00  0.00    +0.008 C 
ATOM     34  C   UNL     1      30.298 -24.268 -15.486  0.00  0.00    +0.008 C 
ATOM     35  C   UNL     1      31.776 -24.907 -13.207  0.00  0.00    +0.001 C 
ATOM     36  C   UNL     1      29.694 -24.954 -14.432  0.00  0.00    +0.001 C 
ATOM     37  C   UNL     1      30.434 -25.274 -13.293  0.00  0.00    +0.000 C 
ENDBRANCH  31  32
ENDBRANCH  29  30
ENDBRANCH  23  24
ENDBRANCH   1  23
TORSDOF 9
ENDMDL
MODEL 6
REMARK VINA RESULT:      -9.9      4.267      7.656
REMARK  Name = 5288250
REMARK  9 active torsions:
REMARK  status: ('A' for Active; 'I' for Inactive)
REMARK    1  A    between atoms: C_1  and  N_3
REMARK    2  A    between atoms: C_1  and  C_20
REMARK    3  A    between atoms: C_1  and  C_23
REMARK    4  A    between atoms: C_4  and  C_6
REMARK    5  A    between atoms: C_6  and  C_10
REMARK    6  A    between atoms: C_20  and  O_21
REMARK    7  A    between atoms: C_23  and  C_24
REMARK    8  A    between atoms: C_29  and  C_30
REMARK    9  A    between atoms: C_31  and  C_32
REMARK                            x       y       z     vdW  Elec       q    Type
REMARK                         _______ _______ _______ _____ _____    ______ ____
ROOT
ATOM      1  C   UNL     1      34.691 -15.862 -22.239  0.00  0.00    +0.176 C 
ENDROOT
BRANCH   1   3
ATOM      2  O   UNL     1      36.362 -17.760 -20.830  0.00  0.00    -0.275 OA
ATOM      3  N   UNL     1      34.518 -17.295 -22.167  0.00  0.00    -0.297 N 
ATOM      4  C   UNL     1      35.376 -18.127 -21.463  0.00  0.00    +0.223 C 
ATOM      5  H   UNL     1      33.755 -17.699 -22.640  0.00  0.00    +0.150 HD
BRANCH   4   6
ATOM      6  C   UNL     1      34.942 -19.574 -21.566  0.00  0.00    +0.087 C 
BRANCH   6  10
ATOM      7  N   UNL     1      35.622 -21.859 -18.600  0.00  0.00    -0.282 N 
ATOM      8  N   UNL     1      37.302 -20.729 -17.550  0.00  0.00    -0.331 N 
ATOM      9  N   UNL     1      36.691 -22.862 -16.780  0.00  0.00    -0.273 NA
ATOM     10  C   UNL     1      34.739 -20.218 -20.196  0.00  0.00    +0.029 C 
ATOM     11  C   UNL     1      33.374 -20.917 -20.119  0.00  0.00    +0.004 C 
ATOM     12  C   UNL     1      35.871 -21.207 -19.885  0.00  0.00    +0.094 C 
ATOM     13  C   UNL     1      33.196 -21.620 -18.773  0.00  0.00    +0.022 C 
ATOM     14  C   UNL     1      34.352 -22.574 -18.489  0.00  0.00    +0.093 C 
ATOM     15  C   UNL     1      36.541 -21.867 -17.607  0.00  0.00    +0.174 C 
ATOM     16  H   UNL     1      37.152 -20.003 -18.196  0.00  0.00    +0.145 HD
ATOM     17  H   UNL     1      37.999 -20.638 -16.860  0.00  0.00    +0.145 HD
ATOM     18  H   UNL     1      36.120 -23.660 -16.862  0.00  0.00    +0.189 HD
ENDBRANCH   6  10
ENDBRANCH   4   6
ENDBRANCH   1   3
BRANCH   1  20
ATOM     19  O   UNL     1      34.834 -14.137 -20.552  0.00  0.00    -0.248 OA
ATOM     20  C   UNL     1      34.289 -15.164 -20.947  0.00  0.00    +0.335 C 
BRANCH  20  21
ATOM     21  O   UNL     1      33.287 -15.820 -20.297  0.00  0.00    -0.443 OA
ATOM     22  C   UNL     1      32.276 -14.990 -19.716  0.00  0.00    +0.256 C 
ENDBRANCH  20  21
ENDBRANCH   1  20
BRANCH   1  23
ATOM     23  C   UNL     1      33.970 -15.273 -23.460  0.00  0.00    +0.057 C 
BRANCH  23  24
ATOM     24  C   UNL     1      33.631 -13.803 -23.345  0.00  0.00    -0.020 C 
ATOM     25  C   UNL     1      32.589 -13.390 -22.516  0.00  0.00    -0.004 C 
ATOM     26  C   UNL     1      34.363 -12.860 -24.068  0.00  0.00    -0.004 C 
ATOM     27  C   UNL     1      32.276 -12.034 -22.411  0.00  0.00    +0.008 C 
ATOM     28  C   UNL     1      34.051 -11.505 -23.962  0.00  0.00    +0.008 C 
ATOM     29  C   UNL     1      33.008 -11.092 -23.133  0.00  0.00    +0.042 C 
BRANCH  29  30
ATOM     30  C   UNL     1      32.687  -9.704 -23.025  0.00  0.00    -0.060 C 
ATOM     31  C   UNL     1      32.420  -8.537 -22.935  0.00  0.00    -0.060 C 
BRANCH  31  32
ATOM     32  C   UNL     1      32.100  -7.146 -22.827  0.00  0.00    +0.042 C 
ATOM     33  C   UNL     1      31.267  -6.699 -21.802  0.00  0.00    +0.008 C 
ATOM     34  C   UNL     1      32.620  -6.237 -23.750  0.00  0.00    +0.008 C 
ATOM     35  C   UNL     1      30.954  -5.344 -21.697  0.00  0.00    +0.001 C 
ATOM     36  C   UNL     1      32.308  -4.882 -23.644  0.00  0.00    +0.001 C 
ATOM     37  C   UNL     1      31.474  -4.436 -22.618  0.00  0.00    +0.000 C 
ENDBRANCH  31  32
ENDBRANCH  29  30
ENDBRANCH  23  24
ENDBRANCH   1  23
TORSDOF 9
ENDMDL
MODEL 7
REMARK VINA RESULT:      -9.8      4.530     11.778
REMARK  Name = 5288250
REMARK  9 active torsions:
REMARK  status: ('A' for Active; 'I' for Inactive)
REMARK    1  A    between atoms: C_1  and  N_3
REMARK    2  A    between atoms: C_1  and  C_20
REMARK    3  A    between atoms: C_1  and  C_23
REMARK    4  A    between atoms: C_4  and  C_6
REMARK    5  A    between atoms: C_6  and  C_10
REMARK    6  A    between atoms: C_20  and  O_21
REMARK    7  A    between atoms: C_23  and  C_24
REMARK    8  A    between atoms: C_29  and  C_30
REMARK    9  A    between atoms: C_31  and  C_32
REMARK                            x       y       z     vdW  Elec       q    Type
REMARK                         _______ _______ _______ _____ _____    ______ ____
ROOT
ATOM      1  C   UNL     1      35.011 -19.027 -21.240  0.00  0.00    +0.176 C 
ENDROOT
BRANCH   1   3
ATOM      2  O   UNL     1      35.662 -16.255 -21.759  0.00  0.00    -0.275 OA
ATOM      3  N   UNL     1      34.315 -17.859 -20.751  0.00  0.00    -0.297 N 
ATOM      4  C   UNL     1      34.704 -16.563 -21.055  0.00  0.00    +0.223 C 
ATOM      5  H   UNL     1      33.527 -17.990 -20.175  0.00  0.00    +0.150 HD
BRANCH   4   6
ATOM      6  C   UNL     1      33.786 -15.549 -20.406  0.00  0.00    +0.087 C 
BRANCH   6  10
ATOM      7  N   UNL     1      33.612 -13.242 -23.427  0.00  0.00    -0.282 N 
ATOM      8  N   UNL     1      33.444 -14.754 -25.126  0.00  0.00    -0.331 N 
ATOM      9  N   UNL     1      33.703 -12.476 -25.633  0.00  0.00    -0.273 NA
ATOM     10  C   UNL     1      33.175 -14.586 -21.421  0.00  0.00    +0.029 C 
ATOM     11  C   UNL     1      32.644 -13.324 -20.724  0.00  0.00    +0.004 C 
ATOM     12  C   UNL     1      34.196 -14.215 -22.505  0.00  0.00    +0.094 C 
ATOM     13  C   UNL     1      32.094 -12.329 -21.745  0.00  0.00    +0.022 C 
ATOM     14  C   UNL     1      33.128 -12.005 -22.818  0.00  0.00    +0.093 C 
ATOM     15  C   UNL     1      33.593 -13.441 -24.765  0.00  0.00    +0.174 C 
ATOM     16  H   UNL     1      33.364 -15.450 -24.435  0.00  0.00    +0.145 HD
ATOM     17  H   UNL     1      33.418 -15.002 -26.079  0.00  0.00    +0.145 HD
ATOM     18  H   UNL     1      33.809 -11.547 -25.324  0.00  0.00    +0.189 HD
ENDBRANCH   6  10
ENDBRANCH   4   6
ENDBRANCH   1   3
BRANCH   1  20
ATOM     19  O   UNL     1      34.493 -18.824 -23.592  0.00  0.00    -0.248 OA
ATOM     20  C   UNL     1      35.352 -18.922 -22.720  0.00  0.00    +0.335 C 
BRANCH  20  21
ATOM     21  O   UNL     1      36.695 -18.969 -22.944  0.00  0.00    -0.443 OA
ATOM     22  C   UNL     1      37.523 -18.791 -21.790  0.00  0.00    +0.256 C 
ENDBRANCH  20  21
ENDBRANCH   1  20
BRANCH   1  23
ATOM     23  C   UNL     1      34.237 -20.314 -20.918  0.00  0.00    +0.057 C 
BRANCH  23  24
ATOM     24  C   UNL     1      34.717 -21.049 -19.686  0.00  0.00    -0.020 C 
ATOM     25  C   UNL     1      33.811 -21.759 -18.899  0.00  0.00    -0.004 C 
ATOM     26  C   UNL     1      36.067 -21.016 -19.337  0.00  0.00    -0.004 C 
ATOM     27  C   UNL     1      34.254 -22.435 -17.762  0.00  0.00    +0.008 C 
ATOM     28  C   UNL     1      36.511 -21.693 -18.201  0.00  0.00    +0.008 C 
ATOM     29  C   UNL     1      35.604 -22.402 -17.414  0.00  0.00    +0.042 C 
BRANCH  29  30
ATOM     30  C   UNL     1      36.058 -23.095 -16.249  0.00  0.00    -0.060 C 
ATOM     31  C   UNL     1      36.439 -23.679 -15.272  0.00  0.00    -0.060 C 
BRANCH  31  32
ATOM     32  C   UNL     1      36.895 -24.373 -14.106  0.00  0.00    +0.042 C 
ATOM     33  C   UNL     1      36.913 -25.767 -14.088  0.00  0.00    +0.008 C 
ATOM     34  C   UNL     1      37.318 -23.654 -12.987  0.00  0.00    +0.008 C 
ATOM     35  C   UNL     1      37.357 -26.445 -12.952  0.00  0.00    +0.001 C 
ATOM     36  C   UNL     1      37.762 -24.332 -11.851  0.00  0.00    +0.001 C 
ATOM     37  C   UNL     1      37.780 -25.727 -11.834  0.00  0.00    +0.000 C 
ENDBRANCH  31  32
ENDBRANCH  29  30
ENDBRANCH  23  24
ENDBRANCH   1  23
TORSDOF 9
ENDMDL
MODEL 8
REMARK VINA RESULT:      -9.4      4.713      8.467
REMARK  Name = 5288250
REMARK  9 active torsions:
REMARK  status: ('A' for Active; 'I' for Inactive)
REMARK    1  A    between atoms: C_1  and  N_3
REMARK    2  A    between atoms: C_1  and  C_20
REMARK    3  A    between atoms: C_1  and  C_23
REMARK    4  A    between atoms: C_4  and  C_6
REMARK    5  A    between atoms: C_6  and  C_10
REMARK    6  A    between atoms: C_20  and  O_21
REMARK    7  A    between atoms: C_23  and  C_24
REMARK    8  A    between atoms: C_29  and  C_30
REMARK    9  A    between atoms: C_31  and  C_32
REMARK                            x       y       z     vdW  Elec       q    Type
REMARK                         _______ _______ _______ _____ _____    ______ ____
ROOT
ATOM      1  C   UNL     1      34.029 -15.839 -23.590  0.00  0.00    +0.176 C 
ENDROOT
BRANCH   1   3
ATOM      2  O   UNL     1      34.910 -16.852 -21.026  0.00  0.00    -0.275 OA
ATOM      3  N   UNL     1      34.451 -17.185 -23.280  0.00  0.00    -0.297 N 
ATOM      4  C   UNL     1      34.858 -17.580 -22.013  0.00  0.00    +0.223 C 
ATOM      5  H   UNL     1      34.447 -17.855 -24.001  0.00  0.00    +0.150 HD
BRANCH   4   6
ATOM      6  C   UNL     1      35.236 -19.046 -21.991  0.00  0.00    +0.087 C 
BRANCH   6  10
ATOM      7  N   UNL     1      35.494 -21.509 -19.103  0.00  0.00    -0.282 N 
ATOM      8  N   UNL     1      37.241 -20.630 -17.928  0.00  0.00    -0.331 N 
ATOM      9  N   UNL     1      36.347 -22.703 -17.283  0.00  0.00    -0.273 NA
ATOM     10  C   UNL     1      34.891 -19.713 -20.662  0.00  0.00    +0.029 C 
ATOM     11  C   UNL     1      33.451 -20.248 -20.678  0.00  0.00    +0.004 C 
ATOM     12  C   UNL     1      35.882 -20.842 -20.345  0.00  0.00    +0.094 C 
ATOM     13  C   UNL     1      33.126 -20.976 -19.374  0.00  0.00    +0.022 C 
ATOM     14  C   UNL     1      34.146 -22.071 -19.081  0.00  0.00    +0.093 C 
ATOM     15  C   UNL     1      36.356 -21.666 -18.071  0.00  0.00    +0.174 C 
ATOM     16  H   UNL     1      37.210 -19.866 -18.548  0.00  0.00    +0.145 HD
ATOM     17  H   UNL     1      37.909 -20.650 -17.205  0.00  0.00    +0.145 HD
ATOM     18  H   UNL     1      35.690 -23.423 -17.426  0.00  0.00    +0.189 HD
ENDBRANCH   6  10
ENDBRANCH   4   6
ENDBRANCH   1   3
BRANCH   1  20
ATOM     19  O   UNL     1      34.850 -16.004 -25.856  0.00  0.00    -0.248 OA
ATOM     20  C   UNL     1      33.997 -15.571 -25.088  0.00  0.00    +0.335 C 
BRANCH  20  21
ATOM     21  O   UNL     1      32.937 -14.795 -25.449  0.00  0.00    -0.443 OA
ATOM     22  C   UNL     1      33.190 -13.842 -26.486  0.00  0.00    +0.256 C 
ENDBRANCH  20  21
ENDBRANCH   1  20
BRANCH   1  23
ATOM     23  C   UNL     1      34.877 -14.801 -22.838  0.00  0.00    +0.057 C 
BRANCH  23  24
ATOM     24  C   UNL     1      34.319 -13.395 -22.859  0.00  0.00    -0.020 C 
ATOM     25  C   UNL     1      34.799 -12.467 -23.782  0.00  0.00    -0.004 C 
ATOM     26  C   UNL     1      33.322 -13.028 -21.954  0.00  0.00    -0.004 C 
ATOM     27  C   UNL     1      34.285 -11.171 -23.800  0.00  0.00    +0.008 C 
ATOM     28  C   UNL     1      32.807 -11.732 -21.973  0.00  0.00    +0.008 C 
ATOM     29  C   UNL     1      33.289 -10.803 -22.896  0.00  0.00    +0.042 C 
BRANCH  29  30
ATOM     30  C   UNL     1      32.762  -9.475 -22.915  0.00  0.00    -0.060 C 
ATOM     31  C   UNL     1      32.321  -8.358 -22.931  0.00  0.00    -0.060 C 
BRANCH  31  32
ATOM     32  C   UNL     1      31.795  -7.027 -22.950  0.00  0.00    +0.042 C 
ATOM     33  C   UNL     1      32.272  -6.103 -23.878  0.00  0.00    +0.008 C 
ATOM     34  C   UNL     1      30.805  -6.656 -22.040  0.00  0.00    +0.008 C 
ATOM     35  C   UNL     1      31.760  -4.805 -23.898  0.00  0.00    +0.001 C 
ATOM     36  C   UNL     1      30.293  -5.358 -22.060  0.00  0.00    +0.001 C 
ATOM     37  C   UNL     1      30.771  -4.433 -22.989  0.00  0.00    +0.000 C 
ENDBRANCH  31  32
ENDBRANCH  29  30
ENDBRANCH  23  24
ENDBRANCH   1  23
TORSDOF 9
ENDMDL
MODEL 9
REMARK VINA RESULT:      -9.1      7.979     14.045
REMARK  Name = 5288250
REMARK  9 active torsions:
REMARK  status: ('A' for Active; 'I' for Inactive)
REMARK    1  A    between atoms: C_1  and  N_3
REMARK    2  A    between atoms: C_1  and  C_20
REMARK    3  A    between atoms: C_1  and  C_23
REMARK    4  A    between atoms: C_4  and  C_6
REMARK    5  A    between atoms: C_6  and  C_10
REMARK    6  A    between atoms: C_20  and  O_21
REMARK    7  A    between atoms: C_23  and  C_24
REMARK    8  A    between atoms: C_29  and  C_30
REMARK    9  A    between atoms: C_31  and  C_32
REMARK                            x       y       z     vdW  Elec       q    Type
REMARK                         _______ _______ _______ _____ _____    ______ ____
ROOT
ATOM      1  C   UNL     1      34.248 -11.027 -23.698  0.00  0.00    +0.176 C 
ENDROOT
BRANCH   1   3
ATOM      2  O   UNL     1      32.572 -11.523 -21.391  0.00  0.00    -0.275 OA
ATOM      3  N   UNL     1      33.012 -10.363 -23.356  0.00  0.00    -0.297 N 
ATOM      4  C   UNL     1      32.274 -10.670 -22.222  0.00  0.00    +0.223 C 
ATOM      5  H   UNL     1      32.678  -9.657 -23.956  0.00  0.00    +0.150 HD
BRANCH   4   6
ATOM      6  C   UNL     1      31.032  -9.809 -22.127  0.00  0.00    +0.087 C 
BRANCH   6  10
ATOM      7  N   UNL     1      32.020  -6.136 -22.043  0.00  0.00    -0.282 N 
ATOM      8  N   UNL     1      30.096  -5.145 -22.764  0.00  0.00    -0.331 N 
ATOM      9  N   UNL     1      32.020  -3.835 -22.455  0.00  0.00    -0.273 NA
ATOM     10  C   UNL     1      31.325  -8.433 -21.534  0.00  0.00    +0.029 C 
ATOM     11  C   UNL     1      32.453  -8.516 -20.496  0.00  0.00    +0.004 C 
ATOM     12  C   UNL     1      31.680  -7.427 -22.638  0.00  0.00    +0.094 C 
ATOM     13  C   UNL     1      32.795  -7.130 -19.950  0.00  0.00    +0.022 C 
ATOM     14  C   UNL     1      33.116  -6.154 -21.077  0.00  0.00    +0.093 C 
ATOM     15  C   UNL     1      31.413  -4.987 -22.421  0.00  0.00    +0.174 C 
ATOM     16  H   UNL     1      29.680  -6.036 -22.723  0.00  0.00    +0.145 HD
ATOM     17  H   UNL     1      29.567  -4.367 -23.053  0.00  0.00    +0.145 HD
ATOM     18  H   UNL     1      32.969  -3.772 -22.198  0.00  0.00    +0.189 HD
ENDBRANCH   6  10
ENDBRANCH   4   6
ENDBRANCH   1   3
BRANCH   1  20
ATOM     19  O   UNL     1      35.741 -10.287 -25.448  0.00  0.00    -0.248 OA
ATOM     20  C   UNL     1      35.257 -10.084 -24.339  0.00  0.00    +0.335 C 
BRANCH  20  21
ATOM     21  O   UNL     1      35.555  -9.025 -23.534  0.00  0.00    -0.443 OA
ATOM     22  C   UNL     1      35.169  -7.740 -24.031  0.00  0.00    +0.256 C 
ENDBRANCH  20  21
ENDBRANCH   1  20
BRANCH   1  23
ATOM     23  C   UNL     1      33.994 -12.271 -24.562  0.00  0.00    +0.057 C 
BRANCH  23  24
ATOM     24  C   UNL     1      34.200 -13.589 -23.849  0.00  0.00    -0.020 C 
ATOM     25  C   UNL     1      34.412 -13.611 -22.471  0.00  0.00    -0.004 C 
ATOM     26  C   UNL     1      34.177 -14.783 -24.570  0.00  0.00    -0.004 C 
ATOM     27  C   UNL     1      34.603 -14.826 -21.813  0.00  0.00    +0.008 C 
ATOM     28  C   UNL     1      34.367 -15.998 -23.913  0.00  0.00    +0.008 C 
ATOM     29  C   UNL     1      34.580 -16.020 -22.535  0.00  0.00    +0.042 C 
BRANCH  29  30
ATOM     30  C   UNL     1      34.776 -17.265 -21.861  0.00  0.00    -0.060 C 
ATOM     31  C   UNL     1      34.940 -18.310 -21.293  0.00  0.00    -0.060 C 
BRANCH  31  32
ATOM     32  C   UNL     1      35.136 -19.557 -20.618  0.00  0.00    +0.042 C 
ATOM     33  C   UNL     1      36.426 -19.999 -20.330  0.00  0.00    +0.008 C 
ATOM     34  C   UNL     1      34.035 -20.330 -20.250  0.00  0.00    +0.008 C 
ATOM     35  C   UNL     1      36.618 -21.214 -19.671  0.00  0.00    +0.001 C 
ATOM     36  C   UNL     1      34.226 -21.546 -19.591  0.00  0.00    +0.001 C 
ATOM     37  C   UNL     1      35.518 -21.987 -19.303  0.00  0.00    +0.000 C 
ENDBRANCH  31  32
ENDBRANCH  29  30
ENDBRANCH  23  24
ENDBRANCH   1  23
TORSDOF 9
ENDMDL
