MODEL 1
REMARK VINA RESULT:     -12.5      0.000      0.000
REMARK  Name = 1712
REMARK  5 active torsions:
REMARK  status: ('A' for Active; 'I' for Inactive)
REMARK    1  A    between atoms: C_1  and  N_18
REMARK    2  A    between atoms: C_2  and  S_7
REMARK    3  A    between atoms: S_7  and  N_10
REMARK    4  A    between atoms: N_18  and  C_20
REMARK    5  A    between atoms: C_20  and  C_26
REMARK                            x       y       z     vdW  Elec       q    Type
REMARK                         _______ _______ _______ _____ _____    ______ ____
ROOT
ATOM      1  C   UNL     1      34.778 -20.031 -20.612  0.00  0.00    +0.045 C 
ATOM      2  C   UNL     1      34.052 -21.975 -18.712  0.00  0.00    +0.125 C 
ATOM      3  C   UNL     1      33.428 -20.243 -20.277  0.00  0.00    +0.016 C 
ATOM      4  C   UNL     1      35.756 -20.816 -19.974  0.00  0.00    +0.016 C 
ATOM      5  C   UNL     1      33.068 -21.206 -19.335  0.00  0.00    +0.021 C 
ATOM      6  C   UNL     1      35.395 -21.780 -19.032  0.00  0.00    +0.021 C 
ENDROOT
BRANCH   2   7
ATOM      7  S   UNL     1      33.601 -23.181 -17.534  0.00  0.00    +0.075 S 
ATOM      8  O   UNL     1      34.542 -23.092 -16.423  0.00  0.00    -0.150 OA
ATOM      9  O   UNL     1      33.437 -24.460 -18.215  0.00  0.00    -0.150 OA
BRANCH   7  10
ATOM     10  N   UNL     1      32.067 -22.622 -16.982  0.00  0.00    -0.199 N 
ATOM     11  H   UNL     1      31.554 -21.960 -17.499  0.00  0.00    +0.175 HD
ATOM     12  N   UNL     1      32.239 -22.800 -14.636  0.00  0.00    -0.228 NA
ATOM     13  C   UNL     1      31.560 -23.152 -15.745  0.00  0.00    +0.147 C 
ATOM     14  C   UNL     1      30.442 -23.963 -15.761  0.00  0.00    +0.036 C 
ATOM     15  C   UNL     1      29.986 -24.453 -14.542  0.00  0.00    +0.005 C 
ATOM     16  C   UNL     1      31.767 -23.295 -13.470  0.00  0.00    +0.100 C 
ATOM     17  C   UNL     1      30.655 -24.117 -13.371  0.00  0.00    +0.021 C 
ENDBRANCH   7  10
ENDBRANCH   2   7
BRANCH   1  18
ATOM     18  N   UNL     1      35.137 -19.072 -21.548  0.00  0.00    -0.328 N 
ATOM     19  H   UNL     1      35.456 -19.379 -22.428  0.00  0.00    +0.147 HD
BRANCH  18  20
ATOM     20  C   UNL     1      35.071 -17.652 -21.307  0.00  0.00    +0.127 C 
BRANCH  20  26
ATOM     21  S   UNL     1      33.388 -14.573 -20.467  0.00  0.00    -0.104 S 
ATOM     22  O   UNL     1      35.755 -18.626 -23.996  0.00  0.00    -0.210 OA
ATOM     23  N   UNL     1      34.803 -16.708 -24.911  0.00  0.00    -0.333 NA
ATOM     24  N   UNL     1      32.485 -12.677 -21.989  0.00  0.00    -0.262 NA
ATOM     25  C   UNL     1      34.189 -15.793 -22.873  0.00  0.00    +0.033 C 
ATOM     26  C   UNL     1      34.780 -16.948 -22.579  0.00  0.00    +0.092 C 
ATOM     27  C   UNL     1      34.233 -15.698 -24.341  0.00  0.00    +0.142 C 
ATOM     28  C   UNL     1      33.592 -14.751 -22.147  0.00  0.00    +0.114 C 
ATOM     29  C   UNL     1      35.182 -17.551 -23.887  0.00  0.00    +0.202 C 
ATOM     30  C   UNL     1      33.048 -13.645 -22.780  0.00  0.00    +0.069 C 
ATOM     31  C   UNL     1      33.639 -14.494 -24.983  0.00  0.00    +0.034 C 
ATOM     32  C   UNL     1      33.085 -13.541 -24.208  0.00  0.00    +0.018 C 
ATOM     33  C   UNL     1      32.607 -13.063 -20.737  0.00  0.00    +0.183 C 
ENDBRANCH  20  26
ENDBRANCH  18  20
ENDBRANCH   1  18
TORSDOF 5
ENDMDL
MODEL 2
REMARK VINA RESULT:     -11.7      4.009      6.983
REMARK  Name = 1712
REMARK  5 active torsions:
REMARK  status: ('A' for Active; 'I' for Inactive)
REMARK    1  A    between atoms: C_1  and  N_18
REMARK    2  A    between atoms: C_2  and  S_7
REMARK    3  A    between atoms: S_7  and  N_10
REMARK    4  A    between atoms: N_18  and  C_20
REMARK    5  A    between atoms: C_20  and  C_26
REMARK                            x       y       z     vdW  Elec       q    Type
REMARK                         _______ _______ _______ _____ _____    ______ ____
ROOT
ATOM      1  C   UNL     1      34.130 -14.167 -23.563  0.00  0.00    +0.045 C 
ATOM      2  C   UNL     1      34.853 -16.809 -22.919  0.00  0.00    +0.125 C 
ATOM      3  C   UNL     1      34.471 -14.521 -22.245  0.00  0.00    +0.016 C 
ATOM      4  C   UNL     1      34.158 -15.168 -24.551  0.00  0.00    +0.016 C 
ATOM      5  C   UNL     1      34.830 -15.830 -21.926  0.00  0.00    +0.021 C 
ATOM      6  C   UNL     1      34.517 -16.478 -24.232  0.00  0.00    +0.021 C 
ENDROOT
BRANCH   2   7
ATOM      7  S   UNL     1      35.301 -18.448 -22.520  0.00  0.00    +0.075 S 
ATOM      8  O   UNL     1      36.757 -18.517 -22.490  0.00  0.00    -0.150 OA
ATOM      9  O   UNL     1      34.572 -19.358 -23.395  0.00  0.00    -0.150 OA
BRANCH   7  10
ATOM     10  N   UNL     1      34.725 -18.618 -20.904  0.00  0.00    -0.199 N 
ATOM     11  H   UNL     1      34.412 -17.837 -20.394  0.00  0.00    +0.175 HD
ATOM     12  N   UNL     1      35.926 -20.481 -20.095  0.00  0.00    -0.228 NA
ATOM     13  C   UNL     1      34.716 -19.935 -20.325  0.00  0.00    +0.147 C 
ATOM     14  C   UNL     1      33.509 -20.546 -20.045  0.00  0.00    +0.036 C 
ATOM     15  C   UNL     1      33.548 -21.818 -19.485  0.00  0.00    +0.005 C 
ATOM     16  C   UNL     1      35.924 -21.718 -19.551  0.00  0.00    +0.100 C 
ATOM     17  C   UNL     1      34.774 -22.422 -19.230  0.00  0.00    +0.021 C 
ENDBRANCH   7  10
ENDBRANCH   2   7
BRANCH   1  18
ATOM     18  N   UNL     1      33.774 -12.865 -23.881  0.00  0.00    -0.328 N 
ATOM     19  H   UNL     1      33.102 -12.727 -24.587  0.00  0.00    +0.147 HD
BRANCH  18  20
ATOM     20  C   UNL     1      34.334 -11.701 -23.240  0.00  0.00    +0.127 C 
BRANCH  20  26
ATOM     21  S   UNL     1      35.242  -8.333 -24.158  0.00  0.00    -0.104 S 
ATOM     22  O   UNL     1      31.891 -12.567 -21.852  0.00  0.00    -0.210 OA
ATOM     23  N   UNL     1      31.174 -10.352 -21.775  0.00  0.00    -0.333 NA
ATOM     24  N   UNL     1      33.983  -6.092 -23.802  0.00  0.00    -0.262 NA
ATOM     25  C   UNL     1      33.035  -9.498 -22.857  0.00  0.00    +0.033 C 
ATOM     26  C   UNL     1      33.238 -10.811 -22.788  0.00  0.00    +0.092 C 
ATOM     27  C   UNL     1      31.733  -9.272 -22.210  0.00  0.00    +0.142 C 
ATOM     28  C   UNL     1      33.736  -8.395 -23.368  0.00  0.00    +0.114 C 
ATOM     29  C   UNL     1      32.043 -11.377 -22.090  0.00  0.00    +0.202 C 
ATOM     30  C   UNL     1      33.229  -7.108 -23.276  0.00  0.00    +0.069 C 
ATOM     31  C   UNL     1      31.223  -7.877 -22.131  0.00  0.00    +0.034 C 
ATOM     32  C   UNL     1      31.963  -6.876 -22.648  0.00  0.00    +0.018 C 
ATOM     33  C   UNL     1      35.080  -6.624 -24.300  0.00  0.00    +0.183 C 
ENDBRANCH  20  26
ENDBRANCH  18  20
ENDBRANCH   1  18
TORSDOF 5
ENDMDL
MODEL 3
REMARK VINA RESULT:     -11.6      2.130      2.542
REMARK  Name = 1712
REMARK  5 active torsions:
REMARK  status: ('A' for Active; 'I' for Inactive)
REMARK    1  A    between atoms: C_1  and  N_18
REMARK    2  A    between atoms: C_2  and  S_7
REMARK    3  A    between atoms: S_7  and  N_10
REMARK    4  A    between atoms: N_18  and  C_20
REMARK    5  A    between atoms: C_20  and  C_26
REMARK                            x       y       z     vdW  Elec       q    Type
REMARK                         _______ _______ _______ _____ _____    ______ ____
ROOT
ATOM      1  C   UNL     1      34.408 -20.019 -20.657  0.00  0.00    +0.045 C 
ATOM      2  C   UNL     1      34.062 -21.918 -18.610  0.00  0.00    +0.125 C 
ATOM      3  C   UNL     1      35.513 -20.685 -20.097  0.00  0.00    +0.016 C 
ATOM      4  C   UNL     1      33.126 -20.326 -20.167  0.00  0.00    +0.016 C 
ATOM      5  C   UNL     1      35.342 -21.627 -19.083  0.00  0.00    +0.021 C 
ATOM      6  C   UNL     1      32.954 -21.267 -19.153  0.00  0.00    +0.021 C 
ENDROOT
BRANCH   2   7
ATOM      7  S   UNL     1      33.848 -23.096 -17.340  0.00  0.00    +0.075 S 
ATOM      8  O   UNL     1      33.475 -24.361 -17.963  0.00  0.00    -0.150 OA
ATOM      9  O   UNL     1      32.971 -22.530 -16.322  0.00  0.00    -0.150 OA
BRANCH   7  10
ATOM     10  N   UNL     1      35.440 -23.263 -16.701  0.00  0.00    -0.199 N 
ATOM     11  H   UNL     1      36.230 -23.077 -17.258  0.00  0.00    +0.175 HD
ATOM     12  N   UNL     1      35.193 -24.945 -15.066  0.00  0.00    -0.228 NA
ATOM     13  C   UNL     1      35.579 -23.682 -15.333  0.00  0.00    +0.147 C 
ATOM     14  C   UNL     1      36.083 -22.798 -14.399  0.00  0.00    +0.036 C 
ATOM     15  C   UNL     1      36.201 -23.245 -13.088  0.00  0.00    +0.005 C 
ATOM     16  C   UNL     1      35.321 -25.344 -13.780  0.00  0.00    +0.100 C 
ATOM     17  C   UNL     1      35.814 -24.542 -12.765  0.00  0.00    +0.021 C 
ENDBRANCH   7  10
ENDBRANCH   2   7
BRANCH   1  18
ATOM     18  N   UNL     1      34.578 -19.083 -21.667  0.00  0.00    -0.328 N 
ATOM     19  H   UNL     1      34.450 -19.377 -22.598  0.00  0.00    +0.147 HD
BRANCH  18  20
ATOM     20  C   UNL     1      34.934 -17.706 -21.432  0.00  0.00    +0.127 C 
BRANCH  20  26
ATOM     21  S   UNL     1      33.303 -14.640 -20.453  0.00  0.00    -0.104 S 
ATOM     22  O   UNL     1      35.676 -18.532 -24.155  0.00  0.00    -0.210 OA
ATOM     23  N   UNL     1      34.801 -16.537 -24.978  0.00  0.00    -0.333 NA
ATOM     24  N   UNL     1      32.494 -12.631 -21.882  0.00  0.00    -0.262 NA
ATOM     25  C   UNL     1      34.147 -15.732 -22.906  0.00  0.00    +0.033 C 
ATOM     26  C   UNL     1      34.700 -16.918 -22.666  0.00  0.00    +0.092 C 
ATOM     27  C   UNL     1      34.238 -15.549 -24.363  0.00  0.00    +0.142 C 
ATOM     28  C   UNL     1      33.554 -14.721 -22.134  0.00  0.00    +0.114 C 
ATOM     29  C   UNL     1      35.127 -17.451 -23.996  0.00  0.00    +0.202 C 
ATOM     30  C   UNL     1      33.057 -13.564 -22.714  0.00  0.00    +0.069 C 
ATOM     31  C   UNL     1      33.695 -14.293 -24.947  0.00  0.00    +0.034 C 
ATOM     32  C   UNL     1      33.140 -13.375 -24.131  0.00  0.00    +0.018 C 
ATOM     33  C   UNL     1      32.568 -13.096 -20.652  0.00  0.00    +0.183 C 
ENDBRANCH  20  26
ENDBRANCH  18  20
ENDBRANCH   1  18
TORSDOF 5
ENDMDL
MODEL 4
REMARK VINA RESULT:     -11.3      4.020      6.707
REMARK  Name = 1712
REMARK  5 active torsions:
REMARK  status: ('A' for Active; 'I' for Inactive)
REMARK    1  A    between atoms: C_1  and  N_18
REMARK    2  A    between atoms: C_2  and  S_7
REMARK    3  A    between atoms: S_7  and  N_10
REMARK    4  A    between atoms: N_18  and  C_20
REMARK    5  A    between atoms: C_20  and  C_26
REMARK                            x       y       z     vdW  Elec       q    Type
REMARK                         _______ _______ _______ _____ _____    ______ ____
ROOT
ATOM      1  C   UNL     1      34.179 -14.310 -23.875  0.00  0.00    +0.045 C 
ATOM      2  C   UNL     1      34.941 -16.891 -23.055  0.00  0.00    +0.125 C 
ATOM      3  C   UNL     1      34.258 -15.367 -24.801  0.00  0.00    +0.016 C 
ATOM      4  C   UNL     1      34.492 -14.576 -22.530  0.00  0.00    +0.016 C 
ATOM      5  C   UNL     1      34.636 -16.646 -24.394  0.00  0.00    +0.021 C 
ATOM      6  C   UNL     1      34.869 -15.856 -22.123  0.00  0.00    +0.021 C 
ENDROOT
BRANCH   2   7
ATOM      7  S   UNL     1      35.415 -18.492 -22.547  0.00  0.00    +0.075 S 
ATOM      8  O   UNL     1      36.868 -18.508 -22.422  0.00  0.00    -0.150 OA
ATOM      9  O   UNL     1      34.775 -19.468 -23.420  0.00  0.00    -0.150 OA
BRANCH   7  10
ATOM     10  N   UNL     1      34.741 -18.606 -20.965  0.00  0.00    -0.199 N 
ATOM     11  H   UNL     1      34.398 -17.807 -20.502  0.00  0.00    +0.175 HD
ATOM     12  N   UNL     1      35.888 -20.437 -20.018  0.00  0.00    -0.228 NA
ATOM     13  C   UNL     1      34.695 -19.901 -20.341  0.00  0.00    +0.147 C 
ATOM     14  C   UNL     1      33.473 -20.502 -20.114  0.00  0.00    +0.036 C 
ATOM     15  C   UNL     1      33.475 -21.754 -19.507  0.00  0.00    +0.005 C 
ATOM     16  C   UNL     1      35.851 -21.654 -19.431  0.00  0.00    +0.100 C 
ATOM     17  C   UNL     1      34.683 -22.347 -19.156  0.00  0.00    +0.021 C 
ENDBRANCH   7  10
ENDBRANCH   2   7
BRANCH   1  18
ATOM     18  N   UNL     1      33.802 -13.038 -24.279  0.00  0.00    -0.328 N 
ATOM     19  H   UNL     1      33.924 -12.796 -25.226  0.00  0.00    +0.147 HD
BRANCH  18  20
ATOM     20  C   UNL     1      33.245 -12.047 -23.392  0.00  0.00    +0.127 C 
BRANCH  20  26
ATOM     21  S   UNL     1      31.941  -9.718 -20.965  0.00  0.00    -0.104 S 
ATOM     22  O   UNL     1      35.204 -11.491 -25.514  0.00  0.00    -0.210 OA
ATOM     23  N   UNL     1      35.314  -9.276 -24.804  0.00  0.00    -0.333 NA
ATOM     24  N   UNL     1      32.444  -7.198 -20.608  0.00  0.00    -0.262 NA
ATOM     25  C   UNL     1      33.784  -9.536 -23.084  0.00  0.00    +0.033 C 
ATOM     26  C   UNL     1      33.883 -10.734 -23.655  0.00  0.00    +0.092 C 
ATOM     27  C   UNL     1      34.699  -8.669 -23.843  0.00  0.00    +0.142 C 
ATOM     28  C   UNL     1      33.061  -8.984 -22.015  0.00  0.00    +0.114 C 
ATOM     29  C   UNL     1      34.868 -10.581 -24.769  0.00  0.00    +0.202 C 
ATOM     30  C   UNL     1      33.191  -7.650 -21.665  0.00  0.00    +0.069 C 
ATOM     31  C   UNL     1      34.811  -7.243 -23.435  0.00  0.00    +0.034 C 
ATOM     32  C   UNL     1      34.077  -6.796 -22.396  0.00  0.00    +0.018 C 
ATOM     33  C   UNL     1      31.738  -8.212 -20.155  0.00  0.00    +0.183 C 
ENDBRANCH  20  26
ENDBRANCH  18  20
ENDBRANCH   1  18
TORSDOF 5
ENDMDL
MODEL 5
REMARK VINA RESULT:     -11.2      4.002     11.138
REMARK  Name = 1712
REMARK  5 active torsions:
REMARK  status: ('A' for Active; 'I' for Inactive)
REMARK    1  A    between atoms: C_1  and  N_18
REMARK    2  A    between atoms: C_2  and  S_7
REMARK    3  A    between atoms: S_7  and  N_10
REMARK    4  A    between atoms: N_18  and  C_20
REMARK    5  A    between atoms: C_20  and  C_26
REMARK                            x       y       z     vdW  Elec       q    Type
REMARK                         _______ _______ _______ _____ _____    ______ ____
ROOT
ATOM      1  C   UNL     1      35.669 -21.752 -18.540  0.00  0.00    +0.045 C 
ATOM      2  C   UNL     1      35.573 -19.990 -20.732  0.00  0.00    +0.125 C 
ATOM      3  C   UNL     1      34.444 -21.425 -19.150  0.00  0.00    +0.016 C 
ATOM      4  C   UNL     1      36.845 -21.175 -19.054  0.00  0.00    +0.016 C 
ATOM      5  C   UNL     1      34.396 -20.552 -20.236  0.00  0.00    +0.021 C 
ATOM      6  C   UNL     1      36.797 -20.302 -20.140  0.00  0.00    +0.021 C 
ENDROOT
BRANCH   2   7
ATOM      7  S   UNL     1      35.513 -18.896 -22.091  0.00  0.00    +0.075 S 
ATOM      8  O   UNL     1      35.104 -19.663 -23.262  0.00  0.00    -0.150 OA
ATOM      9  O   UNL     1      36.763 -18.147 -22.143  0.00  0.00    -0.150 OA
BRANCH   7  10
ATOM     10  N   UNL     1      34.222 -17.835 -21.670  0.00  0.00    -0.199 N 
ATOM     11  H   UNL     1      33.418 -18.172 -21.214  0.00  0.00    +0.175 HD
ATOM     12  N   UNL     1      34.344 -16.154 -23.321  0.00  0.00    -0.228 NA
ATOM     13  C   UNL     1      34.356 -16.442 -22.005  0.00  0.00    +0.147 C 
ATOM     14  C   UNL     1      34.483 -15.509 -20.994  0.00  0.00    +0.036 C 
ATOM     15  C   UNL     1      34.609 -14.175 -21.364  0.00  0.00    +0.005 C 
ATOM     16  C   UNL     1      34.470 -14.846 -23.642  0.00  0.00    +0.100 C 
ATOM     17  C   UNL     1      34.603 -13.829 -22.711  0.00  0.00    +0.021 C 
ENDBRANCH   7  10
ENDBRANCH   2   7
BRANCH   1  18
ATOM     18  N   UNL     1      35.717 -22.621 -17.461  0.00  0.00    -0.328 N 
ATOM     19  H   UNL     1      35.041 -23.336 -17.410  0.00  0.00    +0.147 HD
BRANCH  18  20
ATOM     20  C   UNL     1      36.697 -22.538 -16.407  0.00  0.00    +0.127 C 
BRANCH  20  26
ATOM     21  S   UNL     1      39.580 -24.413 -15.315  0.00  0.00    -0.104 S 
ATOM     22  O   UNL     1      33.985 -22.632 -15.277  0.00  0.00    -0.210 OA
ATOM     23  N   UNL     1      34.710 -24.203 -13.718  0.00  0.00    -0.333 NA
ATOM     24  N   UNL     1      39.837 -26.142 -13.398  0.00  0.00    -0.262 NA
ATOM     25  C   UNL     1      36.896 -24.255 -14.483  0.00  0.00    +0.033 C 
ATOM     26  C   UNL     1      36.268 -23.380 -15.265  0.00  0.00    +0.092 C 
ATOM     27  C   UNL     1      35.874 -24.734 -13.539  0.00  0.00    +0.142 C 
ATOM     28  C   UNL     1      38.200 -24.764 -14.383  0.00  0.00    +0.114 C 
ATOM     29  C   UNL     1      34.853 -23.336 -14.782  0.00  0.00    +0.202 C 
ATOM     30  C   UNL     1      38.539 -25.701 -13.420  0.00  0.00    +0.069 C 
ATOM     31  C   UNL     1      36.279 -25.740 -12.520  0.00  0.00    +0.034 C 
ATOM     32  C   UNL     1      37.554 -26.175 -12.496  0.00  0.00    +0.018 C 
ATOM     33  C   UNL     1      40.486 -25.525 -14.363  0.00  0.00    +0.183 C 
ENDBRANCH  20  26
ENDBRANCH  18  20
ENDBRANCH   1  18
TORSDOF 5
ENDMDL
MODEL 6
REMARK VINA RESULT:     -11.1      2.245     10.537
REMARK  Name = 1712
REMARK  5 active torsions:
REMARK  status: ('A' for Active; 'I' for Inactive)
REMARK    1  A    between atoms: C_1  and  N_18
REMARK    2  A    between atoms: C_2  and  S_7
REMARK    3  A    between atoms: S_7  and  N_10
REMARK    4  A    between atoms: N_18  and  C_20
REMARK    5  A    between atoms: C_20  and  C_26
REMARK                            x       y       z     vdW  Elec       q    Type
REMARK                         _______ _______ _______ _____ _____    ______ ____
ROOT
ATOM      1  C   UNL     1      34.747 -21.678 -19.365  0.00  0.00    +0.045 C 
ATOM      2  C   UNL     1      35.134 -19.503 -21.107  0.00  0.00    +0.125 C 
ATOM      3  C   UNL     1      33.651 -20.961 -19.877  0.00  0.00    +0.016 C 
ATOM      4  C   UNL     1      36.041 -21.281 -19.745  0.00  0.00    +0.016 C 
ATOM      5  C   UNL     1      33.843 -19.882 -20.741  0.00  0.00    +0.021 C 
ATOM      6  C   UNL     1      36.233 -20.203 -20.609  0.00  0.00    +0.021 C 
ENDROOT
BRANCH   2   7
ATOM      7  S   UNL     1      35.374 -18.153 -22.187  0.00  0.00    +0.075 S 
ATOM      8  O   UNL     1      34.995 -18.583 -23.528  0.00  0.00    -0.150 OA
ATOM      9  O   UNL     1      36.713 -17.617 -21.973  0.00  0.00    -0.150 OA
BRANCH   7  10
ATOM     10  N   UNL     1      34.203 -17.013 -21.640  0.00  0.00    -0.199 N 
ATOM     11  H   UNL     1      33.549 -17.253 -20.945  0.00  0.00    +0.175 HD
ATOM     12  N   UNL     1      33.858 -15.643 -23.530  0.00  0.00    -0.228 NA
ATOM     13  C   UNL     1      34.209 -15.702 -22.230  0.00  0.00    +0.147 C 
ATOM     14  C   UNL     1      34.562 -14.611 -21.460  0.00  0.00    +0.036 C 
ATOM     15  C   UNL     1      34.553 -13.362 -22.071  0.00  0.00    +0.005 C 
ATOM     16  C   UNL     1      33.862 -14.413 -24.090  0.00  0.00    +0.100 C 
ATOM     17  C   UNL     1      34.197 -13.253 -23.411  0.00  0.00    +0.021 C 
ENDBRANCH   7  10
ENDBRANCH   2   7
BRANCH   1  18
ATOM     18  N   UNL     1      34.556 -22.751 -18.507  0.00  0.00    -0.328 N 
ATOM     19  H   UNL     1      35.120 -23.549 -18.630  0.00  0.00    +0.147 HD
BRANCH  18  20
ATOM     20  C   UNL     1      33.578 -22.767 -17.448  0.00  0.00    +0.127 C 
BRANCH  20  26
ATOM     21  S   UNL     1      31.061 -24.136 -15.256  0.00  0.00    -0.104 S 
ATOM     22  O   UNL     1      36.428 -22.364 -16.847  0.00  0.00    -0.210 OA
ATOM     23  N   UNL     1      36.081 -23.238 -14.716  0.00  0.00    -0.333 NA
ATOM     24  N   UNL     1      31.241 -25.008 -12.819  0.00  0.00    -0.262 NA
ATOM     25  C   UNL     1      33.817 -23.622 -15.019  0.00  0.00    +0.033 C 
ATOM     26  C   UNL     1      34.244 -23.099 -16.166  0.00  0.00    +0.092 C 
ATOM     27  C   UNL     1      35.006 -23.683 -14.155  0.00  0.00    +0.142 C 
ATOM     28  C   UNL     1      32.590 -24.080 -14.514  0.00  0.00    +0.114 C 
ATOM     29  C   UNL     1      35.706 -22.846 -15.985  0.00  0.00    +0.202 C 
ATOM     30  C   UNL     1      32.480 -24.584 -13.228  0.00  0.00    +0.069 C 
ATOM     31  C   UNL     1      34.846 -24.232 -12.781  0.00  0.00    +0.034 C 
ATOM     32  C   UNL     1      33.629 -24.649 -12.377  0.00  0.00    +0.018 C 
ATOM     33  C   UNL     1      30.404 -24.817 -13.817  0.00  0.00    +0.183 C 
ENDBRANCH  20  26
ENDBRANCH  18  20
ENDBRANCH   1  18
TORSDOF 5
ENDMDL
MODEL 7
REMARK VINA RESULT:     -11.1      2.048     10.160
REMARK  Name = 1712
REMARK  5 active torsions:
REMARK  status: ('A' for Active; 'I' for Inactive)
REMARK    1  A    between atoms: C_1  and  N_18
REMARK    2  A    between atoms: C_2  and  S_7
REMARK    3  A    between atoms: S_7  and  N_10
REMARK    4  A    between atoms: N_18  and  C_20
REMARK    5  A    between atoms: C_20  and  C_26
REMARK                            x       y       z     vdW  Elec       q    Type
REMARK                         _______ _______ _______ _____ _____    ______ ____
ROOT
ATOM      1  C   UNL     1      35.156 -21.942 -18.688  0.00  0.00    +0.045 C 
ATOM      2  C   UNL     1      35.425 -19.988 -20.694  0.00  0.00    +0.125 C 
ATOM      3  C   UNL     1      34.024 -21.409 -19.332  0.00  0.00    +0.016 C 
ATOM      4  C   UNL     1      36.425 -21.473 -19.071  0.00  0.00    +0.016 C 
ATOM      5  C   UNL     1      34.158 -20.441 -20.327  0.00  0.00    +0.021 C 
ATOM      6  C   UNL     1      36.559 -20.505 -20.066  0.00  0.00    +0.021 C 
ENDROOT
BRANCH   2   7
ATOM      7  S   UNL     1      35.592 -18.776 -21.938  0.00  0.00    +0.075 S 
ATOM      8  O   UNL     1      35.350 -19.420 -23.224  0.00  0.00    -0.150 OA
ATOM      9  O   UNL     1      36.850 -18.067 -21.734  0.00  0.00    -0.150 OA
BRANCH   7  10
ATOM     10  N   UNL     1      34.274 -17.714 -21.616  0.00  0.00    -0.199 N 
ATOM     11  H   UNL     1      33.473 -18.031 -21.140  0.00  0.00    +0.175 HD
ATOM     12  N   UNL     1      34.373 -16.172 -23.399  0.00  0.00    -0.228 NA
ATOM     13  C   UNL     1      34.378 -16.351 -22.064  0.00  0.00    +0.147 C 
ATOM     14  C   UNL     1      34.475 -15.335 -21.132  0.00  0.00    +0.036 C 
ATOM     15  C   UNL     1      34.574 -14.033 -21.610  0.00  0.00    +0.005 C 
ATOM     16  C   UNL     1      34.472 -14.893 -23.826  0.00  0.00    +0.100 C 
ATOM     17  C   UNL     1      34.572 -13.799 -22.981  0.00  0.00    +0.021 C 
ENDBRANCH   7  10
ENDBRANCH   2   7
BRANCH   1  18
ATOM     18  N   UNL     1      35.023 -22.906 -17.699  0.00  0.00    -0.328 N 
ATOM     19  H   UNL     1      35.813 -23.121 -17.152  0.00  0.00    +0.147 HD
BRANCH  18  20
ATOM     20  C   UNL     1      33.796 -23.612 -17.427  0.00  0.00    +0.127 C 
BRANCH  20  26
ATOM     21  S   UNL     1      30.338 -22.856 -16.731  0.00  0.00    -0.104 S 
ATOM     22  O   UNL     1      35.884 -24.325 -15.484  0.00  0.00    -0.210 OA
ATOM     23  N   UNL     1      34.322 -24.140 -13.767  0.00  0.00    -0.333 NA
ATOM     24  N   UNL     1      29.046 -22.793 -14.482  0.00  0.00    -0.262 NA
ATOM     25  C   UNL     1      32.560 -23.564 -15.156  0.00  0.00    +0.033 C 
ATOM     26  C   UNL     1      33.607 -23.727 -15.961  0.00  0.00    +0.092 C 
ATOM     27  C   UNL     1      33.067 -23.834 -13.801  0.00  0.00    +0.142 C 
ATOM     28  C   UNL     1      31.208 -23.222 -15.315  0.00  0.00    +0.114 C 
ATOM     29  C   UNL     1      34.753 -24.099 -15.077  0.00  0.00    +0.202 C 
ATOM     30  C   UNL     1      30.350 -23.135 -14.231  0.00  0.00    +0.069 C 
ATOM     31  C   UNL     1      32.114 -23.731 -12.663  0.00  0.00    +0.034 C 
ATOM     32  C   UNL     1      30.831 -23.395 -12.908  0.00  0.00    +0.018 C 
ATOM     33  C   UNL     1      28.922 -22.619 -15.781  0.00  0.00    +0.183 C 
ENDBRANCH  20  26
ENDBRANCH  18  20
ENDBRANCH   1  18
TORSDOF 5
ENDMDL
MODEL 8
REMARK VINA RESULT:     -11.1      2.626     10.684
REMARK  Name = 1712
REMARK  5 active torsions:
REMARK  status: ('A' for Active; 'I' for Inactive)
REMARK    1  A    between atoms: C_1  and  N_18
REMARK    2  A    between atoms: C_2  and  S_7
REMARK    3  A    between atoms: S_7  and  N_10
REMARK    4  A    between atoms: N_18  and  C_20
REMARK    5  A    between atoms: C_20  and  C_26
REMARK                            x       y       z     vdW  Elec       q    Type
REMARK                         _______ _______ _______ _____ _____    ______ ____
ROOT
ATOM      1  C   UNL     1      34.917 -21.497 -19.401  0.00  0.00    +0.045 C 
ATOM      2  C   UNL     1      35.228 -19.369 -21.215  0.00  0.00    +0.125 C 
ATOM      3  C   UNL     1      36.197 -21.026 -19.747  0.00  0.00    +0.016 C 
ATOM      4  C   UNL     1      33.797 -20.879 -19.986  0.00  0.00    +0.016 C 
ATOM      5  C   UNL     1      36.351 -19.970 -20.645  0.00  0.00    +0.021 C 
ATOM      6  C   UNL     1      33.951 -19.824 -20.885  0.00  0.00    +0.021 C 
ENDROOT
BRANCH   2   7
ATOM      7  S   UNL     1      35.421 -18.049 -22.340  0.00  0.00    +0.075 S 
ATOM      8  O   UNL     1      35.054 -18.536 -23.665  0.00  0.00    -0.150 OA
ATOM      9  O   UNL     1      36.741 -17.461 -22.148  0.00  0.00    -0.150 OA
BRANCH   7  10
ATOM     10  N   UNL     1      34.213 -16.931 -21.828  0.00  0.00    -0.199 N 
ATOM     11  H   UNL     1      33.555 -17.177 -21.140  0.00  0.00    +0.175 HD
ATOM     12  N   UNL     1      33.865 -15.596 -23.742  0.00  0.00    -0.228 NA
ATOM     13  C   UNL     1      34.197 -15.628 -22.437  0.00  0.00    +0.147 C 
ATOM     14  C   UNL     1      34.510 -14.518 -21.676  0.00  0.00    +0.036 C 
ATOM     15  C   UNL     1      34.480 -13.279 -22.306  0.00  0.00    +0.005 C 
ATOM     16  C   UNL     1      33.848 -14.374 -24.321  0.00  0.00    +0.100 C 
ATOM     17  C   UNL     1      34.144 -13.197 -23.653  0.00  0.00    +0.021 C 
ENDBRANCH   7  10
ENDBRANCH   2   7
BRANCH   1  18
ATOM     18  N   UNL     1      34.764 -22.546 -18.507  0.00  0.00    -0.328 N 
ATOM     19  H   UNL     1      34.189 -23.301 -18.771  0.00  0.00    +0.147 HD
BRANCH  18  20
ATOM     20  C   UNL     1      35.394 -22.594 -17.211  0.00  0.00    +0.127 C 
BRANCH  20  26
ATOM     21  S   UNL     1      37.256 -23.387 -14.224  0.00  0.00    -0.104 S 
ATOM     22  O   UNL     1      32.497 -22.876 -17.626  0.00  0.00    -0.210 OA
ATOM     23  N   UNL     1      32.284 -23.680 -15.450  0.00  0.00    -0.333 NA
ATOM     24  N   UNL     1      36.458 -24.319 -11.939  0.00  0.00    -0.262 NA
ATOM     25  C   UNL     1      34.542 -23.525 -14.954  0.00  0.00    +0.033 C 
ATOM     26  C   UNL     1      34.424 -23.095 -16.208  0.00  0.00    +0.092 C 
ATOM     27  C   UNL     1      33.175 -23.875 -14.535  0.00  0.00    +0.142 C 
ATOM     28  C   UNL     1      35.593 -23.696 -14.040  0.00  0.00    +0.114 C 
ATOM     29  C   UNL     1      32.971 -23.191 -16.543  0.00  0.00    +0.202 C 
ATOM     30  C   UNL     1      35.370 -24.184 -12.763  0.00  0.00    +0.069 C 
ATOM     31  C   UNL     1      32.978 -24.396 -13.156  0.00  0.00    +0.034 C 
ATOM     32  C   UNL     1      34.045 -24.529 -12.343  0.00  0.00    +0.018 C 
ATOM     33  C   UNL     1      37.519 -23.925 -12.610  0.00  0.00    +0.183 C 
ENDBRANCH  20  26
ENDBRANCH  18  20
ENDBRANCH   1  18
TORSDOF 5
ENDMDL
MODEL 9
REMARK VINA RESULT:     -11.0      1.985     10.586
REMARK  Name = 1712
REMARK  5 active torsions:
REMARK  status: ('A' for Active; 'I' for Inactive)
REMARK    1  A    between atoms: C_1  and  N_18
REMARK    2  A    between atoms: C_2  and  S_7
REMARK    3  A    between atoms: S_7  and  N_10
REMARK    4  A    between atoms: N_18  and  C_20
REMARK    5  A    between atoms: C_20  and  C_26
REMARK                            x       y       z     vdW  Elec       q    Type
REMARK                         _______ _______ _______ _____ _____    ______ ____
ROOT
ATOM      1  C   UNL     1      34.615 -21.557 -19.277  0.00  0.00    +0.045 C 
ATOM      2  C   UNL     1      35.111 -19.444 -21.068  0.00  0.00    +0.125 C 
ATOM      3  C   UNL     1      35.931 -21.168 -19.587  0.00  0.00    +0.016 C 
ATOM      4  C   UNL     1      33.553 -20.864 -19.886  0.00  0.00    +0.016 C 
ATOM      5  C   UNL     1      36.177 -20.120 -20.474  0.00  0.00    +0.021 C 
ATOM      6  C   UNL     1      33.799 -19.816 -20.774  0.00  0.00    +0.021 C 
ENDROOT
BRANCH   2   7
ATOM      7  S   UNL     1      35.418 -18.134 -22.179  0.00  0.00    +0.075 S 
ATOM      8  O   UNL     1      35.125 -18.613 -23.525  0.00  0.00    -0.150 OA
ATOM      9  O   UNL     1      36.741 -17.587 -21.901  0.00  0.00    -0.150 OA
BRANCH   7  10
ATOM     10  N   UNL     1      34.215 -16.978 -21.749  0.00  0.00    -0.199 N 
ATOM     11  H   UNL     1      33.539 -17.182 -21.064  0.00  0.00    +0.175 HD
ATOM     12  N   UNL     1      33.924 -15.736 -23.733  0.00  0.00    -0.228 NA
ATOM     13  C   UNL     1      34.228 -15.706 -22.422  0.00  0.00    +0.147 C 
ATOM     14  C   UNL     1      34.539 -14.564 -21.710  0.00  0.00    +0.036 C 
ATOM     15  C   UNL     1      34.539 -13.357 -22.400  0.00  0.00    +0.005 C 
ATOM     16  C   UNL     1      33.934 -14.544 -24.371  0.00  0.00    +0.100 C 
ATOM     17  C   UNL     1      34.232 -13.339 -23.756  0.00  0.00    +0.021 C 
ENDBRANCH   7  10
ENDBRANCH   2   7
BRANCH   1  18
ATOM     18  N   UNL     1      34.370 -22.598 -18.394  0.00  0.00    -0.328 N 
ATOM     19  H   UNL     1      35.088 -23.255 -18.241  0.00  0.00    +0.147 HD
BRANCH  18  20
ATOM     20  C   UNL     1      33.125 -22.776 -17.689  0.00  0.00    +0.127 C 
BRANCH  20  26
ATOM     21  S   UNL     1      29.970 -23.853 -16.310  0.00  0.00    -0.104 S 
ATOM     22  O   UNL     1      35.765 -22.912 -16.402  0.00  0.00    -0.210 OA
ATOM     23  N   UNL     1      34.778 -23.870 -14.523  0.00  0.00    -0.333 NA
ATOM     24  N   UNL     1      29.412 -24.921 -14.013  0.00  0.00    -0.262 NA
ATOM     25  C   UNL     1      32.627 -23.837 -15.384  0.00  0.00    +0.033 C 
ATOM     26  C   UNL     1      33.397 -23.312 -16.334  0.00  0.00    +0.092 C 
ATOM     27  C   UNL     1      33.544 -24.165 -14.280  0.00  0.00    +0.142 C 
ATOM     28  C   UNL     1      31.260 -24.114 -15.232  0.00  0.00    +0.114 C 
ATOM     29  C   UNL     1      34.790 -23.326 -15.791  0.00  0.00    +0.202 C 
ATOM     30  C   UNL     1      30.762 -24.686 -14.072  0.00  0.00    +0.069 C 
ATOM     31  C   UNL     1      32.970 -24.779 -13.053  0.00  0.00    +0.034 C 
ATOM     32  C   UNL     1      31.643 -25.010 -12.991  0.00  0.00    +0.018 C 
ATOM     33  C   UNL     1      28.885 -24.516 -15.149  0.00  0.00    +0.183 C 
ENDBRANCH  20  26
ENDBRANCH  18  20
ENDBRANCH   1  18
TORSDOF 5
ENDMDL
