MODEL 1
REMARK VINA RESULT:     -12.1      0.000      0.000
REMARK  Name = 49831257
REMARK  4 active torsions:
REMARK  status: ('A' for Active; 'I' for Inactive)
REMARK    1  A    between atoms: C_1  and  C_23
REMARK    2  A    between atoms: C_4  and  C_14
REMARK    3  A    between atoms: C_12  and  C_20
REMARK    4  A    between atoms: C_23  and  N_27
REMARK                            x       y       z     vdW  Elec       q    Type
REMARK                         _______ _______ _______ _____ _____    ______ ____
ROOT
ATOM      1  C   UNL     1      35.991 -19.055 -21.457  0.00  0.00    -0.043 C 
ATOM      2  C   UNL     1      35.853 -17.768 -20.938  0.00  0.00    -0.006 C 
ATOM      3  C   UNL     1      35.590 -19.327 -22.765  0.00  0.00    -0.006 C 
ATOM      4  C   UNL     1      34.910 -17.024 -23.034  0.00  0.00    +0.016 C 
ATOM      5  C   UNL     1      35.312 -16.753 -21.726  0.00  0.00    +0.001 C 
ATOM      6  C   UNL     1      35.049 -18.312 -23.554  0.00  0.00    +0.001 C 
ENDROOT
BRANCH   4  14
ATOM      7  O   UNL     1      31.198 -10.858 -21.841  0.00  0.00    -0.274 OA
ATOM      8  N   UNL     1      32.275 -12.757 -20.948  0.00  0.00    -0.217 N 
ATOM      9  N   UNL     1      33.651 -14.858 -23.301  0.00  0.00    -0.152 N 
ATOM     10  N   UNL     1      33.417 -14.579 -21.990  0.00  0.00    -0.092 NA
ATOM     11  N   UNL     1      32.513 -12.943 -23.302  0.00  0.00    -0.319 NA
ATOM     12  C   UNL     1      31.557 -11.549 -20.897  0.00  0.00    +0.234 C 
ATOM     13  C   UNL     1      32.737 -13.436 -22.055  0.00  0.00    +0.167 C 
ATOM     14  C   UNL     1      34.337 -15.952 -23.867  0.00  0.00    +0.077 C 
ATOM     15  C   UNL     1      33.088 -13.835 -24.077  0.00  0.00    +0.219 C 
ATOM     16  C   UNL     1      34.453 -16.011 -25.211  0.00  0.00    +0.017 C 
ATOM     17  C   UNL     1      33.224 -13.919 -25.489  0.00  0.00    +0.051 C 
ATOM     18  C   UNL     1      33.879 -14.960 -26.033  0.00  0.00    +0.005 C 
ATOM     19  H   UNL     1      32.476 -13.172 -20.078  0.00  0.00    +0.167 HD
BRANCH  12  20
ATOM     20  C   UNL     1      31.212 -11.094 -19.513  0.00  0.00    +0.077 C 
ATOM     21  C   UNL     1      31.165  -9.623 -19.220  0.00  0.00    +0.010 C 
ATOM     22  C   UNL     1      32.277 -10.463 -18.664  0.00  0.00    +0.010 C 
ENDBRANCH  12  20
ENDBRANCH   4  14
BRANCH   1  23
ATOM     23  C   UNL     1      36.577 -20.152 -20.607  0.00  0.00    -0.050 C 
BRANCH  23  27
ATOM     24  S   UNL     1      33.646 -22.663 -18.264  0.00  0.00    -0.014 S 
ATOM     25  O   UNL     1      32.800 -22.670 -17.087  0.00  0.00    -0.173 OA
ATOM     26  O   UNL     1      33.706 -23.810 -19.149  0.00  0.00    -0.173 OA
ATOM     27  N   UNL     1      35.620 -20.635 -19.607  0.00  0.00    +0.392 N 
ATOM     28  C   UNL     1      36.161 -21.827 -18.932  0.00  0.00    -0.051 C 
ATOM     29  C   UNL     1      34.323 -20.909 -20.248  0.00  0.00    -0.051 C 
ATOM     30  C   UNL     1      33.234 -21.231 -19.231  0.00  0.00    +0.128 C 
ATOM     31  C   UNL     1      35.299 -22.263 -17.752  0.00  0.00    +0.128 C 
ATOM     32  H   UNL     1      35.470 -19.918 -18.897  0.00  0.00    -0.079 HD
ENDBRANCH  23  27
ENDBRANCH   1  23
TORSDOF 4
ENDMDL
MODEL 2
REMARK VINA RESULT:     -11.4      3.992      9.803
REMARK  Name = 49831257
REMARK  4 active torsions:
REMARK  status: ('A' for Active; 'I' for Inactive)
REMARK    1  A    between atoms: C_1  and  C_23
REMARK    2  A    between atoms: C_4  and  C_14
REMARK    3  A    between atoms: C_12  and  C_20
REMARK    4  A    between atoms: C_23  and  N_27
REMARK                            x       y       z     vdW  Elec       q    Type
REMARK                         _______ _______ _______ _____ _____    ______ ____
ROOT
ATOM      1  C   UNL     1      35.048 -20.020 -21.241  0.00  0.00    -0.043 C 
ATOM      2  C   UNL     1      33.831 -20.387 -20.668  0.00  0.00    -0.006 C 
ATOM      3  C   UNL     1      36.246 -20.375 -20.620  0.00  0.00    -0.006 C 
ATOM      4  C   UNL     1      35.009 -21.463 -18.854  0.00  0.00    +0.016 C 
ATOM      5  C   UNL     1      33.811 -21.108 -19.474  0.00  0.00    +0.001 C 
ATOM      6  C   UNL     1      36.227 -21.096 -19.427  0.00  0.00    +0.001 C 
ENDROOT
BRANCH   4  14
ATOM      7  O   UNL     1      29.881 -24.344 -14.536  0.00  0.00    -0.274 OA
ATOM      8  N   UNL     1      30.413 -23.154 -16.502  0.00  0.00    -0.217 N 
ATOM      9  N   UNL     1      33.781 -22.645 -16.998  0.00  0.00    -0.152 N 
ATOM     10  N   UNL     1      32.504 -22.473 -17.437  0.00  0.00    -0.092 NA
ATOM     11  N   UNL     1      32.495 -23.626 -15.466  0.00  0.00    -0.319 NA
ATOM     12  C   UNL     1      29.560 -23.762 -15.563  0.00  0.00    +0.234 C 
ATOM     13  C   UNL     1      31.790 -23.073 -16.487  0.00  0.00    +0.167 C 
ATOM     14  C   UNL     1      34.988 -22.224 -17.592  0.00  0.00    +0.077 C 
ATOM     15  C   UNL     1      33.740 -23.358 -15.792  0.00  0.00    +0.219 C 
ATOM     16  C   UNL     1      36.149 -22.523 -16.969  0.00  0.00    +0.017 C 
ATOM     17  C   UNL     1      34.974 -23.662 -15.156  0.00  0.00    +0.051 C 
ATOM     18  C   UNL     1      36.128 -23.263 -15.719  0.00  0.00    +0.005 C 
ATOM     19  H   UNL     1      29.969 -22.731 -17.273  0.00  0.00    +0.167 HD
BRANCH  12  20
ATOM     20  C   UNL     1      28.104 -23.661 -15.896  0.00  0.00    +0.077 C 
ATOM     21  C   UNL     1      27.649 -22.608 -16.864  0.00  0.00    +0.010 C 
ATOM     22  C   UNL     1      27.322 -22.478 -15.404  0.00  0.00    +0.010 C 
ENDBRANCH  12  20
ENDBRANCH   4  14
BRANCH   1  23
ATOM     23  C   UNL     1      35.070 -19.243 -22.530  0.00  0.00    -0.050 C 
BRANCH  23  27
ATOM     24  S   UNL     1      34.422 -14.801 -22.047  0.00  0.00    -0.014 S 
ATOM     25  O   UNL     1      35.096 -13.553 -21.750  0.00  0.00    -0.173 OA
ATOM     26  O   UNL     1      32.999 -14.836 -22.321  0.00  0.00    -0.173 OA
ATOM     27  N   UNL     1      35.263 -17.809 -22.298  0.00  0.00    +0.392 N 
ATOM     28  C   UNL     1      34.464 -17.378 -21.137  0.00  0.00    -0.051 C 
ATOM     29  C   UNL     1      34.913 -17.055 -23.514  0.00  0.00    -0.051 C 
ATOM     30  C   UNL     1      35.272 -15.578 -23.400  0.00  0.00    +0.128 C 
ATOM     31  C   UNL     1      34.769 -15.941 -20.729  0.00  0.00    +0.128 C 
ATOM     32  H   UNL     1      36.242 -17.621 -22.087  0.00  0.00    -0.079 HD
ENDBRANCH  23  27
ENDBRANCH   1  23
TORSDOF 4
ENDMDL
MODEL 3
REMARK VINA RESULT:     -11.3      4.207     11.099
REMARK  Name = 49831257
REMARK  4 active torsions:
REMARK  status: ('A' for Active; 'I' for Inactive)
REMARK    1  A    between atoms: C_1  and  C_23
REMARK    2  A    between atoms: C_4  and  C_14
REMARK    3  A    between atoms: C_12  and  C_20
REMARK    4  A    between atoms: C_23  and  N_27
REMARK                            x       y       z     vdW  Elec       q    Type
REMARK                         _______ _______ _______ _____ _____    ______ ____
ROOT
ATOM      1  C   UNL     1      35.275 -20.280 -20.727  0.00  0.00    -0.043 C 
ATOM      2  C   UNL     1      33.900 -20.336 -20.501  0.00  0.00    -0.006 C 
ATOM      3  C   UNL     1      36.151 -20.949 -19.871  0.00  0.00    -0.006 C 
ATOM      4  C   UNL     1      34.276 -21.730 -18.564  0.00  0.00    +0.016 C 
ATOM      5  C   UNL     1      33.400 -21.061 -19.420  0.00  0.00    +0.001 C 
ATOM      6  C   UNL     1      35.651 -21.674 -18.789  0.00  0.00    +0.001 C 
ENDROOT
BRANCH   4  14
ATOM      7  O   UNL     1      37.117 -25.492 -12.996  0.00  0.00    -0.274 OA
ATOM      8  N   UNL     1      37.476 -24.177 -14.921  0.00  0.00    -0.217 N 
ATOM      9  N   UNL     1      34.600 -23.127 -16.492  0.00  0.00    -0.152 N 
ATOM     10  N   UNL     1      35.960 -23.142 -16.450  0.00  0.00    -0.092 NA
ATOM     11  N   UNL     1      35.120 -24.346 -14.701  0.00  0.00    -0.319 NA
ATOM     12  C   UNL     1      37.854 -24.938 -13.800  0.00  0.00    +0.234 C 
ATOM     13  C   UNL     1      36.207 -23.881 -15.370  0.00  0.00    +0.167 C 
ATOM     14  C   UNL     1      33.748 -22.494 -17.420  0.00  0.00    +0.077 C 
ATOM     15  C   UNL     1      34.117 -23.869 -15.406  0.00  0.00    +0.219 C 
ATOM     16  C   UNL     1      32.413 -22.612 -17.249  0.00  0.00    +0.017 C 
ATOM     17  C   UNL     1      32.709 -23.978 -15.247  0.00  0.00    +0.051 C 
ATOM     18  C   UNL     1      31.893 -23.375 -16.128  0.00  0.00    +0.005 C 
ATOM     19  H   UNL     1      38.216 -23.807 -15.455  0.00  0.00    +0.167 HD
BRANCH  12  20
ATOM     20  C   UNL     1      39.334 -25.059 -13.606  0.00  0.00    +0.077 C 
ATOM     21  C   UNL     1      40.226 -25.098 -14.812  0.00  0.00    +0.010 C 
ATOM     22  C   UNL     1      40.019 -26.338 -13.990  0.00  0.00    +0.010 C 
ENDBRANCH  12  20
ENDBRANCH   4  14
BRANCH   1  23
ATOM     23  C   UNL     1      35.816 -19.499 -21.896  0.00  0.00    -0.050 C 
BRANCH  23  27
ATOM     24  S   UNL     1      34.381 -15.354 -22.970  0.00  0.00    -0.014 S 
ATOM     25  O   UNL     1      33.192 -14.554 -23.184  0.00  0.00    -0.173 OA
ATOM     26  O   UNL     1      35.705 -14.779 -23.107  0.00  0.00    -0.173 OA
ATOM     27  N   UNL     1      34.983 -18.332 -22.202  0.00  0.00    +0.392 N 
ATOM     28  C   UNL     1      35.249 -17.874 -23.577  0.00  0.00    -0.051 C 
ATOM     29  C   UNL     1      35.231 -17.269 -21.213  0.00  0.00    -0.051 C 
ATOM     30  C   UNL     1      34.260 -16.104 -21.363  0.00  0.00    +0.128 C 
ATOM     31  C   UNL     1      34.280 -16.784 -24.019  0.00  0.00    +0.128 C 
ATOM     32  H   UNL     1      33.997 -18.585 -22.145  0.00  0.00    -0.079 HD
ENDBRANCH  23  27
ENDBRANCH   1  23
TORSDOF 4
ENDMDL
MODEL 4
REMARK VINA RESULT:     -11.2      4.638     11.104
REMARK  Name = 49831257
REMARK  4 active torsions:
REMARK  status: ('A' for Active; 'I' for Inactive)
REMARK    1  A    between atoms: C_1  and  C_23
REMARK    2  A    between atoms: C_4  and  C_14
REMARK    3  A    between atoms: C_12  and  C_20
REMARK    4  A    between atoms: C_23  and  N_27
REMARK                            x       y       z     vdW  Elec       q    Type
REMARK                         _______ _______ _______ _____ _____    ______ ____
ROOT
ATOM      1  C   UNL     1      34.982 -20.904 -20.008  0.00  0.00    -0.043 C 
ATOM      2  C   UNL     1      35.617 -21.667 -19.029  0.00  0.00    -0.006 C 
ATOM      3  C   UNL     1      33.600 -20.722 -19.963  0.00  0.00    -0.006 C 
ATOM      4  C   UNL     1      33.488 -22.066 -17.959  0.00  0.00    +0.016 C 
ATOM      5  C   UNL     1      34.870 -22.249 -18.005  0.00  0.00    +0.001 C 
ATOM      6  C   UNL     1      32.852 -21.303 -18.939  0.00  0.00    +0.001 C 
ENDROOT
BRANCH   4  14
ATOM      7  O   UNL     1      34.916 -25.087 -11.473  0.00  0.00    -0.274 OA
ATOM      8  N   UNL     1      35.731 -24.026 -13.416  0.00  0.00    -0.217 N 
ATOM      9  N   UNL     1      33.306 -23.189 -15.711  0.00  0.00    -0.152 N 
ATOM     10  N   UNL     1      34.621 -23.196 -15.363  0.00  0.00    -0.092 NA
ATOM     11  N   UNL     1      33.381 -24.171 -13.713  0.00  0.00    -0.319 NA
ATOM     12  C   UNL     1      35.829 -24.638 -12.153  0.00  0.00    +0.234 C 
ATOM     13  C   UNL     1      34.602 -23.792 -14.172  0.00  0.00    +0.167 C 
ATOM     14  C   UNL     1      32.699 -22.681 -16.878  0.00  0.00    +0.077 C 
ATOM     15  C   UNL     1      32.574 -23.790 -14.678  0.00  0.00    +0.219 C 
ATOM     16  C   UNL     1      31.357 -22.780 -16.998  0.00  0.00    +0.017 C 
ATOM     17  C   UNL     1      31.163 -23.881 -14.827  0.00  0.00    +0.051 C 
ATOM     18  C   UNL     1      30.580 -23.397 -15.937  0.00  0.00    +0.005 C 
ATOM     19  H   UNL     1      36.580 -23.724 -13.812  0.00  0.00    +0.167 HD
BRANCH  12  20
ATOM     20  C   UNL     1      37.224 -24.729 -11.618  0.00  0.00    +0.077 C 
ATOM     21  C   UNL     1      38.379 -24.562 -12.562  0.00  0.00    +0.010 C 
ATOM     22  C   UNL     1      38.071 -25.913 -11.984  0.00  0.00    +0.010 C 
ENDBRANCH  12  20
ENDBRANCH   4  14
BRANCH   1  23
ATOM     23  C   UNL     1      35.788 -20.275 -21.113  0.00  0.00    -0.050 C 
BRANCH  23  27
ATOM     24  S   UNL     1      34.867 -16.347 -23.142  0.00  0.00    -0.014 S 
ATOM     25  O   UNL     1      33.784 -15.477 -23.553  0.00  0.00    -0.173 OA
ATOM     26  O   UNL     1      36.250 -15.989 -23.389  0.00  0.00    -0.173 OA
ATOM     27  N   UNL     1      35.104 -19.116 -21.694  0.00  0.00    +0.392 N 
ATOM     28  C   UNL     1      35.404 -19.027 -23.134  0.00  0.00    -0.051 C 
ATOM     29  C   UNL     1      35.497 -17.892 -20.976  0.00  0.00    -0.051 C 
ATOM     30  C   UNL     1      34.676 -16.682 -21.407  0.00  0.00    +0.128 C 
ATOM     31  C   UNL     1      34.572 -17.958 -23.832  0.00  0.00    +0.128 C 
ATOM     32  H   UNL     1      34.095 -19.224 -21.594  0.00  0.00    -0.079 HD
ENDBRANCH  23  27
ENDBRANCH   1  23
TORSDOF 4
ENDMDL
MODEL 5
REMARK VINA RESULT:     -10.3      4.435      9.939
REMARK  Name = 49831257
REMARK  4 active torsions:
REMARK  status: ('A' for Active; 'I' for Inactive)
REMARK    1  A    between atoms: C_1  and  C_23
REMARK    2  A    between atoms: C_4  and  C_14
REMARK    3  A    between atoms: C_12  and  C_20
REMARK    4  A    between atoms: C_23  and  N_27
REMARK                            x       y       z     vdW  Elec       q    Type
REMARK                         _______ _______ _______ _____ _____    ______ ____
ROOT
ATOM      1  C   UNL     1      35.782 -20.839 -20.201  0.00  0.00    -0.043 C 
ATOM      2  C   UNL     1      34.427 -21.093 -19.989  0.00  0.00    -0.006 C 
ATOM      3  C   UNL     1      36.722 -21.226 -19.246  0.00  0.00    -0.006 C 
ATOM      4  C   UNL     1      34.952 -22.121 -17.867  0.00  0.00    +0.016 C 
ATOM      5  C   UNL     1      34.012 -21.733 -18.822  0.00  0.00    +0.001 C 
ATOM      6  C   UNL     1      36.308 -21.867 -18.078  0.00  0.00    +0.001 C 
ENDROOT
BRANCH   4  14
ATOM      7  O   UNL     1      28.559 -23.940 -14.858  0.00  0.00    -0.274 OA
ATOM      8  N   UNL     1      29.722 -22.959 -16.661  0.00  0.00    -0.217 N 
ATOM      9  N   UNL     1      33.149 -22.995 -16.340  0.00  0.00    -0.152 N 
ATOM     10  N   UNL     1      32.056 -22.657 -17.076  0.00  0.00    -0.092 NA
ATOM     11  N   UNL     1      31.399 -23.681 -15.144  0.00  0.00    -0.319 NA
ATOM     12  C   UNL     1      28.586 -23.376 -15.944  0.00  0.00    +0.234 C 
ATOM     13  C   UNL     1      31.051 -23.086 -16.315  0.00  0.00    +0.167 C 
ATOM     14  C   UNL     1      34.513 -22.796 -16.633  0.00  0.00    +0.077 C 
ATOM     15  C   UNL     1      32.712 -23.623 -15.165  0.00  0.00    +0.219 C 
ATOM     16  C   UNL     1      35.431 -23.231 -15.743  0.00  0.00    +0.017 C 
ATOM     17  C   UNL     1      33.696 -24.073 -14.244  0.00  0.00    +0.051 C 
ATOM     18  C   UNL     1      34.999 -23.886 -14.520  0.00  0.00    +0.005 C 
ATOM     19  H   UNL     1      29.545 -22.519 -17.524  0.00  0.00    +0.167 HD
BRANCH  12  20
ATOM     20  C   UNL     1      27.285 -23.075 -16.620  0.00  0.00    +0.077 C 
ATOM     21  C   UNL     1      27.099 -21.742 -17.283  0.00  0.00    +0.010 C 
ATOM     22  C   UNL     1      26.364 -22.057 -16.013  0.00  0.00    +0.010 C 
ENDBRANCH  12  20
ENDBRANCH   4  14
BRANCH   1  23
ATOM     23  C   UNL     1      36.231 -20.149 -21.462  0.00  0.00    -0.050 C 
BRANCH  23  27
ATOM     24  S   UNL     1      34.757 -16.091 -22.784  0.00  0.00    -0.014 S 
ATOM     25  O   UNL     1      33.570 -15.271 -22.914  0.00  0.00    -0.173 OA
ATOM     26  O   UNL     1      36.060 -15.589 -23.175  0.00  0.00    -0.173 OA
ATOM     27  N   UNL     1      35.392 -18.989 -21.776  0.00  0.00    +0.392 N 
ATOM     28  C   UNL     1      35.462 -18.696 -23.218  0.00  0.00    -0.051 C 
ATOM     29  C   UNL     1      35.810 -17.835 -20.961  0.00  0.00    -0.051 C 
ATOM     30  C   UNL     1      34.856 -16.655 -21.102  0.00  0.00    +0.128 C 
ATOM     31  C   UNL     1      34.466 -17.621 -23.638  0.00  0.00    +0.128 C 
ATOM     32  H   UNL     1      34.419 -19.194 -21.549  0.00  0.00    -0.079 HD
ENDBRANCH  23  27
ENDBRANCH   1  23
TORSDOF 4
ENDMDL
MODEL 6
REMARK VINA RESULT:     -10.2      4.141      6.439
REMARK  Name = 49831257
REMARK  4 active torsions:
REMARK  status: ('A' for Active; 'I' for Inactive)
REMARK    1  A    between atoms: C_1  and  C_23
REMARK    2  A    between atoms: C_4  and  C_14
REMARK    3  A    between atoms: C_12  and  C_20
REMARK    4  A    between atoms: C_23  and  N_27
REMARK                            x       y       z     vdW  Elec       q    Type
REMARK                         _______ _______ _______ _____ _____    ______ ____
ROOT
ATOM      1  C   UNL     1      33.722 -14.356 -23.267  0.00  0.00    -0.043 C 
ATOM      2  C   UNL     1      33.949 -13.074 -23.766  0.00  0.00    -0.006 C 
ATOM      3  C   UNL     1      33.050 -14.524 -22.055  0.00  0.00    -0.006 C 
ATOM      4  C   UNL     1      32.834 -12.127 -21.842  0.00  0.00    +0.016 C 
ATOM      5  C   UNL     1      33.506 -11.959 -23.054  0.00  0.00    +0.001 C 
ATOM      6  C   UNL     1      32.607 -13.410 -21.343  0.00  0.00    +0.001 C 
ENDROOT
BRANCH   4  14
ATOM      7  O   UNL     1      32.040  -5.001 -23.190  0.00  0.00    -0.274 OA
ATOM      8  N   UNL     1      32.666  -7.135 -23.976  0.00  0.00    -0.217 N 
ATOM      9  N   UNL     1      32.340  -9.663 -21.664  0.00  0.00    -0.152 N 
ATOM     10  N   UNL     1      32.685  -9.279 -22.923  0.00  0.00    -0.092 NA
ATOM     11  N   UNL     1      31.985  -7.465 -21.727  0.00  0.00    -0.319 NA
ATOM     12  C   UNL     1      32.456  -5.747 -24.066  0.00  0.00    +0.234 C 
ATOM     13  C   UNL     1      32.456  -7.968 -22.898  0.00  0.00    +0.167 C 
ATOM     14  C   UNL     1      32.367 -10.951 -21.089  0.00  0.00    +0.077 C 
ATOM     15  C   UNL     1      31.912  -8.529 -20.960  0.00  0.00    +0.219 C 
ATOM     16  C   UNL     1      31.963 -11.090 -19.808  0.00  0.00    +0.017 C 
ATOM     17  C   UNL     1      31.490  -8.702 -19.613  0.00  0.00    +0.051 C 
ATOM     18  C   UNL     1      31.513  -9.928 -19.062  0.00  0.00    +0.005 C 
ATOM     19  H   UNL     1      33.008  -7.569 -24.792  0.00  0.00    +0.167 HD
BRANCH  12  20
ATOM     20  C   UNL     1      32.792  -5.156 -25.399  0.00  0.00    +0.077 C 
ATOM     21  C   UNL     1      34.224  -5.140 -25.849  0.00  0.00    +0.010 C 
ATOM     22  C   UNL     1      33.546  -3.860 -25.456  0.00  0.00    +0.010 C 
ENDBRANCH  12  20
ENDBRANCH   4  14
BRANCH   1  23
ATOM     23  C   UNL     1      34.198 -15.559 -24.036  0.00  0.00    -0.050 C 
BRANCH  23  27
ATOM     24  S   UNL     1      35.954 -18.980 -21.668  0.00  0.00    -0.014 S 
ATOM     25  O   UNL     1      35.616 -20.074 -20.781  0.00  0.00    -0.173 OA
ATOM     26  O   UNL     1      37.328 -18.730 -22.059  0.00  0.00    -0.173 OA
ATOM     27  N   UNL     1      34.375 -16.726 -23.167  0.00  0.00    +0.392 N 
ATOM     28  C   UNL     1      35.222 -16.369 -22.016  0.00  0.00    -0.051 C 
ATOM     29  C   UNL     1      34.943 -17.843 -23.940  0.00  0.00    -0.051 C 
ATOM     30  C   UNL     1      34.973 -19.141 -23.141  0.00  0.00    +0.128 C 
ATOM     31  C   UNL     1      35.286 -17.484 -20.979  0.00  0.00    +0.128 C 
ATOM     32  H   UNL     1      33.471 -17.027 -22.804  0.00  0.00    -0.079 HD
ENDBRANCH  23  27
ENDBRANCH   1  23
TORSDOF 4
ENDMDL
MODEL 7
REMARK VINA RESULT:     -10.0      8.177     13.320
REMARK  Name = 49831257
REMARK  4 active torsions:
REMARK  status: ('A' for Active; 'I' for Inactive)
REMARK    1  A    between atoms: C_1  and  C_23
REMARK    2  A    between atoms: C_4  and  C_14
REMARK    3  A    between atoms: C_12  and  C_20
REMARK    4  A    between atoms: C_23  and  N_27
REMARK                            x       y       z     vdW  Elec       q    Type
REMARK                         _______ _______ _______ _____ _____    ______ ____
ROOT
ATOM      1  C   UNL     1      34.766  -5.017 -26.247  0.00  0.00    -0.043 C 
ATOM      2  C   UNL     1      33.433  -4.705 -25.979  0.00  0.00    -0.006 C 
ATOM      3  C   UNL     1      35.485  -5.819 -25.360  0.00  0.00    -0.006 C 
ATOM      4  C   UNL     1      33.540  -5.993 -23.939  0.00  0.00    +0.016 C 
ATOM      5  C   UNL     1      32.820  -5.192 -24.825  0.00  0.00    +0.001 C 
ATOM      6  C   UNL     1      34.873  -6.307 -24.206  0.00  0.00    +0.001 C 
ENDROOT
BRANCH   4  14
ATOM      7  O   UNL     1      32.074 -12.570 -21.140  0.00  0.00    -0.274 OA
ATOM      8  N   UNL     1      33.020 -11.297 -22.886  0.00  0.00    -0.217 N 
ATOM      9  N   UNL     1      32.765  -7.890 -22.472  0.00  0.00    -0.152 N 
ATOM     10  N   UNL     1      33.191  -8.938 -23.228  0.00  0.00    -0.092 NA
ATOM     11  N   UNL     1      32.159  -9.712 -21.343  0.00  0.00    -0.319 NA
ATOM     12  C   UNL     1      32.660 -12.477 -22.210  0.00  0.00    +0.234 C 
ATOM     13  C   UNL     1      32.801  -9.989 -22.509  0.00  0.00    +0.167 C 
ATOM     14  C   UNL     1      32.894  -6.507 -22.719  0.00  0.00    +0.077 C 
ATOM     15  C   UNL     1      32.141  -8.398 -21.324  0.00  0.00    +0.219 C 
ATOM     16  C   UNL     1      32.395  -5.644 -21.808  0.00  0.00    +0.017 C 
ATOM     17  C   UNL     1      31.625  -7.470 -20.380  0.00  0.00    +0.051 C 
ATOM     18  C   UNL     1      31.747  -6.151 -20.610  0.00  0.00    +0.005 C 
ATOM     19  H   UNL     1      33.491 -11.422 -23.742  0.00  0.00    +0.167 HD
BRANCH  12  20
ATOM     20  C   UNL     1      33.057 -13.737 -22.913  0.00  0.00    +0.077 C 
ATOM     21  C   UNL     1      33.694 -14.843 -22.123  0.00  0.00    +0.010 C 
ATOM     22  C   UNL     1      34.515 -14.045 -23.094  0.00  0.00    +0.010 C 
ENDBRANCH  12  20
ENDBRANCH   4  14
BRANCH   1  23
ATOM     23  C   UNL     1      35.427  -4.492 -27.494  0.00  0.00    -0.050 C 
BRANCH  23  27
ATOM     24  S   UNL     1      39.808  -4.711 -28.565  0.00  0.00    -0.014 S 
ATOM     25  O   UNL     1      41.051  -5.382 -28.244  0.00  0.00    -0.173 OA
ATOM     26  O   UNL     1      39.751  -3.692 -29.595  0.00  0.00    -0.173 OA
ATOM     27  N   UNL     1      36.848  -4.849 -27.547  0.00  0.00    +0.392 N 
ATOM     28  C   UNL     1      37.671  -3.674 -27.211  0.00  0.00    -0.051 C 
ATOM     29  C   UNL     1      37.177  -5.387 -28.878  0.00  0.00    -0.051 C 
ATOM     30  C   UNL     1      38.592  -5.952 -28.937  0.00  0.00    +0.128 C 
ATOM     31  C   UNL     1      39.147  -4.028 -27.064  0.00  0.00    +0.128 C 
ATOM     32  H   UNL     1      37.048  -5.575 -26.860  0.00  0.00    -0.079 HD
ENDBRANCH  23  27
ENDBRANCH   1  23
TORSDOF 4
ENDMDL
MODEL 8
REMARK VINA RESULT:      -9.8      6.507     12.675
REMARK  Name = 49831257
REMARK  4 active torsions:
REMARK  status: ('A' for Active; 'I' for Inactive)
REMARK    1  A    between atoms: C_1  and  C_23
REMARK    2  A    between atoms: C_4  and  C_14
REMARK    3  A    between atoms: C_12  and  C_20
REMARK    4  A    between atoms: C_23  and  N_27
REMARK                            x       y       z     vdW  Elec       q    Type
REMARK                         _______ _______ _______ _____ _____    ______ ____
ROOT
ATOM      1  C   UNL     1      31.897  -5.707 -22.631  0.00  0.00    -0.043 C 
ATOM      2  C   UNL     1      31.151  -6.755 -23.170  0.00  0.00    -0.006 C 
ATOM      3  C   UNL     1      32.628  -5.903 -21.459  0.00  0.00    -0.006 C 
ATOM      4  C   UNL     1      31.866  -8.193 -21.366  0.00  0.00    +0.016 C 
ATOM      5  C   UNL     1      31.135  -7.998 -22.537  0.00  0.00    +0.001 C 
ATOM      6  C   UNL     1      32.613  -7.145 -20.826  0.00  0.00    +0.001 C 
ENDROOT
BRANCH   4  14
ATOM      7  O   UNL     1      33.484 -15.062 -23.220  0.00  0.00    -0.274 OA
ATOM      8  N   UNL     1      33.364 -12.790 -23.843  0.00  0.00    -0.217 N 
ATOM      9  N   UNL     1      32.235 -10.685 -21.364  0.00  0.00    -0.152 N 
ATOM     10  N   UNL     1      32.686 -10.840 -22.639  0.00  0.00    -0.092 NA
ATOM     11  N   UNL     1      32.623 -12.868 -21.589  0.00  0.00    -0.319 NA
ATOM     12  C   UNL     1      33.625 -14.159 -24.033  0.00  0.00    +0.234 C 
ATOM     13  C   UNL     1      32.895 -12.153 -22.713  0.00  0.00    +0.167 C 
ATOM     14  C   UNL     1      31.848  -9.505 -20.696  0.00  0.00    +0.077 C 
ATOM     15  C   UNL     1      32.213 -11.945 -20.748  0.00  0.00    +0.219 C 
ATOM     16  C   UNL     1      31.441  -9.599 -19.412  0.00  0.00    +0.017 C 
ATOM     17  C   UNL     1      31.782 -12.017 -19.396  0.00  0.00    +0.051 C 
ATOM     18  C   UNL     1      31.413 -10.894 -18.755  0.00  0.00    +0.005 C 
ATOM     19  H   UNL     1      33.540 -12.209 -24.618  0.00  0.00    +0.167 HD
BRANCH  12  20
ATOM     20  C   UNL     1      34.131 -14.506 -25.398  0.00  0.00    +0.077 C 
ATOM     21  C   UNL     1      33.601 -13.755 -26.585  0.00  0.00    +0.010 C 
ATOM     22  C   UNL     1      33.210 -15.188 -26.368  0.00  0.00    +0.010 C 
ENDBRANCH  12  20
ENDBRANCH   4  14
BRANCH   1  23
ATOM     23  C   UNL     1      31.916  -4.366 -23.315  0.00  0.00    -0.050 C 
BRANCH  23  27
ATOM     24  S   UNL     1      34.090  -3.957 -27.251  0.00  0.00    -0.014 S 
ATOM     25  O   UNL     1      34.062  -4.359 -28.643  0.00  0.00    -0.173 OA
ATOM     26  O   UNL     1      35.140  -3.095 -26.742  0.00  0.00    -0.173 OA
ATOM     27  N   UNL     1      32.318  -4.477 -24.720  0.00  0.00    +0.392 N 
ATOM     28  C   UNL     1      33.646  -5.108 -24.812  0.00  0.00    -0.051 C 
ATOM     29  C   UNL     1      32.298  -3.147 -25.352  0.00  0.00    -0.051 C 
ATOM     30  C   UNL     1      32.522  -3.221 -26.858  0.00  0.00    +0.128 C 
ATOM     31  C   UNL     1      34.036  -5.425 -26.251  0.00  0.00    +0.128 C 
ATOM     32  H   UNL     1      31.658  -5.070 -25.223  0.00  0.00    -0.079 HD
ENDBRANCH  23  27
ENDBRANCH   1  23
TORSDOF 4
ENDMDL
MODEL 9
REMARK VINA RESULT:      -9.8      4.267     10.300
REMARK  Name = 49831257
REMARK  4 active torsions:
REMARK  status: ('A' for Active; 'I' for Inactive)
REMARK    1  A    between atoms: C_1  and  C_23
REMARK    2  A    between atoms: C_4  and  C_14
REMARK    3  A    between atoms: C_12  and  C_20
REMARK    4  A    between atoms: C_23  and  N_27
REMARK                            x       y       z     vdW  Elec       q    Type
REMARK                         _______ _______ _______ _____ _____    ______ ____
ROOT
ATOM      1  C   UNL     1      32.355 -10.819 -21.523  0.00  0.00    -0.043 C 
ATOM      2  C   UNL     1      33.149 -10.532 -22.633  0.00  0.00    -0.006 C 
ATOM      3  C   UNL     1      31.949 -12.131 -21.277  0.00  0.00    -0.006 C 
ATOM      4  C   UNL     1      33.129 -12.868 -23.251  0.00  0.00    +0.016 C 
ATOM      5  C   UNL     1      33.536 -11.556 -23.497  0.00  0.00    +0.001 C 
ATOM      6  C   UNL     1      32.335 -13.155 -22.140  0.00  0.00    +0.001 C 
ENDROOT
BRANCH   4  14
ATOM      7  O   UNL     1      35.836 -19.606 -22.542  0.00  0.00    -0.274 OA
ATOM      8  N   UNL     1      35.057 -17.636 -21.504  0.00  0.00    -0.217 N 
ATOM      9  N   UNL     1      34.041 -15.176 -23.685  0.00  0.00    -0.152 N 
ATOM     10  N   UNL     1      34.218 -15.586 -22.400  0.00  0.00    -0.092 NA
ATOM     11  N   UNL     1      34.870 -17.238 -23.836  0.00  0.00    -0.319 NA
ATOM     12  C   UNL     1      35.580 -18.941 -21.547  0.00  0.00    +0.234 C 
ATOM     13  C   UNL     1      34.714 -16.812 -22.555  0.00  0.00    +0.167 C 
ATOM     14  C   UNL     1      33.537 -13.949 -24.164  0.00  0.00    +0.077 C 
ATOM     15  C   UNL     1      34.446 -16.212 -24.539  0.00  0.00    +0.219 C 
ATOM     16  C   UNL     1      33.442 -13.772 -25.500  0.00  0.00    +0.017 C 
ATOM     17  C   UNL     1      34.336 -16.001 -25.940  0.00  0.00    +0.051 C 
ATOM     18  C   UNL     1      33.855 -14.834 -26.401  0.00  0.00    +0.005 C 
ATOM     19  H   UNL     1      34.916 -17.262 -20.604  0.00  0.00    +0.167 HD
BRANCH  12  20
ATOM     20  C   UNL     1      35.839 -19.547 -20.203  0.00  0.00    +0.077 C 
ATOM     21  C   UNL     1      36.591 -20.843 -20.120  0.00  0.00    +0.010 C 
ATOM     22  C   UNL     1      35.121 -20.808 -19.819  0.00  0.00    +0.010 C 
ENDBRANCH  12  20
ENDBRANCH   4  14
BRANCH   1  23
ATOM     23  C   UNL     1      31.938  -9.714 -20.589  0.00  0.00    -0.050 C 
BRANCH  23  27
ATOM     24  S   UNL     1      31.343  -5.455 -21.965  0.00  0.00    -0.014 S 
ATOM     25  O   UNL     1      31.966  -4.372 -22.698  0.00  0.00    -0.173 OA
ATOM     26  O   UNL     1      30.027  -5.300 -21.375  0.00  0.00    -0.173 OA
ATOM     27  N   UNL     1      32.118  -8.392 -21.196  0.00  0.00    +0.392 N 
ATOM     28  C   UNL     1      32.098  -7.354 -20.150  0.00  0.00    -0.051 C 
ATOM     29  C   UNL     1      31.077  -8.165 -22.213  0.00  0.00    -0.051 C 
ATOM     30  C   UNL     1      31.322  -6.890 -23.012  0.00  0.00    +0.128 C 
ATOM     31  C   UNL     1      32.469  -5.980 -20.694  0.00  0.00    +0.128 C 
ATOM     32  H   UNL     1      33.023  -8.345 -21.662  0.00  0.00    -0.079 HD
ENDBRANCH  23  27
ENDBRANCH   1  23
TORSDOF 4
ENDMDL
