MODEL 1
REMARK VINA RESULT:     -11.7      0.000      0.000
REMARK  Name = 6918151
REMARK  4 active torsions:
REMARK  status: ('A' for Active; 'I' for Inactive)
REMARK    1  A    between atoms: C_2  and  C_11
REMARK    2  A    between atoms: C_7  and  C_18
REMARK    3  A    between atoms: C_11  and  C_12
REMARK    4  A    between atoms: C_18  and  C_23
REMARK                            x       y       z     vdW  Elec       q    Type
REMARK                         _______ _______ _______ _____ _____    ______ ____
ROOT
ATOM      1  O   UNL     1      36.056 -20.010 -20.301  0.00  0.00    -0.479 OA
ATOM      2  C   UNL     1      35.215 -19.063 -20.977  0.00  0.00    +0.171 C 
ATOM      3  C   UNL     1      34.014 -19.749 -21.625  0.00  0.00    +0.049 C 
ATOM      4  C   UNL     1      33.156 -20.384 -20.537  0.00  0.00    +0.033 C 
ATOM      5  C   UNL     1      34.016 -21.128 -19.557  0.00  0.00    +0.012 C 
ATOM      6  C   UNL     1      35.396 -20.894 -19.487  0.00  0.00    +0.134 C 
ATOM      7  C   UNL     1      34.225 -22.751 -17.764  0.00  0.00    -0.021 C 
ATOM      8  C   UNL     1      33.435 -22.053 -18.679  0.00  0.00    -0.006 C 
ATOM      9  C   UNL     1      36.187 -21.603 -18.579  0.00  0.00    +0.036 C 
ATOM     10  C   UNL     1      35.600 -22.529 -17.717  0.00  0.00    -0.001 C 
ENDROOT
BRANCH   2  11
ATOM     11  C   UNL     1      36.073 -18.367 -22.028  0.00  0.00    +0.070 C 
BRANCH  11  12
ATOM     12  C   UNL     1      35.357 -17.196 -22.645  0.00  0.00    -0.019 C 
ATOM     13  C   UNL     1      34.923 -16.156 -21.833  0.00  0.00    -0.004 C 
ATOM     14  C   UNL     1      35.140 -17.171 -24.015  0.00  0.00    -0.004 C 
ATOM     15  C   UNL     1      34.260 -15.070 -22.404  0.00  0.00    -0.000 C 
ATOM     16  C   UNL     1      34.477 -16.084 -24.586  0.00  0.00    -0.000 C 
ATOM     17  C   UNL     1      34.037 -15.034 -23.781  0.00  0.00    -0.000 C 
ENDBRANCH  11  12
ENDBRANCH   2  11
BRANCH   7  18
ATOM     18  C   UNL     1      33.597 -23.737 -16.839  0.00  0.00    +0.047 C 
BRANCH  18  23
ATOM     19  S   UNL     1      33.353 -23.925 -14.096  0.00  0.00    -0.048 S 
ATOM     20  O   UNL     1      30.790 -22.670 -16.694  0.00  0.00    -0.274 OA
ATOM     21  O   UNL     1      31.349 -24.788 -12.629  0.00  0.00    -0.263 OA
ATOM     22  N   UNL     1      30.864 -23.733 -14.641  0.00  0.00    -0.246 N 
ATOM     23  C   UNL     1      32.930 -23.065 -15.641  0.00  0.00    +0.137 C 
ATOM     24  C   UNL     1      31.422 -23.120 -15.745  0.00  0.00    +0.239 C 
ATOM     25  C   UNL     1      31.684 -24.223 -13.658  0.00  0.00    +0.279 C 
ATOM     26  H   UNL     1      29.887 -23.818 -14.561  0.00  0.00    +0.158 HD
ENDBRANCH  18  23
ENDBRANCH   7  18
TORSDOF 4
ENDMDL
MODEL 2
REMARK VINA RESULT:     -11.5      1.232      1.591
REMARK  Name = 6918151
REMARK  4 active torsions:
REMARK  status: ('A' for Active; 'I' for Inactive)
REMARK    1  A    between atoms: C_2  and  C_11
REMARK    2  A    between atoms: C_7  and  C_18
REMARK    3  A    between atoms: C_11  and  C_12
REMARK    4  A    between atoms: C_18  and  C_23
REMARK                            x       y       z     vdW  Elec       q    Type
REMARK                         _______ _______ _______ _____ _____    ______ ____
ROOT
ATOM      1  O   UNL     1      36.108 -20.031 -20.469  0.00  0.00    -0.479 OA
ATOM      2  C   UNL     1      35.184 -19.155 -21.131  0.00  0.00    +0.171 C 
ATOM      3  C   UNL     1      33.949 -19.912 -21.617  0.00  0.00    +0.049 C 
ATOM      4  C   UNL     1      33.210 -20.484 -20.413  0.00  0.00    +0.033 C 
ATOM      5  C   UNL     1      34.174 -21.136 -19.465  0.00  0.00    +0.012 C 
ATOM      6  C   UNL     1      35.548 -20.867 -19.537  0.00  0.00    +0.134 C 
ATOM      7  C   UNL     1      34.587 -22.618 -17.588  0.00  0.00    -0.021 C 
ATOM      8  C   UNL     1      33.700 -22.005 -18.474  0.00  0.00    -0.006 C 
ATOM      9  C   UNL     1      36.436 -21.491 -18.657  0.00  0.00    +0.036 C 
ATOM     10  C   UNL     1      35.954 -22.363 -17.682  0.00  0.00    -0.001 C 
ENDROOT
BRANCH   2  11
ATOM     11  C   UNL     1      35.925 -18.520 -22.303  0.00  0.00    +0.070 C 
BRANCH  11  12
ATOM     12  C   UNL     1      35.265 -17.245 -22.754  0.00  0.00    -0.019 C 
ATOM     13  C   UNL     1      35.046 -17.030 -24.108  0.00  0.00    -0.004 C 
ATOM     14  C   UNL     1      34.885 -16.300 -21.810  0.00  0.00    -0.004 C 
ATOM     15  C   UNL     1      34.435 -15.848 -24.526  0.00  0.00    -0.000 C 
ATOM     16  C   UNL     1      34.273 -15.119 -22.229  0.00  0.00    -0.000 C 
ATOM     17  C   UNL     1      34.049 -14.892 -23.586  0.00  0.00    -0.000 C 
ENDBRANCH  11  12
ENDBRANCH   2  11
BRANCH   7  18
ATOM     18  C   UNL     1      34.072 -23.546 -16.541  0.00  0.00    +0.047 C 
BRANCH  18  23
ATOM     19  S   UNL     1      35.381 -23.717 -14.116  0.00  0.00    -0.048 S 
ATOM     20  O   UNL     1      31.715 -22.757 -14.849  0.00  0.00    -0.274 OA
ATOM     21  O   UNL     1      34.588 -24.752 -11.833  0.00  0.00    -0.263 OA
ATOM     22  N   UNL     1      32.992 -23.778 -13.213  0.00  0.00    -0.246 N 
ATOM     23  C   UNL     1      34.108 -22.925 -15.146  0.00  0.00    +0.137 C 
ATOM     24  C   UNL     1      32.800 -23.130 -14.416  0.00  0.00    +0.239 C 
ATOM     25  C   UNL     1      34.255 -24.171 -12.855  0.00  0.00    +0.279 C 
ATOM     26  H   UNL     1      32.228 -23.957 -12.618  0.00  0.00    +0.158 HD
ENDBRANCH  18  23
ENDBRANCH   7  18
TORSDOF 4
ENDMDL
MODEL 3
REMARK VINA RESULT:     -11.1      5.902     10.042
REMARK  Name = 6918151
REMARK  4 active torsions:
REMARK  status: ('A' for Active; 'I' for Inactive)
REMARK    1  A    between atoms: C_2  and  C_11
REMARK    2  A    between atoms: C_7  and  C_18
REMARK    3  A    between atoms: C_11  and  C_12
REMARK    4  A    between atoms: C_18  and  C_23
REMARK                            x       y       z     vdW  Elec       q    Type
REMARK                         _______ _______ _______ _____ _____    ______ ____
ROOT
ATOM      1  O   UNL     1      35.451 -17.417 -20.773  0.00  0.00    -0.479 OA
ATOM      2  C   UNL     1      36.274 -18.137 -21.702  0.00  0.00    +0.171 C 
ATOM      3  C   UNL     1      35.506 -18.473 -22.980  0.00  0.00    +0.049 C 
ATOM      4  C   UNL     1      35.105 -17.178 -23.676  0.00  0.00    +0.033 C 
ATOM      5  C   UNL     1      34.538 -16.203 -22.686  0.00  0.00    +0.012 C 
ATOM      6  C   UNL     1      34.750 -16.367 -21.310  0.00  0.00    +0.134 C 
ATOM      7  C   UNL     1      33.275 -14.182 -22.224  0.00  0.00    -0.021 C 
ATOM      8  C   UNL     1      33.808 -15.095 -23.136  0.00  0.00    -0.006 C 
ATOM      9  C   UNL     1      34.205 -15.460 -20.399  0.00  0.00    +0.036 C 
ATOM     10  C   UNL     1      33.470 -14.366 -20.857  0.00  0.00    -0.001 C 
ENDROOT
BRANCH   2  11
ATOM     11  C   UNL     1      36.740 -19.407 -21.002  0.00  0.00    +0.070 C 
BRANCH  11  12
ATOM     12  C   UNL     1      35.587 -20.175 -20.414  0.00  0.00    -0.019 C 
ATOM     13  C   UNL     1      35.839 -21.223 -19.538  0.00  0.00    -0.004 C 
ATOM     14  C   UNL     1      34.288 -19.826 -20.755  0.00  0.00    -0.004 C 
ATOM     15  C   UNL     1      34.770 -21.934 -18.993  0.00  0.00    -0.000 C 
ATOM     16  C   UNL     1      33.219 -20.537 -20.210  0.00  0.00    -0.000 C 
ATOM     17  C   UNL     1      33.460 -21.591 -19.329  0.00  0.00    -0.000 C 
ENDBRANCH  11  12
ENDBRANCH   2  11
BRANCH   7  18
ATOM     18  C   UNL     1      32.494 -13.010 -22.714  0.00  0.00    +0.047 C 
BRANCH  18  23
ATOM     19  S   UNL     1      31.709 -10.750 -21.338  0.00  0.00    -0.048 S 
ATOM     20  O   UNL     1      34.405 -11.129 -24.074  0.00  0.00    -0.274 OA
ATOM     21  O   UNL     1      31.261  -8.309 -22.206  0.00  0.00    -0.263 OA
ATOM     22  N   UNL     1      32.896  -9.571 -23.269  0.00  0.00    -0.246 N 
ATOM     23  C   UNL     1      33.027 -11.688 -22.168  0.00  0.00    +0.137 C 
ATOM     24  C   UNL     1      33.534 -10.795 -23.277  0.00  0.00    +0.239 C 
ATOM     25  C   UNL     1      31.915  -9.331 -22.342  0.00  0.00    +0.279 C 
ATOM     26  H   UNL     1      33.143  -8.878 -23.923  0.00  0.00    +0.158 HD
ENDBRANCH  18  23
ENDBRANCH   7  18
TORSDOF 4
ENDMDL
MODEL 4
REMARK VINA RESULT:     -10.8      1.164      2.039
REMARK  Name = 6918151
REMARK  4 active torsions:
REMARK  status: ('A' for Active; 'I' for Inactive)
REMARK    1  A    between atoms: C_2  and  C_11
REMARK    2  A    between atoms: C_7  and  C_18
REMARK    3  A    between atoms: C_11  and  C_12
REMARK    4  A    between atoms: C_18  and  C_23
REMARK                            x       y       z     vdW  Elec       q    Type
REMARK                         _______ _______ _______ _____ _____    ______ ____
ROOT
ATOM      1  O   UNL     1      34.545 -19.049 -21.544  0.00  0.00    -0.479 OA
ATOM      2  C   UNL     1      35.866 -18.919 -22.092  0.00  0.00    +0.171 C 
ATOM      3  C   UNL     1      36.928 -18.951 -20.995  0.00  0.00    +0.049 C 
ATOM      4  C   UNL     1      36.885 -20.306 -20.299  0.00  0.00    +0.033 C 
ATOM      5  C   UNL     1      35.468 -20.695 -19.993  0.00  0.00    +0.012 C 
ATOM      6  C   UNL     1      34.393 -20.062 -20.632  0.00  0.00    +0.134 C 
ATOM      7  C   UNL     1      33.894 -22.090 -18.781  0.00  0.00    -0.021 C 
ATOM      8  C   UNL     1      35.207 -21.721 -19.075  0.00  0.00    -0.006 C 
ATOM      9  C   UNL     1      33.079 -20.424 -20.327  0.00  0.00    +0.036 C 
ATOM     10  C   UNL     1      32.831 -21.440 -19.405  0.00  0.00    -0.001 C 
ENDROOT
BRANCH   2  11
ATOM     11  C   UNL     1      35.911 -17.597 -22.850  0.00  0.00    +0.070 C 
BRANCH  11  12
ATOM     12  C   UNL     1      35.015 -16.564 -22.222  0.00  0.00    -0.019 C 
ATOM     13  C   UNL     1      34.867 -16.536 -20.841  0.00  0.00    -0.004 C 
ATOM     14  C   UNL     1      34.350 -15.652 -23.030  0.00  0.00    -0.004 C 
ATOM     15  C   UNL     1      34.038 -15.579 -20.258  0.00  0.00    -0.000 C 
ATOM     16  C   UNL     1      33.520 -14.694 -22.446  0.00  0.00    -0.000 C 
ATOM     17  C   UNL     1      33.364 -14.658 -21.061  0.00  0.00    -0.000 C 
ENDBRANCH  11  12
ENDBRANCH   2  11
BRANCH   7  18
ATOM     18  C   UNL     1      33.628 -23.180 -17.799  0.00  0.00    +0.047 C 
BRANCH  18  23
ATOM     19  S   UNL     1      34.268 -23.378 -15.121  0.00  0.00    -0.048 S 
ATOM     20  O   UNL     1      30.846 -22.694 -16.769  0.00  0.00    -0.274 OA
ATOM     21  O   UNL     1      33.010 -24.607 -13.166  0.00  0.00    -0.263 OA
ATOM     22  N   UNL     1      31.743 -23.695 -14.887  0.00  0.00    -0.246 N 
ATOM     23  C   UNL     1      33.238 -22.640 -16.425  0.00  0.00    +0.137 C 
ATOM     24  C   UNL     1      31.811 -22.997 -16.076  0.00  0.00    +0.239 C 
ATOM     25  C   UNL     1      32.902 -23.998 -14.219  0.00  0.00    +0.279 C 
ATOM     26  H   UNL     1      30.872 -23.973 -14.523  0.00  0.00    +0.158 HD
ENDBRANCH  18  23
ENDBRANCH   7  18
TORSDOF 4
ENDMDL
MODEL 5
REMARK VINA RESULT:     -10.7      4.503      9.646
REMARK  Name = 6918151
REMARK  4 active torsions:
REMARK  status: ('A' for Active; 'I' for Inactive)
REMARK    1  A    between atoms: C_2  and  C_11
REMARK    2  A    between atoms: C_7  and  C_18
REMARK    3  A    between atoms: C_11  and  C_12
REMARK    4  A    between atoms: C_18  and  C_23
REMARK                            x       y       z     vdW  Elec       q    Type
REMARK                         _______ _______ _______ _____ _____    ______ ____
ROOT
ATOM      1  O   UNL     1      34.684 -23.022 -16.690  0.00  0.00    -0.479 OA
ATOM      2  C   UNL     1      35.502 -22.939 -15.513  0.00  0.00    +0.171 C 
ATOM      3  C   UNL     1      36.984 -23.085 -15.855  0.00  0.00    +0.049 C 
ATOM      4  C   UNL     1      37.405 -21.927 -16.752  0.00  0.00    +0.033 C 
ATOM      5  C   UNL     1      36.394 -21.711 -17.840  0.00  0.00    +0.012 C 
ATOM      6  C   UNL     1      35.105 -22.252 -17.744  0.00  0.00    +0.134 C 
ATOM      7  C   UNL     1      35.797 -20.729 -19.978  0.00  0.00    -0.021 C 
ATOM      8  C   UNL     1      36.728 -20.936 -18.959  0.00  0.00    -0.006 C 
ATOM      9  C   UNL     1      34.179 -22.054 -18.771  0.00  0.00    +0.036 C 
ATOM     10  C   UNL     1      34.524 -21.290 -19.885  0.00  0.00    -0.001 C 
ENDROOT
BRANCH   2  11
ATOM     11  C   UNL     1      35.052 -24.051 -14.572  0.00  0.00    +0.070 C 
BRANCH  11  12
ATOM     12  C   UNL     1      36.066 -24.309 -13.490  0.00  0.00    -0.019 C 
ATOM     13  C   UNL     1      36.300 -23.336 -12.527  0.00  0.00    -0.004 C 
ATOM     14  C   UNL     1      36.752 -25.515 -13.469  0.00  0.00    -0.004 C 
ATOM     15  C   UNL     1      37.239 -23.574 -11.524  0.00  0.00    -0.000 C 
ATOM     16  C   UNL     1      37.691 -25.753 -12.465  0.00  0.00    -0.000 C 
ATOM     17  C   UNL     1      37.935 -24.783 -11.493  0.00  0.00    -0.000 C 
ENDBRANCH  11  12
ENDBRANCH   2  11
BRANCH   7  18
ATOM     18  C   UNL     1      36.164 -19.908 -21.167  0.00  0.00    +0.047 C 
BRANCH  18  23
ATOM     19  S   UNL     1      34.819 -19.366 -23.516  0.00  0.00    -0.048 S 
ATOM     20  O   UNL     1      35.334 -17.116 -20.422  0.00  0.00    -0.274 OA
ATOM     21  O   UNL     1      34.826 -17.204 -25.012  0.00  0.00    -0.263 OA
ATOM     22  N   UNL     1      35.082 -16.954 -22.716  0.00  0.00    -0.246 N 
ATOM     23  C   UNL     1      34.976 -19.124 -21.720  0.00  0.00    +0.137 C 
ATOM     24  C   UNL     1      35.154 -17.636 -21.518  0.00  0.00    +0.239 C 
ATOM     25  C   UNL     1      34.907 -17.656 -23.880  0.00  0.00    +0.279 C 
ATOM     26  H   UNL     1      35.157 -15.972 -22.734  0.00  0.00    +0.158 HD
ENDBRANCH  18  23
ENDBRANCH   7  18
TORSDOF 4
ENDMDL
MODEL 6
REMARK VINA RESULT:     -10.6      3.631      9.127
REMARK  Name = 6918151
REMARK  4 active torsions:
REMARK  status: ('A' for Active; 'I' for Inactive)
REMARK    1  A    between atoms: C_2  and  C_11
REMARK    2  A    between atoms: C_7  and  C_18
REMARK    3  A    between atoms: C_11  and  C_12
REMARK    4  A    between atoms: C_18  and  C_23
REMARK                            x       y       z     vdW  Elec       q    Type
REMARK                         _______ _______ _______ _____ _____    ______ ____
ROOT
ATOM      1  O   UNL     1      34.365 -23.121 -16.699  0.00  0.00    -0.479 OA
ATOM      2  C   UNL     1      35.142 -23.053 -15.495  0.00  0.00    +0.171 C 
ATOM      3  C   UNL     1      36.632 -23.225 -15.784  0.00  0.00    +0.049 C 
ATOM      4  C   UNL     1      37.105 -22.075 -16.665  0.00  0.00    +0.033 C 
ATOM      5  C   UNL     1      36.138 -21.841 -17.789  0.00  0.00    +0.012 C 
ATOM      6  C   UNL     1      34.837 -22.359 -17.738  0.00  0.00    +0.134 C 
ATOM      7  C   UNL     1      35.633 -20.850 -19.946  0.00  0.00    -0.021 C 
ATOM      8  C   UNL     1      36.524 -21.073 -18.895  0.00  0.00    -0.006 C 
ATOM      9  C   UNL     1      33.951 -22.145 -18.797  0.00  0.00    +0.036 C 
ATOM     10  C   UNL     1      34.349 -21.388 -19.898  0.00  0.00    -0.001 C 
ENDROOT
BRANCH   2  11
ATOM     11  C   UNL     1      34.640 -24.156 -14.570  0.00  0.00    +0.070 C 
BRANCH  11  12
ATOM     12  C   UNL     1      33.162 -24.036 -14.313  0.00  0.00    -0.019 C 
ATOM     13  C   UNL     1      32.488 -22.891 -14.717  0.00  0.00    -0.004 C 
ATOM     14  C   UNL     1      32.492 -25.071 -13.676  0.00  0.00    -0.004 C 
ATOM     15  C   UNL     1      31.118 -22.779 -14.479  0.00  0.00    -0.000 C 
ATOM     16  C   UNL     1      31.122 -24.960 -13.438  0.00  0.00    -0.000 C 
ATOM     17  C   UNL     1      30.435 -23.814 -13.839  0.00  0.00    -0.000 C 
ENDBRANCH  11  12
ENDBRANCH   2  11
BRANCH   7  18
ATOM     18  C   UNL     1      36.057 -20.036 -21.121  0.00  0.00    +0.047 C 
BRANCH  18  23
ATOM     19  S   UNL     1      34.735 -19.460 -23.475  0.00  0.00    -0.048 S 
ATOM     20  O   UNL     1      35.396 -17.186 -20.428  0.00  0.00    -0.274 OA
ATOM     21  O   UNL     1      34.864 -17.332 -25.013  0.00  0.00    -0.263 OA
ATOM     22  N   UNL     1      35.145 -17.053 -22.723  0.00  0.00    -0.246 N 
ATOM     23  C   UNL     1      34.915 -19.194 -21.686  0.00  0.00    +0.137 C 
ATOM     24  C   UNL     1      35.181 -17.715 -21.513  0.00  0.00    +0.239 C 
ATOM     25  C   UNL     1      34.923 -17.766 -23.873  0.00  0.00    +0.279 C 
ATOM     26  H   UNL     1      35.277 -16.079 -22.761  0.00  0.00    +0.158 HD
ENDBRANCH  18  23
ENDBRANCH   7  18
TORSDOF 4
ENDMDL
MODEL 7
REMARK VINA RESULT:     -10.6      6.010     10.576
REMARK  Name = 6918151
REMARK  4 active torsions:
REMARK  status: ('A' for Active; 'I' for Inactive)
REMARK    1  A    between atoms: C_2  and  C_11
REMARK    2  A    between atoms: C_7  and  C_18
REMARK    3  A    between atoms: C_11  and  C_12
REMARK    4  A    between atoms: C_18  and  C_23
REMARK                            x       y       z     vdW  Elec       q    Type
REMARK                         _______ _______ _______ _____ _____    ______ ____
ROOT
ATOM      1  O   UNL     1      34.973 -17.806 -23.290  0.00  0.00    -0.479 OA
ATOM      2  C   UNL     1      34.807 -18.277 -21.944  0.00  0.00    +0.171 C 
ATOM      3  C   UNL     1      35.415 -17.305 -20.935  0.00  0.00    +0.049 C 
ATOM      4  C   UNL     1      34.676 -15.974 -21.018  0.00  0.00    +0.033 C 
ATOM      5  C   UNL     1      34.492 -15.563 -22.450  0.00  0.00    +0.012 C 
ATOM      6  C   UNL     1      34.637 -16.491 -23.489  0.00  0.00    +0.134 C 
ATOM      7  C   UNL     1      33.972 -13.847 -24.086  0.00  0.00    -0.021 C 
ATOM      8  C   UNL     1      34.145 -14.241 -22.758  0.00  0.00    -0.006 C 
ATOM      9  C   UNL     1      34.476 -16.092 -24.819  0.00  0.00    +0.036 C 
ATOM     10  C   UNL     1      34.141 -14.771 -25.115  0.00  0.00    -0.001 C 
ENDROOT
BRANCH   2  11
ATOM     11  C   UNL     1      35.483 -19.641 -21.857  0.00  0.00    +0.070 C 
BRANCH  11  12
ATOM     12  C   UNL     1      34.970 -20.443 -20.692  0.00  0.00    -0.019 C 
ATOM     13  C   UNL     1      33.608 -20.455 -20.417  0.00  0.00    -0.004 C 
ATOM     14  C   UNL     1      35.863 -21.161 -19.908  0.00  0.00    -0.004 C 
ATOM     15  C   UNL     1      33.132 -21.199 -19.337  0.00  0.00    -0.000 C 
ATOM     16  C   UNL     1      35.386 -21.905 -18.829  0.00  0.00    -0.000 C 
ATOM     17  C   UNL     1      34.021 -21.924 -18.544  0.00  0.00    -0.000 C 
ENDBRANCH  11  12
ENDBRANCH   2  11
BRANCH   7  18
ATOM     18  C   UNL     1      33.609 -12.436 -24.403  0.00  0.00    +0.047 C 
BRANCH  18  23
ATOM     19  S   UNL     1      32.291 -11.212 -22.309  0.00  0.00    -0.048 S 
ATOM     20  O   UNL     1      35.307  -9.956 -24.365  0.00  0.00    -0.274 OA
ATOM     21  O   UNL     1      31.529  -8.712 -22.018  0.00  0.00    -0.263 OA
ATOM     22  N   UNL     1      33.469  -9.137 -23.224  0.00  0.00    -0.246 N 
ATOM     23  C   UNL     1      33.839 -11.498 -23.220  0.00  0.00    +0.137 C 
ATOM     24  C   UNL     1      34.306 -10.135 -23.679  0.00  0.00    +0.239 C 
ATOM     25  C   UNL     1      32.362  -9.472 -22.488  0.00  0.00    +0.279 C 
ATOM     26  H   UNL     1      33.665  -8.194 -23.426  0.00  0.00    +0.158 HD
ENDBRANCH  18  23
ENDBRANCH   7  18
TORSDOF 4
ENDMDL
MODEL 8
REMARK VINA RESULT:     -10.6      4.286      9.553
REMARK  Name = 6918151
REMARK  4 active torsions:
REMARK  status: ('A' for Active; 'I' for Inactive)
REMARK    1  A    between atoms: C_2  and  C_11
REMARK    2  A    between atoms: C_7  and  C_18
REMARK    3  A    between atoms: C_11  and  C_12
REMARK    4  A    between atoms: C_18  and  C_23
REMARK                            x       y       z     vdW  Elec       q    Type
REMARK                         _______ _______ _______ _____ _____    ______ ____
ROOT
ATOM      1  O   UNL     1      35.471 -23.063 -15.193  0.00  0.00    -0.479 OA
ATOM      2  C   UNL     1      34.370 -23.943 -14.920  0.00  0.00    +0.171 C 
ATOM      3  C   UNL     1      33.064 -23.392 -15.489  0.00  0.00    +0.049 C 
ATOM      4  C   UNL     1      33.178 -23.307 -17.007  0.00  0.00    +0.033 C 
ATOM      5  C   UNL     1      34.493 -22.700 -17.401  0.00  0.00    +0.012 C 
ATOM      6  C   UNL     1      35.554 -22.624 -16.490  0.00  0.00    +0.134 C 
ATOM      7  C   UNL     1      35.896 -21.655 -19.084  0.00  0.00    -0.021 C 
ATOM      8  C   UNL     1      34.679 -22.223 -18.706  0.00  0.00    -0.006 C 
ATOM      9  C   UNL     1      36.768 -22.043 -16.866  0.00  0.00    +0.036 C 
ATOM     10  C   UNL     1      36.938 -21.562 -18.164  0.00  0.00    -0.001 C 
ENDROOT
BRANCH   2  11
ATOM     11  C   UNL     1      34.279 -24.094 -13.406  0.00  0.00    +0.070 C 
BRANCH  11  12
ATOM     12  C   UNL     1      35.632 -24.319 -12.786  0.00  0.00    -0.019 C 
ATOM     13  C   UNL     1      36.399 -25.402 -13.193  0.00  0.00    -0.004 C 
ATOM     14  C   UNL     1      36.095 -23.440 -11.816  0.00  0.00    -0.004 C 
ATOM     15  C   UNL     1      37.653 -25.611 -12.619  0.00  0.00    -0.000 C 
ATOM     16  C   UNL     1      37.349 -23.649 -11.242  0.00  0.00    -0.000 C 
ATOM     17  C   UNL     1      38.128 -24.734 -11.643  0.00  0.00    -0.000 C 
ENDBRANCH  11  12
ENDBRANCH   2  11
BRANCH   7  18
ATOM     18  C   UNL     1      36.080 -21.145 -20.473  0.00  0.00    +0.047 C 
BRANCH  18  23
ATOM     19  S   UNL     1      34.484 -19.511 -22.023  0.00  0.00    -0.048 S 
ATOM     20  O   UNL     1      37.788 -18.685 -20.207  0.00  0.00    -0.274 OA
ATOM     21  O   UNL     1      35.141 -17.768 -23.878  0.00  0.00    -0.263 OA
ATOM     22  N   UNL     1      36.600 -18.081 -22.097  0.00  0.00    -0.246 N 
ATOM     23  C   UNL     1      35.631 -19.694 -20.623  0.00  0.00    +0.137 C 
ATOM     24  C   UNL     1      36.798 -18.782 -20.925  0.00  0.00    +0.239 C 
ATOM     25  C   UNL     1      35.461 -18.302 -22.827  0.00  0.00    +0.279 C 
ATOM     26  H   UNL     1      37.270 -17.430 -22.406  0.00  0.00    +0.158 HD
ENDBRANCH  18  23
ENDBRANCH   7  18
TORSDOF 4
ENDMDL
MODEL 9
REMARK VINA RESULT:     -10.6      3.469      9.122
REMARK  Name = 6918151
REMARK  4 active torsions:
REMARK  status: ('A' for Active; 'I' for Inactive)
REMARK    1  A    between atoms: C_2  and  C_11
REMARK    2  A    between atoms: C_7  and  C_18
REMARK    3  A    between atoms: C_11  and  C_12
REMARK    4  A    between atoms: C_18  and  C_23
REMARK                            x       y       z     vdW  Elec       q    Type
REMARK                         _______ _______ _______ _____ _____    ______ ____
ROOT
ATOM      1  O   UNL     1      33.163 -23.370 -16.027  0.00  0.00    -0.479 OA
ATOM      2  C   UNL     1      33.753 -23.400 -14.719  0.00  0.00    +0.171 C 
ATOM      3  C   UNL     1      35.185 -23.931 -14.768  0.00  0.00    +0.049 C 
ATOM      4  C   UNL     1      36.040 -22.985 -15.603  0.00  0.00    +0.033 C 
ATOM      5  C   UNL     1      35.327 -22.612 -16.870  0.00  0.00    +0.012 C 
ATOM      6  C   UNL     1      33.946 -22.812 -17.005  0.00  0.00    +0.134 C 
ATOM      7  C   UNL     1      35.387 -21.683 -19.111  0.00  0.00    -0.021 C 
ATOM      8  C   UNL     1      36.039 -22.033 -17.928  0.00  0.00    -0.006 C 
ATOM      9  C   UNL     1      33.297 -22.473 -18.195  0.00  0.00    +0.036 C 
ATOM     10  C   UNL     1      34.018 -21.906 -19.246  0.00  0.00    -0.001 C 
ENDROOT
BRANCH   2  11
ATOM     11  C   UNL     1      32.875 -24.290 -13.848  0.00  0.00    +0.070 C 
BRANCH  11  12
ATOM     12  C   UNL     1      31.422 -24.177 -14.222  0.00  0.00    -0.019 C 
ATOM     13  C   UNL     1      30.883 -22.927 -14.500  0.00  0.00    -0.004 C 
ATOM     14  C   UNL     1      30.640 -25.322 -14.284  0.00  0.00    -0.004 C 
ATOM     15  C   UNL     1      29.537 -22.822 -14.847  0.00  0.00    -0.000 C 
ATOM     16  C   UNL     1      29.293 -25.216 -14.632  0.00  0.00    -0.000 C 
ATOM     17  C   UNL     1      28.742 -23.966 -14.913  0.00  0.00    -0.000 C 
ENDBRANCH  11  12
ENDBRANCH   2  11
BRANCH   7  18
ATOM     18  C   UNL     1      36.156 -21.072 -20.233  0.00  0.00    +0.047 C 
BRANCH  18  23
ATOM     19  S   UNL     1      34.574 -19.585 -21.937  0.00  0.00    -0.048 S 
ATOM     20  O   UNL     1      37.882 -18.611 -20.204  0.00  0.00    -0.274 OA
ATOM     21  O   UNL     1      35.245 -18.036 -23.952  0.00  0.00    -0.263 OA
ATOM     22  N   UNL     1      36.700 -18.185 -22.147  0.00  0.00    -0.246 N 
ATOM     23  C   UNL     1      35.718 -19.639 -20.525  0.00  0.00    +0.137 C 
ATOM     24  C   UNL     1      36.892 -18.769 -20.911  0.00  0.00    +0.239 C 
ATOM     25  C   UNL     1      35.560 -18.467 -22.854  0.00  0.00    +0.279 C 
ATOM     26  H   UNL     1      37.375 -17.571 -22.516  0.00  0.00    +0.158 HD
ENDBRANCH  18  23
ENDBRANCH   7  18
TORSDOF 4
ENDMDL
