MODEL 1
REMARK VINA RESULT:     -11.7      0.000      0.000
REMARK  Name = 9804992
REMARK  10 active torsions:
REMARK  status: ('A' for Active; 'I' for Inactive)
REMARK    1  A    between atoms: C_1  and  C_9
REMARK    2  A    between atoms: C_1  and  O_19
REMARK    3  A    between atoms: C_2  and  C_12
REMARK    4  A    between atoms: C_12  and  N_13
REMARK    5  A    between atoms: N_13  and  C_15
REMARK    6  A    between atoms: N_13  and  C_17
REMARK    7  A    between atoms: O_19  and  C_22
REMARK    8  A    between atoms: N_21  and  C_24
REMARK    9  A    between atoms: C_27  and  C_32
REMARK   10  A    between atoms: N_31  and  O_34
REMARK                            x       y       z     vdW  Elec       q    Type
REMARK                         _______ _______ _______ _____ _____    ______ ____
ROOT
ATOM      1  C   UNL     1      35.461 -20.775 -20.251  0.00  0.00    +0.237 C 
ENDROOT
BRANCH   1   9
ATOM      2  C   UNL     1      35.828 -23.881 -14.532  0.00  0.00    -0.043 C 
ATOM      3  C   UNL     1      34.919 -22.994 -16.607  0.00  0.00    -0.000 C 
ATOM      4  C   UNL     1      36.182 -22.433 -16.912  0.00  0.00    -0.000 C 
ATOM      5  C   UNL     1      34.759 -23.715 -15.413  0.00  0.00    -0.006 C 
ATOM      6  C   UNL     1      37.069 -23.329 -14.833  0.00  0.00    -0.006 C 
ATOM      7  C   UNL     1      37.247 -22.609 -16.014  0.00  0.00    -0.000 C 
ATOM      8  C   UNL     1      36.342 -21.711 -18.106  0.00  0.00    -0.001 C 
ATOM      9  C   UNL     1      35.272 -21.545 -18.987  0.00  0.00    +0.021 C 
ATOM     10  C   UNL     1      33.854 -22.817 -17.505  0.00  0.00    -0.000 C 
ATOM     11  C   UNL     1      34.031 -22.098 -18.688  0.00  0.00    -0.001 C 
BRANCH   2  12
ATOM     12  C   UNL     1      35.640 -24.650 -13.268  0.00  0.00    -0.050 C 
BRANCH  12  13
ATOM     13  N   UNL     1      36.898 -24.862 -12.552  0.00  0.00    +0.390 N 
ATOM     14  H   UNL     1      37.650 -24.420 -13.080  0.00  0.00    -0.079 HD
BRANCH  13  15
ATOM     15  C   UNL     1      36.841 -24.248 -11.227  0.00  0.00    -0.077 C 
ATOM     16  C   UNL     1      37.383 -22.830 -11.255  0.00  0.00    -0.025 C 
ENDBRANCH  13  15
BRANCH  13  17
ATOM     17  C   UNL     1      37.188 -26.291 -12.443  0.00  0.00    -0.077 C 
ATOM     18  C   UNL     1      37.451 -26.904 -13.808  0.00  0.00    -0.025 C 
ENDBRANCH  13  17
ENDBRANCH  12  13
ENDBRANCH   2  12
ENDBRANCH   1   9
BRANCH   1  19
ATOM     19  O   UNL     1      36.627 -19.968 -20.143  0.00  0.00    -0.429 OA
BRANCH  19  22
ATOM     20  O   UNL     1      37.723 -18.554 -21.567  0.00  0.00    -0.226 OA
ATOM     21  N   UNL     1      35.462 -18.268 -21.032  0.00  0.00    -0.250 N 
ATOM     22  C   UNL     1      36.698 -18.882 -20.981  0.00  0.00    +0.406 C 
ATOM     23  H   UNL     1      34.752 -18.682 -20.488  0.00  0.00    +0.158 HD
BRANCH  21  24
ATOM     24  C   UNL     1      35.089 -17.122 -21.769  0.00  0.00    +0.053 C 
ATOM     25  C   UNL     1      35.127 -17.147 -23.164  0.00  0.00    +0.015 C 
ATOM     26  C   UNL     1      34.685 -15.965 -21.103  0.00  0.00    +0.015 C 
ATOM     27  C   UNL     1      34.355 -14.858 -23.225  0.00  0.00    +0.055 C 
ATOM     28  C   UNL     1      34.760 -16.015 -23.892  0.00  0.00    +0.006 C 
ATOM     29  C   UNL     1      34.318 -14.833 -21.831  0.00  0.00    +0.006 C 
BRANCH  27  32
ATOM     30  O   UNL     1      33.331 -13.784 -25.045  0.00  0.00    -0.268 OA
ATOM     31  N   UNL     1      34.366 -12.446 -23.481  0.00  0.00    -0.193 N 
ATOM     32  C   UNL     1      33.973 -13.678 -23.984  0.00  0.00    +0.268 C 
ATOM     33  H   UNL     1      34.874 -12.371 -22.640  0.00  0.00    +0.183 HD
BRANCH  31  34
ATOM     34  O   UNL     1      34.006 -11.313 -24.224  0.00  0.00    -0.295 OA
ATOM     35  H   UNL     1      33.275 -11.536 -24.821  0.00  0.00    +0.241 HD
ENDBRANCH  31  34
ENDBRANCH  27  32
ENDBRANCH  21  24
ENDBRANCH  19  22
ENDBRANCH   1  19
TORSDOF 10
ENDMDL
MODEL 2
REMARK VINA RESULT:     -11.6      2.586      3.614
REMARK  Name = 9804992
REMARK  10 active torsions:
REMARK  status: ('A' for Active; 'I' for Inactive)
REMARK    1  A    between atoms: C_1  and  C_9
REMARK    2  A    between atoms: C_1  and  O_19
REMARK    3  A    between atoms: C_2  and  C_12
REMARK    4  A    between atoms: C_12  and  N_13
REMARK    5  A    between atoms: N_13  and  C_15
REMARK    6  A    between atoms: N_13  and  C_17
REMARK    7  A    between atoms: O_19  and  C_22
REMARK    8  A    between atoms: N_21  and  C_24
REMARK    9  A    between atoms: C_27  and  C_32
REMARK   10  A    between atoms: N_31  and  O_34
REMARK                            x       y       z     vdW  Elec       q    Type
REMARK                         _______ _______ _______ _____ _____    ______ ____
ROOT
ATOM      1  C   UNL     1      36.896 -20.875 -20.121  0.00  0.00    +0.237 C 
ENDROOT
BRANCH   1   9
ATOM      2  C   UNL     1      32.522 -23.474 -16.046  0.00  0.00    -0.043 C 
ATOM      3  C   UNL     1      33.465 -22.340 -17.981  0.00  0.00    -0.000 C 
ATOM      4  C   UNL     1      34.762 -22.518 -17.444  0.00  0.00    -0.000 C 
ATOM      5  C   UNL     1      32.355 -22.824 -17.269  0.00  0.00    -0.006 C 
ATOM      6  C   UNL     1      33.798 -23.649 -15.519  0.00  0.00    -0.006 C 
ATOM      7  C   UNL     1      34.912 -23.175 -16.212  0.00  0.00    -0.000 C 
ATOM      8  C   UNL     1      35.872 -22.034 -18.156  0.00  0.00    -0.001 C 
ATOM      9  C   UNL     1      35.705 -21.383 -19.379  0.00  0.00    +0.021 C 
ATOM     10  C   UNL     1      33.316 -21.683 -19.213  0.00  0.00    -0.000 C 
ATOM     11  C   UNL     1      34.430 -21.209 -19.907  0.00  0.00    -0.001 C 
BRANCH   2  12
ATOM     12  C   UNL     1      31.332 -23.982 -15.304  0.00  0.00    -0.050 C 
BRANCH  12  13
ATOM     13  N   UNL     1      30.848 -23.026 -14.307  0.00  0.00    +0.390 N 
ATOM     14  H   UNL     1      31.482 -22.227 -14.288  0.00  0.00    -0.079 HD
BRANCH  13  15
ATOM     15  C   UNL     1      29.514 -22.547 -14.668  0.00  0.00    -0.077 C 
ATOM     16  C   UNL     1      28.736 -23.607 -15.428  0.00  0.00    -0.025 C 
ENDBRANCH  13  15
BRANCH  13  17
ATOM     17  C   UNL     1      30.832 -23.637 -12.980  0.00  0.00    -0.077 C 
ATOM     18  C   UNL     1      31.218 -25.105 -13.046  0.00  0.00    -0.025 C 
ENDBRANCH  13  17
ENDBRANCH  12  13
ENDBRANCH   2  12
ENDBRANCH   1   9
BRANCH   1  19
ATOM     19  O   UNL     1      37.076 -19.494 -19.835  0.00  0.00    -0.429 OA
BRANCH  19  22
ATOM     20  O   UNL     1      37.892 -18.444 -21.696  0.00  0.00    -0.226 OA
ATOM     21  N   UNL     1      35.726 -18.052 -20.900  0.00  0.00    -0.250 N 
ATOM     22  C   UNL     1      36.979 -18.631 -20.900  0.00  0.00    +0.406 C 
ATOM     23  H   UNL     1      35.122 -18.330 -20.173  0.00  0.00    +0.158 HD
BRANCH  21  24
ATOM     24  C   UNL     1      35.202 -17.109 -21.814  0.00  0.00    +0.053 C 
ATOM     25  C   UNL     1      35.225 -17.379 -23.183  0.00  0.00    +0.015 C 
ATOM     26  C   UNL     1      34.664 -15.910 -21.347  0.00  0.00    +0.015 C 
ATOM     27  C   UNL     1      34.171 -15.248 -23.618  0.00  0.00    +0.055 C 
ATOM     28  C   UNL     1      34.709 -16.448 -24.085  0.00  0.00    +0.006 C 
ATOM     29  C   UNL     1      34.149 -14.979 -22.250  0.00  0.00    +0.006 C 
BRANCH  27  32
ATOM     30  O   UNL     1      33.854 -13.061 -24.414  0.00  0.00    -0.268 OA
ATOM     31  N   UNL     1      32.865 -14.769 -25.604  0.00  0.00    -0.193 N 
ATOM     32  C   UNL     1      33.634 -14.278 -24.559  0.00  0.00    +0.268 C 
ATOM     33  H   UNL     1      32.696 -15.734 -25.711  0.00  0.00    +0.183 HD
BRANCH  31  34
ATOM     34  O   UNL     1      32.340 -13.827 -26.501  0.00  0.00    -0.295 OA
ATOM     35  H   UNL     1      32.231 -14.236 -27.374  0.00  0.00    +0.241 HD
ENDBRANCH  31  34
ENDBRANCH  27  32
ENDBRANCH  21  24
ENDBRANCH  19  22
ENDBRANCH   1  19
TORSDOF 10
ENDMDL
MODEL 3
REMARK VINA RESULT:     -11.4      3.742     11.910
REMARK  Name = 9804992
REMARK  10 active torsions:
REMARK  status: ('A' for Active; 'I' for Inactive)
REMARK    1  A    between atoms: C_1  and  C_9
REMARK    2  A    between atoms: C_1  and  O_19
REMARK    3  A    between atoms: C_2  and  C_12
REMARK    4  A    between atoms: C_12  and  N_13
REMARK    5  A    between atoms: N_13  and  C_15
REMARK    6  A    between atoms: N_13  and  C_17
REMARK    7  A    between atoms: O_19  and  C_22
REMARK    8  A    between atoms: N_21  and  C_24
REMARK    9  A    between atoms: C_27  and  C_32
REMARK   10  A    between atoms: N_31  and  O_34
REMARK                            x       y       z     vdW  Elec       q    Type
REMARK                         _______ _______ _______ _____ _____    ______ ____
ROOT
ATOM      1  C   UNL     1      35.654 -16.865 -23.007  0.00  0.00    +0.237 C 
ENDROOT
BRANCH   1   9
ATOM      2  C   UNL     1      31.917 -11.849 -21.174  0.00  0.00    -0.043 C 
ATOM      3  C   UNL     1      33.315 -13.285 -22.553  0.00  0.00    -0.000 C 
ATOM      4  C   UNL     1      33.444 -14.187 -21.471  0.00  0.00    -0.000 C 
ATOM      5  C   UNL     1      32.548 -12.120 -22.388  0.00  0.00    -0.006 C 
ATOM      6  C   UNL     1      32.043 -12.737 -20.110  0.00  0.00    -0.006 C 
ATOM      7  C   UNL     1      32.801 -13.899 -20.256  0.00  0.00    -0.000 C 
ATOM      8  C   UNL     1      34.211 -15.352 -21.635  0.00  0.00    -0.001 C 
ATOM      9  C   UNL     1      34.843 -15.623 -22.850  0.00  0.00    +0.021 C 
ATOM     10  C   UNL     1      33.957 -13.573 -23.768  0.00  0.00    -0.000 C 
ATOM     11  C   UNL     1      34.716 -14.736 -23.914  0.00  0.00    -0.001 C 
BRANCH   2  12
ATOM     12  C   UNL     1      31.106 -10.607 -21.016  0.00  0.00    -0.050 C 
BRANCH  12  13
ATOM     13  N   UNL     1      31.913  -9.394 -21.151  0.00  0.00    +0.390 N 
ATOM     14  H   UNL     1      32.850  -9.659 -21.454  0.00  0.00    -0.079 HD
BRANCH  13  15
ATOM     15  C   UNL     1      31.336  -8.508 -22.161  0.00  0.00    -0.077 C 
ATOM     16  C   UNL     1      32.209  -8.445 -23.402  0.00  0.00    -0.025 C 
ENDBRANCH  13  15
BRANCH  13  17
ATOM     17  C   UNL     1      32.020  -8.706 -19.866  0.00  0.00    -0.077 C 
ATOM     18  C   UNL     1      32.899  -7.472 -19.974  0.00  0.00    -0.025 C 
ENDBRANCH  13  17
ENDBRANCH  12  13
ENDBRANCH   2  12
ENDBRANCH   1   9
BRANCH   1  19
ATOM     19  O   UNL     1      34.887 -17.847 -23.691  0.00  0.00    -0.429 OA
BRANCH  19  22
ATOM     20  O   UNL     1      34.896 -20.134 -23.732  0.00  0.00    -0.226 OA
ATOM     21  N   UNL     1      34.642 -18.930 -21.740  0.00  0.00    -0.250 N 
ATOM     22  C   UNL     1      34.814 -19.086 -23.101  0.00  0.00    +0.406 C 
ATOM     23  H   UNL     1      34.600 -18.001 -21.414  0.00  0.00    +0.158 HD
BRANCH  21  24
ATOM     24  C   UNL     1      34.520 -19.937 -20.756  0.00  0.00    +0.053 C 
ATOM     25  C   UNL     1      33.256 -20.339 -20.323  0.00  0.00    +0.015 C 
ATOM     26  C   UNL     1      35.663 -20.529 -20.218  0.00  0.00    +0.015 C 
ATOM     27  C   UNL     1      34.278 -21.924 -18.813  0.00  0.00    +0.055 C 
ATOM     28  C   UNL     1      33.135 -21.333 -19.352  0.00  0.00    +0.006 C 
ATOM     29  C   UNL     1      35.542 -21.522 -19.246  0.00  0.00    +0.006 C 
BRANCH  27  32
ATOM     30  O   UNL     1      33.138 -23.681 -17.750  0.00  0.00    -0.268 OA
ATOM     31  N   UNL     1      35.197 -23.093 -16.897  0.00  0.00    -0.193 N 
ATOM     32  C   UNL     1      34.152 -22.960 -17.800  0.00  0.00    +0.268 C 
ATOM     33  H   UNL     1      35.996 -22.519 -16.945  0.00  0.00    +0.183 HD
BRANCH  31  34
ATOM     34  O   UNL     1      35.063 -24.085 -15.915  0.00  0.00    -0.295 OA
ATOM     35  H   UNL     1      35.199 -24.958 -16.315  0.00  0.00    +0.241 HD
ENDBRANCH  31  34
ENDBRANCH  27  32
ENDBRANCH  21  24
ENDBRANCH  19  22
ENDBRANCH   1  19
TORSDOF 10
ENDMDL
MODEL 4
REMARK VINA RESULT:     -11.0      3.218     11.713
REMARK  Name = 9804992
REMARK  10 active torsions:
REMARK  status: ('A' for Active; 'I' for Inactive)
REMARK    1  A    between atoms: C_1  and  C_9
REMARK    2  A    between atoms: C_1  and  O_19
REMARK    3  A    between atoms: C_2  and  C_12
REMARK    4  A    between atoms: C_12  and  N_13
REMARK    5  A    between atoms: N_13  and  C_15
REMARK    6  A    between atoms: N_13  and  C_17
REMARK    7  A    between atoms: O_19  and  C_22
REMARK    8  A    between atoms: N_21  and  C_24
REMARK    9  A    between atoms: C_27  and  C_32
REMARK   10  A    between atoms: N_31  and  O_34
REMARK                            x       y       z     vdW  Elec       q    Type
REMARK                         _______ _______ _______ _____ _____    ______ ____
ROOT
ATOM      1  C   UNL     1      36.039 -18.626 -21.838  0.00  0.00    +0.237 C 
ENDROOT
BRANCH   1   9
ATOM      2  C   UNL     1      32.711 -13.021 -21.857  0.00  0.00    -0.043 C 
ATOM      3  C   UNL     1      33.931 -14.967 -22.658  0.00  0.00    -0.000 C 
ATOM      4  C   UNL     1      34.087 -15.411 -21.322  0.00  0.00    -0.000 C 
ATOM      5  C   UNL     1      33.241 -13.771 -22.908  0.00  0.00    -0.006 C 
ATOM      6  C   UNL     1      32.863 -13.458 -20.545  0.00  0.00    -0.006 C 
ATOM      7  C   UNL     1      33.546 -14.644 -20.277  0.00  0.00    -0.000 C 
ATOM      8  C   UNL     1      34.777 -16.607 -21.072  0.00  0.00    -0.001 C 
ATOM      9  C   UNL     1      35.308 -17.357 -22.123  0.00  0.00    +0.021 C 
ATOM     10  C   UNL     1      34.472 -15.734 -23.703  0.00  0.00    -0.000 C 
ATOM     11  C   UNL     1      35.155 -16.922 -23.436  0.00  0.00    -0.001 C 
BRANCH   2  12
ATOM     12  C   UNL     1      31.981 -11.752 -22.142  0.00  0.00    -0.050 C 
BRANCH  12  13
ATOM     13  N   UNL     1      31.895 -10.884 -20.967  0.00  0.00    +0.390 N 
ATOM     14  H   UNL     1      32.685 -11.086 -20.355  0.00  0.00    -0.079 HD
BRANCH  13  15
ATOM     15  C   UNL     1      31.967  -9.479 -21.366  0.00  0.00    -0.077 C 
ATOM     16  C   UNL     1      32.398  -9.341 -22.816  0.00  0.00    -0.025 C 
ENDBRANCH  13  15
BRANCH  13  17
ATOM     17  C   UNL     1      30.660 -11.144 -20.230  0.00  0.00    -0.077 C 
ATOM     18  C   UNL     1      30.813 -10.793 -18.760  0.00  0.00    -0.025 C 
ENDBRANCH  13  17
ENDBRANCH  12  13
ENDBRANCH   2  12
ENDBRANCH   1   9
BRANCH   1  19
ATOM     19  O   UNL     1      35.140 -19.722 -21.941  0.00  0.00    -0.429 OA
BRANCH  19  22
ATOM     20  O   UNL     1      33.481 -19.902 -20.378  0.00  0.00    -0.226 OA
ATOM     21  N   UNL     1      35.534 -21.001 -20.139  0.00  0.00    -0.250 N 
ATOM     22  C   UNL     1      34.607 -20.189 -20.764  0.00  0.00    +0.406 C 
ATOM     23  H   UNL     1      36.393 -21.115 -20.607  0.00  0.00    +0.158 HD
BRANCH  21  24
ATOM     24  C   UNL     1      35.402 -21.687 -18.910  0.00  0.00    +0.053 C 
ATOM     25  C   UNL     1      36.471 -21.724 -18.015  0.00  0.00    +0.015 C 
ATOM     26  C   UNL     1      34.204 -22.328 -18.594  0.00  0.00    +0.015 C 
ATOM     27  C   UNL     1      35.143 -23.043 -16.486  0.00  0.00    +0.055 C 
ATOM     28  C   UNL     1      36.342 -22.402 -16.803  0.00  0.00    +0.006 C 
ATOM     29  C   UNL     1      34.075 -23.006 -17.382  0.00  0.00    +0.006 C 
BRANCH  27  32
ATOM     30  O   UNL     1      34.368 -23.252 -14.279  0.00  0.00    -0.268 OA
ATOM     31  N   UNL     1      35.634 -24.984 -15.119  0.00  0.00    -0.193 N 
ATOM     32  C   UNL     1      35.009 -23.750 -15.223  0.00  0.00    +0.268 C 
ATOM     33  H   UNL     1      36.139 -25.372 -15.871  0.00  0.00    +0.183 HD
BRANCH  31  34
ATOM     34  O   UNL     1      35.512 -25.655 -13.894  0.00  0.00    -0.295 OA
ATOM     35  H   UNL     1      36.392 -25.909 -13.574  0.00  0.00    +0.241 HD
ENDBRANCH  31  34
ENDBRANCH  27  32
ENDBRANCH  21  24
ENDBRANCH  19  22
ENDBRANCH   1  19
TORSDOF 10
ENDMDL
MODEL 5
REMARK VINA RESULT:     -10.9      2.647      4.477
REMARK  Name = 9804992
REMARK  10 active torsions:
REMARK  status: ('A' for Active; 'I' for Inactive)
REMARK    1  A    between atoms: C_1  and  C_9
REMARK    2  A    between atoms: C_1  and  O_19
REMARK    3  A    between atoms: C_2  and  C_12
REMARK    4  A    between atoms: C_12  and  N_13
REMARK    5  A    between atoms: N_13  and  C_15
REMARK    6  A    between atoms: N_13  and  C_17
REMARK    7  A    between atoms: O_19  and  C_22
REMARK    8  A    between atoms: N_21  and  C_24
REMARK    9  A    between atoms: C_27  and  C_32
REMARK   10  A    between atoms: N_31  and  O_34
REMARK                            x       y       z     vdW  Elec       q    Type
REMARK                         _______ _______ _______ _____ _____    ______ ____
ROOT
ATOM      1  C   UNL     1      36.358 -17.916 -22.391  0.00  0.00    +0.237 C 
ENDROOT
BRANCH   1   9
ATOM      2  C   UNL     1      33.862 -22.388 -18.359  0.00  0.00    -0.043 C 
ATOM      3  C   UNL     1      35.487 -21.017 -19.540  0.00  0.00    -0.000 C 
ATOM      4  C   UNL     1      34.431 -20.363 -20.219  0.00  0.00    -0.000 C 
ATOM      5  C   UNL     1      35.185 -22.027 -18.613  0.00  0.00    -0.006 C 
ATOM      6  C   UNL     1      32.824 -21.744 -19.026  0.00  0.00    -0.006 C 
ATOM      7  C   UNL     1      33.105 -20.739 -19.950  0.00  0.00    -0.000 C 
ATOM      8  C   UNL     1      34.732 -19.352 -21.147  0.00  0.00    -0.001 C 
ATOM      9  C   UNL     1      36.056 -18.992 -21.402  0.00  0.00    +0.021 C 
ATOM     10  C   UNL     1      36.813 -20.641 -19.810  0.00  0.00    -0.000 C 
ATOM     11  C   UNL     1      37.094 -19.634 -20.734  0.00  0.00    -0.001 C 
BRANCH   2  12
ATOM     12  C   UNL     1      33.560 -23.464 -17.371  0.00  0.00    -0.050 C 
BRANCH  12  13
ATOM     13  N   UNL     1      32.983 -22.938 -16.133  0.00  0.00    +0.390 N 
ATOM     14  H   UNL     1      33.066 -21.922 -16.142  0.00  0.00    -0.079 HD
BRANCH  13  15
ATOM     15  C   UNL     1      31.565 -23.284 -16.045  0.00  0.00    -0.077 C 
ATOM     16  C   UNL     1      30.999 -22.938 -14.678  0.00  0.00    -0.025 C 
ENDBRANCH  13  15
BRANCH  13  17
ATOM     17  C   UNL     1      33.709 -23.451 -14.973  0.00  0.00    -0.077 C 
ATOM     18  C   UNL     1      35.077 -23.978 -15.371  0.00  0.00    -0.025 C 
ENDBRANCH  13  17
ENDBRANCH  12  13
ENDBRANCH   2  12
ENDBRANCH   1   9
BRANCH   1  19
ATOM     19  O   UNL     1      35.331 -17.876 -23.373  0.00  0.00    -0.429 OA
BRANCH  19  22
ATOM     20  O   UNL     1      34.695 -16.185 -24.775  0.00  0.00    -0.226 OA
ATOM     21  N   UNL     1      34.392 -16.055 -22.457  0.00  0.00    -0.250 N 
ATOM     22  C   UNL     1      34.789 -16.643 -23.642  0.00  0.00    +0.406 C 
ATOM     23  H   UNL     1      34.549 -16.583 -21.640  0.00  0.00    +0.158 HD
BRANCH  21  24
ATOM     24  C   UNL     1      33.787 -14.791 -22.272  0.00  0.00    +0.053 C 
ATOM     25  C   UNL     1      34.090 -13.740 -23.138  0.00  0.00    +0.015 C 
ATOM     26  C   UNL     1      32.889 -14.595 -21.223  0.00  0.00    +0.015 C 
ATOM     27  C   UNL     1      32.596 -12.295 -21.905  0.00  0.00    +0.055 C 
ATOM     28  C   UNL     1      33.494 -12.492 -22.954  0.00  0.00    +0.006 C 
ATOM     29  C   UNL     1      32.293 -13.347 -21.039  0.00  0.00    +0.006 C 
BRANCH  27  32
ATOM     30  O   UNL     1      31.068 -10.838 -20.876  0.00  0.00    -0.268 OA
ATOM     31  N   UNL     1      32.430  -9.953 -22.510  0.00  0.00    -0.193 N 
ATOM     32  C   UNL     1      31.975 -10.994 -21.714  0.00  0.00    +0.268 C 
ATOM     33  H   UNL     1      33.149 -10.085 -23.170  0.00  0.00    +0.183 HD
BRANCH  31  34
ATOM     34  O   UNL     1      31.819  -8.704 -22.330  0.00  0.00    -0.295 OA
ATOM     35  H   UNL     1      31.506  -8.625 -21.415  0.00  0.00    +0.241 HD
ENDBRANCH  31  34
ENDBRANCH  27  32
ENDBRANCH  21  24
ENDBRANCH  19  22
ENDBRANCH   1  19
TORSDOF 10
ENDMDL
MODEL 6
REMARK VINA RESULT:     -10.8      4.663      9.237
REMARK  Name = 9804992
REMARK  10 active torsions:
REMARK  status: ('A' for Active; 'I' for Inactive)
REMARK    1  A    between atoms: C_1  and  C_9
REMARK    2  A    between atoms: C_1  and  O_19
REMARK    3  A    between atoms: C_2  and  C_12
REMARK    4  A    between atoms: C_12  and  N_13
REMARK    5  A    between atoms: N_13  and  C_15
REMARK    6  A    between atoms: N_13  and  C_17
REMARK    7  A    between atoms: O_19  and  C_22
REMARK    8  A    between atoms: N_21  and  C_24
REMARK    9  A    between atoms: C_27  and  C_32
REMARK   10  A    between atoms: N_31  and  O_34
REMARK                            x       y       z     vdW  Elec       q    Type
REMARK                         _______ _______ _______ _____ _____    ______ ____
ROOT
ATOM      1  C   UNL     1      33.350 -12.289 -22.845  0.00  0.00    +0.237 C 
ENDROOT
BRANCH   1   9
ATOM      2  C   UNL     1      35.297 -18.464 -22.095  0.00  0.00    -0.043 C 
ATOM      3  C   UNL     1      34.582 -16.203 -21.556  0.00  0.00    -0.000 C 
ATOM      4  C   UNL     1      34.492 -15.908 -22.937  0.00  0.00    -0.000 C 
ATOM      5  C   UNL     1      34.986 -17.485 -21.151  0.00  0.00    -0.006 C 
ATOM      6  C   UNL     1      35.209 -18.175 -23.454  0.00  0.00    -0.006 C 
ATOM      7  C   UNL     1      34.809 -16.906 -23.874  0.00  0.00    -0.000 C 
ATOM      8  C   UNL     1      34.088 -14.626 -23.342  0.00  0.00    -0.001 C 
ATOM      9  C   UNL     1      33.777 -13.646 -22.397  0.00  0.00    +0.021 C 
ATOM     10  C   UNL     1      34.264 -15.205 -20.619  0.00  0.00    -0.000 C 
ATOM     11  C   UNL     1      33.864 -13.935 -21.039  0.00  0.00    -0.001 C 
BRANCH   2  12
ATOM     12  C   UNL     1      35.725 -19.821 -21.648  0.00  0.00    -0.050 C 
BRANCH  12  13
ATOM     13  N   UNL     1      35.509 -20.030 -20.216  0.00  0.00    +0.390 N 
ATOM     14  H   UNL     1      35.208 -19.148 -19.801  0.00  0.00    -0.079 HD
BRANCH  13  15
ATOM     15  C   UNL     1      34.458 -21.023 -19.999  0.00  0.00    -0.077 C 
ATOM     16  C   UNL     1      33.079 -20.403 -20.134  0.00  0.00    -0.025 C 
ENDBRANCH  13  15
BRANCH  13  17
ATOM     17  C   UNL     1      36.750 -20.447 -19.568  0.00  0.00    -0.077 C 
ATOM     18  C   UNL     1      36.519 -21.634 -18.649  0.00  0.00    -0.025 C 
ENDBRANCH  13  17
ENDBRANCH  12  13
ENDBRANCH   2  12
ENDBRANCH   1   9
BRANCH   1  19
ATOM     19  O   UNL     1      34.374 -11.712 -23.645  0.00  0.00    -0.429 OA
BRANCH  19  22
ATOM     20  O   UNL     1      35.229  -9.709 -24.345  0.00  0.00    -0.226 OA
ATOM     21  N   UNL     1      33.187  -9.857 -23.210  0.00  0.00    -0.250 N 
ATOM     22  C   UNL     1      34.344 -10.345 -23.786  0.00  0.00    +0.406 C 
ATOM     23  H   UNL     1      32.590 -10.528 -22.806  0.00  0.00    +0.158 HD
BRANCH  21  24
ATOM     24  C   UNL     1      32.754  -8.514 -23.129  0.00  0.00    +0.053 C 
ATOM     25  C   UNL     1      33.683  -7.476 -23.215  0.00  0.00    +0.015 C 
ATOM     26  C   UNL     1      31.400  -8.226 -22.962  0.00  0.00    +0.015 C 
ATOM     27  C   UNL     1      31.901  -5.863 -22.967  0.00  0.00    +0.055 C 
ATOM     28  C   UNL     1      33.257  -6.151 -23.134  0.00  0.00    +0.006 C 
ATOM     29  C   UNL     1      30.973  -6.901 -22.881  0.00  0.00    +0.006 C 
BRANCH  27  32
ATOM     30  O   UNL     1      32.006  -3.593 -23.561  0.00  0.00    -0.268 OA
ATOM     31  N   UNL     1      30.415  -4.203 -22.010  0.00  0.00    -0.193 N 
ATOM     32  C   UNL     1      31.457  -4.481 -22.882  0.00  0.00    +0.268 C 
ATOM     33  H   UNL     1      29.986  -4.912 -21.477  0.00  0.00    +0.183 HD
BRANCH  31  34
ATOM     34  O   UNL     1      30.000  -2.867 -21.923  0.00  0.00    -0.295 OA
ATOM     35  H   UNL     1      30.504  -2.415 -21.228  0.00  0.00    +0.241 HD
ENDBRANCH  31  34
ENDBRANCH  27  32
ENDBRANCH  21  24
ENDBRANCH  19  22
ENDBRANCH   1  19
TORSDOF 10
ENDMDL
MODEL 7
REMARK VINA RESULT:     -10.8      2.169      3.328
REMARK  Name = 9804992
REMARK  10 active torsions:
REMARK  status: ('A' for Active; 'I' for Inactive)
REMARK    1  A    between atoms: C_1  and  C_9
REMARK    2  A    between atoms: C_1  and  O_19
REMARK    3  A    between atoms: C_2  and  C_12
REMARK    4  A    between atoms: C_12  and  N_13
REMARK    5  A    between atoms: N_13  and  C_15
REMARK    6  A    between atoms: N_13  and  C_17
REMARK    7  A    between atoms: O_19  and  C_22
REMARK    8  A    between atoms: N_21  and  C_24
REMARK    9  A    between atoms: C_27  and  C_32
REMARK   10  A    between atoms: N_31  and  O_34
REMARK                            x       y       z     vdW  Elec       q    Type
REMARK                         _______ _______ _______ _____ _____    ______ ____
ROOT
ATOM      1  C   UNL     1      35.311 -19.777 -21.427  0.00  0.00    +0.237 C 
ENDROOT
BRANCH   1   9
ATOM      2  C   UNL     1      34.151 -23.466 -16.181  0.00  0.00    -0.043 C 
ATOM      3  C   UNL     1      35.349 -22.169 -17.853  0.00  0.00    -0.000 C 
ATOM      4  C   UNL     1      34.126 -21.903 -18.514  0.00  0.00    -0.000 C 
ATOM      5  C   UNL     1      35.344 -22.952 -16.687  0.00  0.00    -0.006 C 
ATOM      6  C   UNL     1      32.948 -23.204 -16.830  0.00  0.00    -0.006 C 
ATOM      7  C   UNL     1      32.934 -22.429 -17.989  0.00  0.00    -0.000 C 
ATOM      8  C   UNL     1      34.131 -21.120 -19.679  0.00  0.00    -0.001 C 
ATOM      9  C   UNL     1      35.325 -20.606 -20.187  0.00  0.00    +0.021 C 
ATOM     10  C   UNL     1      36.541 -21.643 -18.378  0.00  0.00    -0.000 C 
ATOM     11  C   UNL     1      36.527 -20.867 -19.537  0.00  0.00    -0.001 C 
BRANCH   2  12
ATOM     12  C   UNL     1      34.164 -24.297 -14.941  0.00  0.00    -0.050 C 
BRANCH  12  13
ATOM     13  N   UNL     1      33.906 -23.505 -13.738  0.00  0.00    +0.390 N 
ATOM     14  H   UNL     1      34.069 -22.522 -13.954  0.00  0.00    -0.079 HD
BRANCH  13  15
ATOM     15  C   UNL     1      32.515 -23.661 -13.314  0.00  0.00    -0.077 C 
ATOM     16  C   UNL     1      32.051 -25.099 -13.471  0.00  0.00    -0.025 C 
ENDBRANCH  13  15
BRANCH  13  17
ATOM     17  C   UNL     1      34.816 -23.899 -12.664  0.00  0.00    -0.077 C 
ATOM     18  C   UNL     1      36.263 -23.642 -13.048  0.00  0.00    -0.025 C 
ENDBRANCH  13  17
ENDBRANCH  12  13
ENDBRANCH   2  12
ENDBRANCH   1   9
BRANCH   1  19
ATOM     19  O   UNL     1      35.757 -18.462 -21.120  0.00  0.00    -0.429 OA
BRANCH  19  22
ATOM     20  O   UNL     1      34.903 -17.390 -22.951  0.00  0.00    -0.226 OA
ATOM     21  N   UNL     1      34.708 -16.505 -20.792  0.00  0.00    -0.250 N 
ATOM     22  C   UNL     1      35.095 -17.431 -21.741  0.00  0.00    +0.406 C 
ATOM     23  H   UNL     1      34.954 -16.713 -19.861  0.00  0.00    +0.158 HD
BRANCH  21  24
ATOM     24  C   UNL     1      34.004 -15.296 -20.991  0.00  0.00    +0.053 C 
ATOM     25  C   UNL     1      32.943 -14.960 -20.149  0.00  0.00    +0.015 C 
ATOM     26  C   UNL     1      34.368 -14.439 -22.030  0.00  0.00    +0.015 C 
ATOM     27  C   UNL     1      32.611 -12.911 -21.385  0.00  0.00    +0.055 C 
ATOM     28  C   UNL     1      32.247 -13.768 -20.346  0.00  0.00    +0.006 C 
ATOM     29  C   UNL     1      33.672 -13.247 -22.227  0.00  0.00    +0.006 C 
BRANCH  27  32
ATOM     30  O   UNL     1      30.727 -11.528 -21.155  0.00  0.00    -0.268 OA
ATOM     31  N   UNL     1      32.533 -10.665 -22.296  0.00  0.00    -0.193 N 
ATOM     32  C   UNL     1      31.885 -11.668 -21.590  0.00  0.00    +0.268 C 
ATOM     33  H   UNL     1      33.450 -10.784 -22.637  0.00  0.00    +0.183 HD
BRANCH  31  34
ATOM     34  O   UNL     1      31.823  -9.474 -22.501  0.00  0.00    -0.295 OA
ATOM     35  H   UNL     1      31.652  -9.357 -23.449  0.00  0.00    +0.241 HD
ENDBRANCH  31  34
ENDBRANCH  27  32
ENDBRANCH  21  24
ENDBRANCH  19  22
ENDBRANCH   1  19
TORSDOF 10
ENDMDL
MODEL 8
REMARK VINA RESULT:     -10.4      5.262      9.778
REMARK  Name = 9804992
REMARK  10 active torsions:
REMARK  status: ('A' for Active; 'I' for Inactive)
REMARK    1  A    between atoms: C_1  and  C_9
REMARK    2  A    between atoms: C_1  and  O_19
REMARK    3  A    between atoms: C_2  and  C_12
REMARK    4  A    between atoms: C_12  and  N_13
REMARK    5  A    between atoms: N_13  and  C_15
REMARK    6  A    between atoms: N_13  and  C_17
REMARK    7  A    between atoms: O_19  and  C_22
REMARK    8  A    between atoms: N_21  and  C_24
REMARK    9  A    between atoms: C_27  and  C_32
REMARK   10  A    between atoms: N_31  and  O_34
REMARK                            x       y       z     vdW  Elec       q    Type
REMARK                         _______ _______ _______ _____ _____    ______ ____
ROOT
ATOM      1  C   UNL     1      35.633 -23.995 -12.796  0.00  0.00    +0.237 C 
ENDROOT
BRANCH   1   9
ATOM      2  C   UNL     1      35.950 -21.728 -18.899  0.00  0.00    -0.043 C 
ATOM      3  C   UNL     1      36.607 -22.304 -16.629  0.00  0.00    -0.000 C 
ATOM      4  C   UNL     1      35.315 -22.833 -16.396  0.00  0.00    -0.000 C 
ATOM      5  C   UNL     1      36.908 -21.755 -17.885  0.00  0.00    -0.006 C 
ATOM      6  C   UNL     1      34.680 -22.250 -18.670  0.00  0.00    -0.006 C 
ATOM      7  C   UNL     1      34.363 -22.798 -17.428  0.00  0.00    -0.000 C 
ATOM      8  C   UNL     1      35.013 -23.382 -15.140  0.00  0.00    -0.001 C 
ATOM      9  C   UNL     1      35.971 -23.408 -14.125  0.00  0.00    +0.021 C 
ATOM     10  C   UNL     1      37.559 -22.339 -15.597  0.00  0.00    -0.000 C 
ATOM     11  C   UNL     1      37.242 -22.888 -14.353  0.00  0.00    -0.001 C 
BRANCH   2  12
ATOM     12  C   UNL     1      36.287 -21.141 -20.228  0.00  0.00    -0.050 C 
BRANCH  12  13
ATOM     13  N   UNL     1      35.736 -19.797 -20.399  0.00  0.00    +0.390 N 
ATOM     14  H   UNL     1      35.403 -19.464 -19.495  0.00  0.00    -0.079 HD
BRANCH  13  15
ATOM     15  C   UNL     1      36.770 -18.879 -20.876  0.00  0.00    -0.077 C 
ATOM     16  C   UNL     1      36.540 -18.499 -22.328  0.00  0.00    -0.025 C 
ENDBRANCH  13  15
BRANCH  13  17
ATOM     17  C   UNL     1      34.607 -19.823 -21.327  0.00  0.00    -0.077 C 
ATOM     18  C   UNL     1      33.292 -20.002 -20.587  0.00  0.00    -0.025 C 
ENDBRANCH  13  17
ENDBRANCH  12  13
ENDBRANCH   2  12
ENDBRANCH   1   9
BRANCH   1  19
ATOM     19  O   UNL     1      34.482 -24.819 -12.923  0.00  0.00    -0.429 OA
BRANCH  19  22
ATOM     20  O   UNL     1      32.880 -23.312 -12.298  0.00  0.00    -0.226 OA
ATOM     21  N   UNL     1      32.648 -24.650 -14.205  0.00  0.00    -0.250 N 
ATOM     22  C   UNL     1      33.280 -24.172 -13.073  0.00  0.00    +0.406 C 
ATOM     23  H   UNL     1      33.130 -25.347 -14.707  0.00  0.00    +0.158 HD
BRANCH  21  24
ATOM     24  C   UNL     1      31.395 -24.262 -14.732  0.00  0.00    +0.053 C 
ATOM     25  C   UNL     1      30.256 -25.019 -14.452  0.00  0.00    +0.015 C 
ATOM     26  C   UNL     1      31.297 -23.123 -15.532  0.00  0.00    +0.015 C 
ATOM     27  C   UNL     1      28.922 -23.498 -15.774  0.00  0.00    +0.055 C 
ATOM     28  C   UNL     1      29.020 -24.637 -14.973  0.00  0.00    +0.006 C 
ATOM     29  C   UNL     1      30.061 -22.741 -16.053  0.00  0.00    +0.006 C 
BRANCH  27  32
ATOM     30  O   UNL     1      27.286 -23.456 -17.458  0.00  0.00    -0.268 OA
ATOM     31  N   UNL     1      26.826 -22.306 -15.515  0.00  0.00    -0.193 N 
ATOM     32  C   UNL     1      27.634 -23.100 -16.317  0.00  0.00    +0.268 C 
ATOM     33  H   UNL     1      27.109 -22.030 -14.613  0.00  0.00    +0.183 HD
BRANCH  31  34
ATOM     34  O   UNL     1      25.590 -21.916 -16.050  0.00  0.00    -0.295 OA
ATOM     35  H   UNL     1      25.564 -22.128 -16.996  0.00  0.00    +0.241 HD
ENDBRANCH  31  34
ENDBRANCH  27  32
ENDBRANCH  21  24
ENDBRANCH  19  22
ENDBRANCH   1  19
TORSDOF 10
ENDMDL
MODEL 9
REMARK VINA RESULT:     -10.4      2.244      3.865
REMARK  Name = 9804992
REMARK  10 active torsions:
REMARK  status: ('A' for Active; 'I' for Inactive)
REMARK    1  A    between atoms: C_1  and  C_9
REMARK    2  A    between atoms: C_1  and  O_19
REMARK    3  A    between atoms: C_2  and  C_12
REMARK    4  A    between atoms: C_12  and  N_13
REMARK    5  A    between atoms: N_13  and  C_15
REMARK    6  A    between atoms: N_13  and  C_17
REMARK    7  A    between atoms: O_19  and  C_22
REMARK    8  A    between atoms: N_21  and  C_24
REMARK    9  A    between atoms: C_27  and  C_32
REMARK   10  A    between atoms: N_31  and  O_34
REMARK                            x       y       z     vdW  Elec       q    Type
REMARK                         _______ _______ _______ _____ _____    ______ ____
ROOT
ATOM      1  C   UNL     1      35.029 -19.073 -22.741  0.00  0.00    +0.237 C 
ENDROOT
BRANCH   1   9
ATOM      2  C   UNL     1      35.691 -22.434 -17.196  0.00  0.00    -0.043 C 
ATOM      3  C   UNL     1      36.229 -21.009 -19.093  0.00  0.00    -0.000 C 
ATOM      4  C   UNL     1      34.908 -21.168 -19.578  0.00  0.00    -0.000 C 
ATOM      5  C   UNL     1      36.604 -21.649 -17.901  0.00  0.00    -0.006 C 
ATOM      6  C   UNL     1      34.393 -22.589 -17.672  0.00  0.00    -0.006 C 
ATOM      7  C   UNL     1      34.002 -21.962 -18.855  0.00  0.00    -0.000 C 
ATOM      8  C   UNL     1      34.533 -20.529 -20.770  0.00  0.00    -0.001 C 
ATOM      9  C   UNL     1      35.446 -19.744 -21.476  0.00  0.00    +0.021 C 
ATOM     10  C   UNL     1      37.134 -20.216 -19.816  0.00  0.00    -0.000 C 
ATOM     11  C   UNL     1      36.744 -19.587 -20.999  0.00  0.00    -0.001 C 
BRANCH   2  12
ATOM     12  C   UNL     1      36.107 -23.106 -15.931  0.00  0.00    -0.050 C 
BRANCH  12  13
ATOM     13  N   UNL     1      35.122 -24.084 -15.470  0.00  0.00    +0.390 N 
ATOM     14  H   UNL     1      34.456 -24.255 -16.223  0.00  0.00    -0.079 HD
BRANCH  13  15
ATOM     15  C   UNL     1      35.777 -25.349 -15.137  0.00  0.00    -0.077 C 
ATOM     16  C   UNL     1      37.161 -25.114 -14.557  0.00  0.00    -0.025 C 
ENDBRANCH  13  15
BRANCH  13  17
ATOM     17  C   UNL     1      34.391 -23.566 -14.315  0.00  0.00    -0.077 C 
ATOM     18  C   UNL     1      32.890 -23.615 -14.548  0.00  0.00    -0.025 C 
ENDBRANCH  13  17
ENDBRANCH  12  13
ENDBRANCH   2  12
ENDBRANCH   1   9
BRANCH   1  19
ATOM     19  O   UNL     1      35.713 -17.832 -22.865  0.00  0.00    -0.429 OA
BRANCH  19  22
ATOM     20  O   UNL     1      34.575 -16.477 -24.313  0.00  0.00    -0.226 OA
ATOM     21  N   UNL     1      34.679 -16.030 -22.017  0.00  0.00    -0.250 N 
ATOM     22  C   UNL     1      34.943 -16.737 -23.173  0.00  0.00    +0.406 C 
ATOM     23  H   UNL     1      35.063 -16.399 -21.188  0.00  0.00    +0.158 HD
BRANCH  21  24
ATOM     24  C   UNL     1      33.925 -14.843 -21.875  0.00  0.00    +0.053 C 
ATOM     25  C   UNL     1      33.019 -14.715 -20.821  0.00  0.00    +0.015 C 
ATOM     26  C   UNL     1      34.084 -13.802 -22.789  0.00  0.00    +0.015 C 
ATOM     27  C   UNL     1      32.434 -12.502 -21.596  0.00  0.00    +0.055 C 
ATOM     28  C   UNL     1      32.274 -13.544 -20.681  0.00  0.00    +0.006 C 
ATOM     29  C   UNL     1      33.339 -12.631 -22.649  0.00  0.00    +0.006 C 
BRANCH  27  32
ATOM     30  O   UNL     1      30.590 -11.279 -20.808  0.00  0.00    -0.268 OA
ATOM     31  N   UNL     1      32.151 -10.139 -22.063  0.00  0.00    -0.193 N 
ATOM     32  C   UNL     1      31.657 -11.282 -21.450  0.00  0.00    +0.268 C 
ATOM     33  H   UNL     1      32.997 -10.150 -22.568  0.00  0.00    +0.183 HD
BRANCH  31  34
ATOM     34  O   UNL     1      31.390  -8.969 -21.929  0.00  0.00    -0.295 OA
ATOM     35  H   UNL     1      31.077  -8.684 -22.802  0.00  0.00    +0.241 HD
ENDBRANCH  31  34
ENDBRANCH  27  32
ENDBRANCH  21  24
ENDBRANCH  19  22
ENDBRANCH   1  19
TORSDOF 10
ENDMDL
