MODEL 1
REMARK VINA RESULT:     -12.5      0.000      0.000
REMARK  Name = 115237
REMARK  5 active torsions:
REMARK  status: ('A' for Active; 'I' for Inactive)
REMARK    1  A    between atoms: N_1  and  C_18
REMARK    2  A    between atoms: C_2  and  C_11
REMARK    3  A    between atoms: C_18  and  C_19
REMARK    4  A    between atoms: C_19  and  C_23
REMARK    5  A    between atoms: C_25  and  O_32
REMARK                            x       y       z     vdW  Elec       q    Type
REMARK                         _______ _______ _______ _____ _____    ______ ____
ROOT
ATOM      1  N   UNL     1      36.067 -19.771 -20.105  0.00  0.00    +0.387 N 
ATOM      2  C   UNL     1      35.521 -18.596 -22.737  0.00  0.00    +0.039 C 
ATOM      3  C   UNL     1      34.405 -19.127 -21.822  0.00  0.00    -0.017 C 
ATOM      4  C   UNL     1      36.744 -18.199 -21.892  0.00  0.00    -0.017 C 
ATOM      5  C   UNL     1      34.922 -20.234 -20.902  0.00  0.00    -0.077 C 
ATOM      6  C   UNL     1      37.175 -19.340 -20.969  0.00  0.00    -0.077 C 
ATOM      7  H   UNL     1      35.764 -18.966 -19.557  0.00  0.00    -0.080 HD
ENDROOT
BRANCH   2  11
ATOM      8  F   UNL     1      33.481 -12.239 -23.535  0.00  0.00    -0.204 F 
ATOM      9  O   UNL     1      34.495 -16.514 -25.492  0.00  0.00    -0.354 OA
ATOM     10  N   UNL     1      34.937 -17.715 -24.952  0.00  0.00    -0.081 NA
ATOM     11  C   UNL     1      35.053 -17.483 -23.646  0.00  0.00    +0.100 A 
ATOM     12  C   UNL     1      34.706 -16.173 -23.288  0.00  0.00    +0.054 A 
ATOM     13  C   UNL     1      34.358 -15.594 -24.497  0.00  0.00    +0.179 A 
ATOM     14  C   UNL     1      34.639 -15.400 -22.119  0.00  0.00    +0.007 C 
ATOM     15  C   UNL     1      33.939 -14.275 -24.643  0.00  0.00    +0.070 C 
ATOM     16  C   UNL     1      34.219 -14.067 -22.230  0.00  0.00    +0.030 C 
ATOM     17  C   UNL     1      33.877 -13.518 -23.470  0.00  0.00    +0.143 C 
ENDBRANCH   2  11
BRANCH   1  18
ATOM     18  C   UNL     1      36.511 -20.822 -19.190  0.00  0.00    -0.076 C 
BRANCH  18  19
ATOM     19  C   UNL     1      35.598 -22.035 -19.311  0.00  0.00    -0.007 C 
BRANCH  19  23
ATOM     20  O   UNL     1      32.869 -22.348 -18.866  0.00  0.00    -0.274 OA
ATOM     21  N   UNL     1      33.092 -23.063 -16.660  0.00  0.00    -0.235 N 
ATOM     22  N   UNL     1      35.234 -23.060 -15.655  0.00  0.00    -0.397 NA
ATOM     23  C   UNL     1      35.056 -22.432 -17.969  0.00  0.00    +0.123 C 
ATOM     24  C   UNL     1      31.640 -23.211 -16.531  0.00  0.00    +0.100 C 
ATOM     25  C   UNL     1      33.384 -23.744 -14.265  0.00  0.00    +0.177 C 
ATOM     26  C   UNL     1      31.198 -24.082 -15.371  0.00  0.00    +0.025 C 
ATOM     27  C   UNL     1      31.882 -23.595 -14.113  0.00  0.00    +0.040 C 
ATOM     28  C   UNL     1      33.952 -23.240 -15.588  0.00  0.00    +0.192 C 
ATOM     29  C   UNL     1      33.572 -22.610 -17.891  0.00  0.00    +0.237 C 
ATOM     30  C   UNL     1      35.774 -22.656 -16.851  0.00  0.00    +0.097 C 
ATOM     31  C   UNL     1      37.266 -22.468 -16.785  0.00  0.00    +0.062 C 
BRANCH  25  32
ATOM     32  O   UNL     1      34.022 -23.041 -13.209  0.00  0.00    -0.376 OA
ATOM     33  H   UNL     1      34.263 -23.664 -12.506  0.00  0.00    +0.211 HD
ENDBRANCH  25  32
ENDBRANCH  19  23
ENDBRANCH  18  19
ENDBRANCH   1  18
TORSDOF 5
ENDMDL
MODEL 2
REMARK VINA RESULT:     -12.3      2.188      3.696
REMARK  Name = 115237
REMARK  5 active torsions:
REMARK  status: ('A' for Active; 'I' for Inactive)
REMARK    1  A    between atoms: N_1  and  C_18
REMARK    2  A    between atoms: C_2  and  C_11
REMARK    3  A    between atoms: C_18  and  C_19
REMARK    4  A    between atoms: C_19  and  C_23
REMARK    5  A    between atoms: C_25  and  O_32
REMARK                            x       y       z     vdW  Elec       q    Type
REMARK                         _______ _______ _______ _____ _____    ______ ____
ROOT
ATOM      1  N   UNL     1      34.103 -22.547 -19.085  0.00  0.00    +0.387 N 
ATOM      2  C   UNL     1      34.661 -19.970 -20.369  0.00  0.00    +0.039 C 
ATOM      3  C   UNL     1      35.690 -21.111 -20.328  0.00  0.00    -0.017 C 
ATOM      4  C   UNL     1      33.239 -20.545 -20.254  0.00  0.00    -0.017 C 
ATOM      5  C   UNL     1      35.471 -22.011 -19.110  0.00  0.00    -0.077 C 
ATOM      6  C   UNL     1      33.109 -21.465 -19.039  0.00  0.00    -0.077 C 
ATOM      7  H   UNL     1      33.955 -23.073 -19.947  0.00  0.00    -0.080 HD
ENDROOT
BRANCH   2  11
ATOM      8  F   UNL     1      34.826 -13.787 -23.010  0.00  0.00    -0.204 F 
ATOM      9  O   UNL     1      35.179 -18.543 -23.637  0.00  0.00    -0.354 OA
ATOM     10  N   UNL     1      35.076 -19.618 -22.763  0.00  0.00    -0.081 NA
ATOM     11  C   UNL     1      34.832 -19.072 -21.574  0.00  0.00    +0.100 A 
ATOM     12  C   UNL     1      34.768 -17.672 -21.615  0.00  0.00    +0.054 A 
ATOM     13  C   UNL     1      34.995 -17.382 -22.949  0.00  0.00    +0.179 A 
ATOM     14  C   UNL     1      34.551 -16.616 -20.716  0.00  0.00    +0.007 C 
ATOM     15  C   UNL     1      35.027 -16.095 -23.478  0.00  0.00    +0.070 C 
ATOM     16  C   UNL     1      34.576 -15.306 -21.216  0.00  0.00    +0.030 C 
ATOM     17  C   UNL     1      34.810 -15.054 -22.572  0.00  0.00    +0.143 C 
ENDBRANCH   2  11
BRANCH   1  18
ATOM     18  C   UNL     1      33.928 -23.450 -17.947  0.00  0.00    -0.076 C 
BRANCH  18  19
ATOM     19  C   UNL     1      33.211 -22.726 -16.816  0.00  0.00    -0.007 C 
BRANCH  19  23
ATOM     20  O   UNL     1      35.915 -22.539 -16.184  0.00  0.00    -0.274 OA
ATOM     21  N   UNL     1      35.675 -23.283 -13.989  0.00  0.00    -0.235 N 
ATOM     22  N   UNL     1      33.556 -24.035 -13.250  0.00  0.00    -0.397 NA
ATOM     23  C   UNL     1      33.744 -23.160 -15.481  0.00  0.00    +0.123 C 
ATOM     24  C   UNL     1      37.112 -23.135 -13.751  0.00  0.00    +0.100 C 
ATOM     25  C   UNL     1      35.371 -24.171 -11.665  0.00  0.00    +0.177 C 
ATOM     26  C   UNL     1      37.505 -23.087 -12.287  0.00  0.00    +0.025 C 
ATOM     27  C   UNL     1      36.882 -24.271 -11.581  0.00  0.00    +0.040 C 
ATOM     28  C   UNL     1      34.822 -23.836 -13.048  0.00  0.00    +0.192 C 
ATOM     29  C   UNL     1      35.210 -22.955 -15.265  0.00  0.00    +0.237 C 
ATOM     30  C   UNL     1      33.029 -23.692 -14.470  0.00  0.00    +0.097 C 
ATOM     31  C   UNL     1      31.557 -23.991 -14.576  0.00  0.00    +0.062 C 
BRANCH  25  32
ATOM     32  O   UNL     1      34.807 -25.406 -11.248  0.00  0.00    -0.376 OA
ATOM     33  H   UNL     1      35.072 -26.107 -11.863  0.00  0.00    +0.211 HD
ENDBRANCH  25  32
ENDBRANCH  19  23
ENDBRANCH  18  19
ENDBRANCH   1  18
TORSDOF 5
ENDMDL
MODEL 3
REMARK VINA RESULT:     -12.3      3.336     10.281
REMARK  Name = 115237
REMARK  5 active torsions:
REMARK  status: ('A' for Active; 'I' for Inactive)
REMARK    1  A    between atoms: N_1  and  C_18
REMARK    2  A    between atoms: C_2  and  C_11
REMARK    3  A    between atoms: C_18  and  C_19
REMARK    4  A    between atoms: C_19  and  C_23
REMARK    5  A    between atoms: C_25  and  O_32
REMARK                            x       y       z     vdW  Elec       q    Type
REMARK                         _______ _______ _______ _____ _____    ______ ____
ROOT
ATOM      1  N   UNL     1      35.698 -19.259 -20.778  0.00  0.00    +0.387 N 
ATOM      2  C   UNL     1      34.808 -21.682 -19.386  0.00  0.00    +0.039 C 
ATOM      3  C   UNL     1      36.199 -21.067 -19.164  0.00  0.00    -0.017 C 
ATOM      4  C   UNL     1      33.828 -20.598 -19.866  0.00  0.00    -0.017 C 
ATOM      5  C   UNL     1      36.669 -20.296 -20.399  0.00  0.00    -0.077 C 
ATOM      6  C   UNL     1      34.384 -19.844 -21.076  0.00  0.00    -0.077 C 
ATOM      7  H   UNL     1      35.589 -18.626 -19.985  0.00  0.00    -0.080 HD
ENDROOT
BRANCH   2  11
ATOM      8  F   UNL     1      35.892 -24.145 -13.223  0.00  0.00    -0.204 F 
ATOM      9  O   UNL     1      32.906 -23.523 -16.942  0.00  0.00    -0.354 OA
ATOM     10  N   UNL     1      33.053 -22.896 -18.173  0.00  0.00    -0.081 NA
ATOM     11  C   UNL     1      34.301 -22.433 -18.176  0.00  0.00    +0.100 A 
ATOM     12  C   UNL     1      34.998 -22.726 -16.994  0.00  0.00    +0.054 A 
ATOM     13  C   UNL     1      34.068 -23.420 -16.240  0.00  0.00    +0.179 A 
ATOM     14  C   UNL     1      36.276 -22.500 -16.461  0.00  0.00    +0.007 C 
ATOM     15  C   UNL     1      34.309 -23.921 -14.965  0.00  0.00    +0.070 C 
ATOM     16  C   UNL     1      36.554 -22.994 -15.179  0.00  0.00    +0.030 C 
ATOM     17  C   UNL     1      35.587 -23.690 -14.447  0.00  0.00    +0.143 C 
ENDBRANCH   2  11
BRANCH   1  18
ATOM     18  C   UNL     1      36.189 -18.494 -21.925  0.00  0.00    -0.076 C 
BRANCH  18  19
ATOM     19  C   UNL     1      35.083 -18.345 -22.960  0.00  0.00    -0.007 C 
BRANCH  19  23
ATOM     20  O   UNL     1      34.806 -17.311 -25.529  0.00  0.00    -0.274 OA
ATOM     21  N   UNL     1      34.220 -15.166 -24.835  0.00  0.00    -0.235 N 
ATOM     22  N   UNL     1      34.275 -14.642 -22.528  0.00  0.00    -0.397 NA
ATOM     23  C   UNL     1      34.767 -16.898 -23.201  0.00  0.00    +0.123 C 
ATOM     24  C   UNL     1      34.085 -14.723 -26.225  0.00  0.00    +0.100 C 
ATOM     25  C   UNL     1      33.680 -12.853 -24.034  0.00  0.00    +0.177 C 
ATOM     26  C   UNL     1      33.284 -13.447 -26.402  0.00  0.00    +0.025 C 
ATOM     27  C   UNL     1      33.842 -12.393 -25.469  0.00  0.00    +0.040 C 
ATOM     28  C   UNL     1      34.104 -14.294 -23.765  0.00  0.00    +0.192 C 
ATOM     29  C   UNL     1      34.598 -16.495 -24.632  0.00  0.00    +0.237 C 
ATOM     30  C   UNL     1      34.606 -15.947 -22.259  0.00  0.00    +0.097 C 
ATOM     31  C   UNL     1      34.793 -16.212 -20.788  0.00  0.00    +0.062 C 
BRANCH  25  32
ATOM     32  O   UNL     1      34.441 -12.000 -23.191  0.00  0.00    -0.376 OA
ATOM     33  H   UNL     1      34.899 -11.337 -23.731  0.00  0.00    +0.211 HD
ENDBRANCH  25  32
ENDBRANCH  19  23
ENDBRANCH  18  19
ENDBRANCH   1  18
TORSDOF 5
ENDMDL
MODEL 4
REMARK VINA RESULT:     -12.3      3.352     10.357
REMARK  Name = 115237
REMARK  5 active torsions:
REMARK  status: ('A' for Active; 'I' for Inactive)
REMARK    1  A    between atoms: N_1  and  C_18
REMARK    2  A    between atoms: C_2  and  C_11
REMARK    3  A    between atoms: C_18  and  C_19
REMARK    4  A    between atoms: C_19  and  C_23
REMARK    5  A    between atoms: C_25  and  O_32
REMARK                            x       y       z     vdW  Elec       q    Type
REMARK                         _______ _______ _______ _____ _____    ______ ____
ROOT
ATOM      1  N   UNL     1      34.618 -20.590 -19.899  0.00  0.00    +0.387 N 
ATOM      2  C   UNL     1      34.349 -22.688 -17.867  0.00  0.00    +0.039 C 
ATOM      3  C   UNL     1      35.678 -21.964 -18.134  0.00  0.00    -0.017 C 
ATOM      4  C   UNL     1      33.172 -21.793 -18.291  0.00  0.00    -0.017 C 
ATOM      5  C   UNL     1      35.757 -21.463 -19.578  0.00  0.00    -0.077 C 
ATOM      6  C   UNL     1      33.342 -21.298 -19.729  0.00  0.00    -0.077 C 
ATOM      7  H   UNL     1      34.631 -19.804 -19.249  0.00  0.00    -0.080 HD
ENDROOT
BRANCH   2  11
ATOM      8  F   UNL     1      30.477 -24.467 -12.664  0.00  0.00    -0.204 F 
ATOM      9  O   UNL     1      34.880 -23.851 -14.498  0.00  0.00    -0.354 OA
ATOM     10  N   UNL     1      35.332 -23.424 -15.741  0.00  0.00    -0.081 NA
ATOM     11  C   UNL     1      34.227 -23.178 -16.442  0.00  0.00    +0.100 A 
ATOM     12  C   UNL     1      33.051 -23.422 -15.717  0.00  0.00    +0.054 A 
ATOM     13  C   UNL     1      33.519 -23.849 -14.486  0.00  0.00    +0.179 A 
ATOM     14  C   UNL     1      31.666 -23.343 -15.930  0.00  0.00    +0.007 C 
ATOM     15  C   UNL     1      32.702 -24.215 -13.421  0.00  0.00    +0.070 C 
ATOM     16  C   UNL     1      30.814 -23.703 -14.876  0.00  0.00    +0.030 C 
ATOM     17  C   UNL     1      31.325 -24.131 -13.647  0.00  0.00    +0.143 C 
ENDBRANCH   2  11
BRANCH   1  18
ATOM     18  C   UNL     1      34.739 -20.074 -21.262  0.00  0.00    -0.076 C 
BRANCH  18  19
ATOM     19  C   UNL     1      35.681 -18.878 -21.282  0.00  0.00    -0.007 C 
BRANCH  19  23
ATOM     20  O   UNL     1      34.963 -16.349 -20.369  0.00  0.00    -0.274 OA
ATOM     21  N   UNL     1      34.489 -15.485 -22.481  0.00  0.00    -0.235 N 
ATOM     22  N   UNL     1      34.562 -16.921 -24.360  0.00  0.00    -0.397 NA
ATOM     23  C   UNL     1      35.176 -17.814 -22.213  0.00  0.00    +0.123 C 
ATOM     24  C   UNL     1      34.146 -14.184 -21.902  0.00  0.00    +0.100 C 
ATOM     25  C   UNL     1      33.909 -14.634 -24.765  0.00  0.00    +0.177 C 
ATOM     26  C   UNL     1      34.149 -13.036 -22.893  0.00  0.00    +0.025 C 
ATOM     27  C   UNL     1      33.299 -13.425 -24.084  0.00  0.00    +0.040 C 
ATOM     28  C   UNL     1      34.324 -15.763 -23.828  0.00  0.00    +0.192 C 
ATOM     29  C   UNL     1      34.876 -16.489 -21.589  0.00  0.00    +0.237 C 
ATOM     30  C   UNL     1      34.988 -17.939 -23.542  0.00  0.00    +0.097 C 
ATOM     31  C   UNL     1      35.209 -19.231 -24.283  0.00  0.00    +0.062 C 
BRANCH  25  32
ATOM     32  O   UNL     1      32.973 -15.152 -25.701  0.00  0.00    -0.376 OA
ATOM     33  H   UNL     1      33.103 -16.109 -25.791  0.00  0.00    +0.211 HD
ENDBRANCH  25  32
ENDBRANCH  19  23
ENDBRANCH  18  19
ENDBRANCH   1  18
TORSDOF 5
ENDMDL
MODEL 5
REMARK VINA RESULT:     -12.3      1.760      2.577
REMARK  Name = 115237
REMARK  5 active torsions:
REMARK  status: ('A' for Active; 'I' for Inactive)
REMARK    1  A    between atoms: N_1  and  C_18
REMARK    2  A    between atoms: C_2  and  C_11
REMARK    3  A    between atoms: C_18  and  C_19
REMARK    4  A    between atoms: C_19  and  C_23
REMARK    5  A    between atoms: C_25  and  O_32
REMARK                            x       y       z     vdW  Elec       q    Type
REMARK                         _______ _______ _______ _____ _____    ______ ____
ROOT
ATOM      1  N   UNL     1      34.629 -22.144 -19.547  0.00  0.00    +0.387 N 
ATOM      2  C   UNL     1      34.904 -19.426 -20.615  0.00  0.00    +0.039 C 
ATOM      3  C   UNL     1      36.075 -20.421 -20.577  0.00  0.00    -0.017 C 
ATOM      4  C   UNL     1      33.570 -20.192 -20.639  0.00  0.00    -0.017 C 
ATOM      5  C   UNL     1      35.909 -21.431 -19.440  0.00  0.00    -0.077 C 
ATOM      6  C   UNL     1      33.495 -21.211 -19.500  0.00  0.00    -0.077 C 
ATOM      7  H   UNL     1      34.608 -22.619 -20.450  0.00  0.00    -0.080 HD
ENDROOT
BRANCH   2  11
ATOM      8  F   UNL     1      34.523 -13.073 -22.786  0.00  0.00    -0.204 F 
ATOM      9  O   UNL     1      35.384 -17.707 -23.745  0.00  0.00    -0.354 OA
ATOM     10  N   UNL     1      35.362 -18.852 -22.957  0.00  0.00    -0.081 NA
ATOM     11  C   UNL     1      35.023 -18.426 -21.742  0.00  0.00    +0.100 A 
ATOM     12  C   UNL     1      34.816 -17.040 -21.683  0.00  0.00    +0.054 A 
ATOM     13  C   UNL     1      35.058 -16.627 -22.982  0.00  0.00    +0.179 A 
ATOM     14  C   UNL     1      34.462 -16.084 -20.719  0.00  0.00    +0.007 C 
ATOM     15  C   UNL     1      34.976 -15.306 -23.414  0.00  0.00    +0.070 C 
ATOM     16  C   UNL     1      34.369 -14.743 -21.120  0.00  0.00    +0.030 C 
ATOM     17  C   UNL     1      34.622 -14.365 -22.443  0.00  0.00    +0.143 C 
ENDBRANCH   2  11
BRANCH   1  18
ATOM     18  C   UNL     1      34.511 -23.146 -18.487  0.00  0.00    -0.076 C 
BRANCH  18  19
ATOM     19  C   UNL     1      34.472 -22.460 -17.128  0.00  0.00    -0.007 C 
BRANCH  19  23
ATOM     20  O   UNL     1      31.712 -22.250 -17.415  0.00  0.00    -0.274 OA
ATOM     21  N   UNL     1      31.203 -23.729 -15.688  0.00  0.00    -0.235 N 
ATOM     22  N   UNL     1      32.956 -24.591 -14.351  0.00  0.00    -0.397 NA
ATOM     23  C   UNL     1      33.524 -23.164 -16.201  0.00  0.00    +0.123 C 
ATOM     24  C   UNL     1      29.768 -23.562 -15.929  0.00  0.00    +0.100 C 
ATOM     25  C   UNL     1      30.712 -25.259 -13.764  0.00  0.00    +0.177 C 
ATOM     26  C   UNL     1      28.900 -24.655 -15.335  0.00  0.00    +0.025 C 
ATOM     27  C   UNL     1      29.265 -24.821 -13.875  0.00  0.00    +0.040 C 
ATOM     28  C   UNL     1      31.694 -24.472 -14.626  0.00  0.00    +0.192 C 
ATOM     29  C   UNL     1      32.069 -22.999 -16.507  0.00  0.00    +0.237 C 
ATOM     30  C   UNL     1      33.861 -23.932 -15.146  0.00  0.00    +0.097 C 
ATOM     31  C   UNL     1      35.286 -24.140 -14.706  0.00  0.00    +0.062 C 
BRANCH  25  32
ATOM     32  O   UNL     1      31.121 -25.148 -12.408  0.00  0.00    -0.376 OA
ATOM     33  H   UNL     1      31.815 -24.476 -12.334  0.00  0.00    +0.211 HD
ENDBRANCH  25  32
ENDBRANCH  19  23
ENDBRANCH  18  19
ENDBRANCH   1  18
TORSDOF 5
ENDMDL
MODEL 6
REMARK VINA RESULT:     -12.1      4.952     11.029
REMARK  Name = 115237
REMARK  5 active torsions:
REMARK  status: ('A' for Active; 'I' for Inactive)
REMARK    1  A    between atoms: N_1  and  C_18
REMARK    2  A    between atoms: C_2  and  C_11
REMARK    3  A    between atoms: C_18  and  C_19
REMARK    4  A    between atoms: C_19  and  C_23
REMARK    5  A    between atoms: C_25  and  O_32
REMARK                            x       y       z     vdW  Elec       q    Type
REMARK                         _______ _______ _______ _____ _____    ______ ____
ROOT
ATOM      1  N   UNL     1      34.814 -14.621 -22.582  0.00  0.00    +0.387 N 
ATOM      2  C   UNL     1      34.755 -17.412 -21.681  0.00  0.00    +0.039 C 
ATOM      3  C   UNL     1      35.515 -16.968 -22.941  0.00  0.00    -0.017 C 
ATOM      4  C   UNL     1      34.616 -16.228 -20.710  0.00  0.00    -0.017 C 
ATOM      5  C   UNL     1      34.883 -15.718 -23.558  0.00  0.00    -0.077 C 
ATOM      6  C   UNL     1      34.017 -15.005 -21.408  0.00  0.00    -0.077 C 
ATOM      7  H   UNL     1      35.763 -14.421 -22.266  0.00  0.00    -0.080 HD
ENDROOT
BRANCH   2  11
ATOM      8  F   UNL     1      33.973 -23.370 -18.662  0.00  0.00    -0.204 F 
ATOM      9  O   UNL     1      36.920 -19.939 -20.300  0.00  0.00    -0.354 OA
ATOM     10  N   UNL     1      36.690 -18.724 -20.932  0.00  0.00    -0.081 NA
ATOM     11  C   UNL     1      35.365 -18.633 -21.030  0.00  0.00    +0.100 A 
ATOM     12  C   UNL     1      34.697 -19.740 -20.489  0.00  0.00    +0.054 A 
ATOM     13  C   UNL     1      35.729 -20.544 -20.037  0.00  0.00    +0.179 A 
ATOM     14  C   UNL     1      33.372 -20.172 -20.320  0.00  0.00    +0.007 C 
ATOM     15  C   UNL     1      35.548 -21.776 -19.415  0.00  0.00    +0.070 C 
ATOM     16  C   UNL     1      33.154 -21.408 -19.696  0.00  0.00    +0.030 C 
ATOM     17  C   UNL     1      34.224 -22.193 -19.253  0.00  0.00    +0.143 C 
ENDBRANCH   2  11
BRANCH   1  18
ATOM     18  C   UNL     1      34.261 -13.418 -23.203  0.00  0.00    -0.076 C 
BRANCH  18  19
ATOM     19  C   UNL     1      32.818 -13.222 -22.761  0.00  0.00    -0.007 C 
BRANCH  19  23
ATOM     20  O   UNL     1      33.744 -10.932 -24.045  0.00  0.00    -0.274 OA
ATOM     21  N   UNL     1      32.856  -9.440 -22.490  0.00  0.00    -0.235 N 
ATOM     22  N   UNL     1      31.823 -10.286 -20.537  0.00  0.00    -0.397 NA
ATOM     23  C   UNL     1      32.619 -11.852 -22.179  0.00  0.00    +0.123 C 
ATOM     24  C   UNL     1      33.373  -8.299 -23.250  0.00  0.00    +0.100 C 
ATOM     25  C   UNL     1      31.956  -7.885 -20.743  0.00  0.00    +0.177 C 
ATOM     26  C   UNL     1      32.718  -6.973 -22.912  0.00  0.00    +0.025 C 
ATOM     27  C   UNL     1      32.757  -6.784 -21.410  0.00  0.00    +0.040 C 
ATOM     28  C   UNL     1      32.238  -9.293 -21.260  0.00  0.00    +0.192 C 
ATOM     29  C   UNL     1      33.125 -10.712 -23.004  0.00  0.00    +0.237 C 
ATOM     30  C   UNL     1      32.019 -11.561 -21.007  0.00  0.00    +0.097 C 
ATOM     31  C   UNL     1      31.507 -12.617 -20.064  0.00  0.00    +0.062 C 
BRANCH  25  32
ATOM     32  O   UNL     1      32.221  -7.861 -19.347  0.00  0.00    -0.376 OA
ATOM     33  H   UNL     1      31.721  -7.140 -18.936  0.00  0.00    +0.211 HD
ENDBRANCH  25  32
ENDBRANCH  19  23
ENDBRANCH  18  19
ENDBRANCH   1  18
TORSDOF 5
ENDMDL
MODEL 7
REMARK VINA RESULT:     -12.1      4.622     10.834
REMARK  Name = 115237
REMARK  5 active torsions:
REMARK  status: ('A' for Active; 'I' for Inactive)
REMARK    1  A    between atoms: N_1  and  C_18
REMARK    2  A    between atoms: C_2  and  C_11
REMARK    3  A    between atoms: C_18  and  C_19
REMARK    4  A    between atoms: C_19  and  C_23
REMARK    5  A    between atoms: C_25  and  O_32
REMARK                            x       y       z     vdW  Elec       q    Type
REMARK                         _______ _______ _______ _____ _____    ______ ____
ROOT
ATOM      1  N   UNL     1      34.984 -15.263 -23.073  0.00  0.00    +0.387 N 
ATOM      2  C   UNL     1      34.795 -17.851 -21.705  0.00  0.00    +0.039 C 
ATOM      3  C   UNL     1      35.396 -17.703 -23.113  0.00  0.00    -0.017 C 
ATOM      4  C   UNL     1      34.918 -16.521 -20.943  0.00  0.00    -0.017 C 
ATOM      5  C   UNL     1      34.801 -16.500 -23.846  0.00  0.00    -0.077 C 
ATOM      6  C   UNL     1      34.340 -15.361 -21.755  0.00  0.00    -0.077 C 
ATOM      7  H   UNL     1      35.984 -15.130 -22.925  0.00  0.00    -0.080 HD
ENDROOT
BRANCH   2  11
ATOM      8  F   UNL     1      33.884 -23.559 -18.268  0.00  0.00    -0.204 F 
ATOM      9  O   UNL     1      36.899 -20.266 -20.056  0.00  0.00    -0.354 OA
ATOM     10  N   UNL     1      36.697 -19.103 -20.788  0.00  0.00    -0.081 NA
ATOM     11  C   UNL     1      35.377 -19.019 -20.941  0.00  0.00    +0.100 A 
ATOM     12  C   UNL     1      34.686 -20.081 -20.341  0.00  0.00    +0.054 A 
ATOM     13  C   UNL     1      35.698 -20.849 -19.791  0.00  0.00    +0.179 A 
ATOM     14  C   UNL     1      33.354 -20.498 -20.189  0.00  0.00    +0.007 C 
ATOM     15  C   UNL     1      35.490 -22.029 -19.084  0.00  0.00    +0.070 C 
ATOM     16  C   UNL     1      33.109 -21.682 -19.480  0.00  0.00    +0.030 C 
ATOM     17  C   UNL     1      34.159 -22.432 -18.939  0.00  0.00    +0.143 C 
ENDBRANCH   2  11
BRANCH   1  18
ATOM     18  C   UNL     1      34.461 -14.115 -23.813  0.00  0.00    -0.076 C 
BRANCH  18  19
ATOM     19  C   UNL     1      33.098 -13.719 -23.263  0.00  0.00    -0.007 C 
BRANCH  19  23
ATOM     20  O   UNL     1      31.706 -12.701 -21.079  0.00  0.00    -0.274 OA
ATOM     21  N   UNL     1      32.332 -10.486 -21.438  0.00  0.00    -0.235 N 
ATOM     22  N   UNL     1      33.570  -9.936 -23.378  0.00  0.00    -0.397 NA
ATOM     23  C   UNL     1      33.045 -12.247 -22.974  0.00  0.00    +0.123 C 
ATOM     24  C   UNL     1      31.580 -10.053 -20.258  0.00  0.00    +0.100 C 
ATOM     25  C   UNL     1      32.965  -8.110 -21.921  0.00  0.00    +0.177 C 
ATOM     26  C   UNL     1      31.973  -8.687 -19.730  0.00  0.00    +0.025 C 
ATOM     27  C   UNL     1      31.945  -7.699 -20.877  0.00  0.00    +0.040 C 
ATOM     28  C   UNL     1      32.947  -9.588 -22.295  0.00  0.00    +0.192 C 
ATOM     29  C   UNL     1      32.301 -11.851 -21.739  0.00  0.00    +0.237 C 
ATOM     30  C   UNL     1      33.612 -11.268 -23.707  0.00  0.00    +0.097 C 
ATOM     31  C   UNL     1      34.348 -11.530 -24.994  0.00  0.00    +0.062 C 
BRANCH  25  32
ATOM     32  O   UNL     1      32.743  -7.349 -23.100  0.00  0.00    -0.376 OA
ATOM     33  H   UNL     1      32.604  -6.419 -22.863  0.00  0.00    +0.211 HD
ENDBRANCH  25  32
ENDBRANCH  19  23
ENDBRANCH  18  19
ENDBRANCH   1  18
TORSDOF 5
ENDMDL
MODEL 8
REMARK VINA RESULT:     -12.1      3.362     10.297
REMARK  Name = 115237
REMARK  5 active torsions:
REMARK  status: ('A' for Active; 'I' for Inactive)
REMARK    1  A    between atoms: N_1  and  C_18
REMARK    2  A    between atoms: C_2  and  C_11
REMARK    3  A    between atoms: C_18  and  C_19
REMARK    4  A    between atoms: C_19  and  C_23
REMARK    5  A    between atoms: C_25  and  O_32
REMARK                            x       y       z     vdW  Elec       q    Type
REMARK                         _______ _______ _______ _____ _____    ______ ____
ROOT
ATOM      1  N   UNL     1      34.504 -20.032 -20.268  0.00  0.00    +0.387 N 
ATOM      2  C   UNL     1      34.167 -22.318 -18.462  0.00  0.00    +0.039 C 
ATOM      3  C   UNL     1      35.523 -21.624 -18.670  0.00  0.00    -0.017 C 
ATOM      4  C   UNL     1      33.025 -21.337 -18.774  0.00  0.00    -0.017 C 
ATOM      5  C   UNL     1      35.608 -20.979 -20.055  0.00  0.00    -0.077 C 
ATOM      6  C   UNL     1      33.201 -20.701 -20.155  0.00  0.00    -0.077 C 
ATOM      7  H   UNL     1      34.556 -19.319 -19.539  0.00  0.00    -0.080 HD
ENDROOT
BRANCH   2  11
ATOM      8  F   UNL     1      30.288 -24.290 -13.335  0.00  0.00    -0.204 F 
ATOM      9  O   UNL     1      34.677 -23.892 -15.261  0.00  0.00    -0.354 OA
ATOM     10  N   UNL     1      35.133 -23.375 -16.468  0.00  0.00    -0.081 NA
ATOM     11  C   UNL     1      34.037 -22.949 -17.094  0.00  0.00    +0.100 A 
ATOM     12  C   UNL     1      32.865 -23.160 -16.355  0.00  0.00    +0.054 A 
ATOM     13  C   UNL     1      33.323 -23.763 -15.196  0.00  0.00    +0.179 A 
ATOM     14  C   UNL     1      31.489 -22.928 -16.504  0.00  0.00    +0.007 C 
ATOM     15  C   UNL     1      32.505 -24.166 -14.145  0.00  0.00    +0.070 C 
ATOM     16  C   UNL     1      30.635 -23.321 -15.463  0.00  0.00    +0.030 C 
ATOM     17  C   UNL     1      31.137 -23.928 -14.307  0.00  0.00    +0.143 C 
ENDBRANCH   2  11
BRANCH   1  18
ATOM     18  C   UNL     1      34.634 -19.381 -21.572  0.00  0.00    -0.076 C 
BRANCH  18  19
ATOM     19  C   UNL     1      35.600 -18.209 -21.472  0.00  0.00    -0.007 C 
BRANCH  19  23
ATOM     20  O   UNL     1      35.410 -17.893 -24.231  0.00  0.00    -0.274 OA
ATOM     21  N   UNL     1      34.297 -15.849 -24.137  0.00  0.00    -0.235 N 
ATOM     22  N   UNL     1      33.965 -14.809 -22.038  0.00  0.00    -0.397 NA
ATOM     23  C   UNL     1      35.009 -16.974 -22.089  0.00  0.00    +0.123 C 
ATOM     24  C   UNL     1      34.234 -15.785 -25.599  0.00  0.00    +0.100 C 
ATOM     25  C   UNL     1      33.179 -13.611 -23.980  0.00  0.00    +0.177 C 
ATOM     26  C   UNL     1      33.203 -14.813 -26.141  0.00  0.00    +0.025 C 
ATOM     27  C   UNL     1      33.406 -13.471 -25.472  0.00  0.00    +0.040 C 
ATOM     28  C   UNL     1      33.869 -14.807 -23.331  0.00  0.00    +0.192 C 
ATOM     29  C   UNL     1      34.927 -16.966 -23.582  0.00  0.00    +0.237 C 
ATOM     30  C   UNL     1      34.537 -15.899 -21.428  0.00  0.00    +0.097 C 
ATOM     31  C   UNL     1      34.602 -15.763 -19.930  0.00  0.00    +0.062 C 
BRANCH  25  32
ATOM     32  O   UNL     1      33.633 -12.430 -23.335  0.00  0.00    -0.376 OA
ATOM     33  H   UNL     1      33.704 -12.589 -22.381  0.00  0.00    +0.211 HD
ENDBRANCH  25  32
ENDBRANCH  19  23
ENDBRANCH  18  19
ENDBRANCH   1  18
TORSDOF 5
ENDMDL
MODEL 9
REMARK VINA RESULT:     -12.0      2.440      3.456
REMARK  Name = 115237
REMARK  5 active torsions:
REMARK  status: ('A' for Active; 'I' for Inactive)
REMARK    1  A    between atoms: N_1  and  C_18
REMARK    2  A    between atoms: C_2  and  C_11
REMARK    3  A    between atoms: C_18  and  C_19
REMARK    4  A    between atoms: C_19  and  C_23
REMARK    5  A    between atoms: C_25  and  O_32
REMARK                            x       y       z     vdW  Elec       q    Type
REMARK                         _______ _______ _______ _____ _____    ______ ____
ROOT
ATOM      1  N   UNL     1      36.210 -20.506 -19.401  0.00  0.00    +0.387 N 
ATOM      2  C   UNL     1      35.624 -19.018 -21.861  0.00  0.00    +0.039 C 
ATOM      3  C   UNL     1      34.519 -19.605 -20.968  0.00  0.00    -0.017 C 
ATOM      4  C   UNL     1      36.891 -18.767 -21.025  0.00  0.00    -0.017 C 
ATOM      5  C   UNL     1      35.018 -20.830 -20.199  0.00  0.00    -0.077 C 
ATOM      6  C   UNL     1      37.304 -20.022 -20.254  0.00  0.00    -0.077 C 
ATOM      7  H   UNL     1      35.961 -19.757 -18.755  0.00  0.00    -0.080 HD
ENDROOT
BRANCH   2  11
ATOM      8  F   UNL     1      33.352 -12.689 -21.818  0.00  0.00    -0.204 F 
ATOM      9  O   UNL     1      34.709 -16.559 -24.330  0.00  0.00    -0.354 OA
ATOM     10  N   UNL     1      35.166 -17.816 -23.951  0.00  0.00    -0.081 NA
ATOM     11  C   UNL     1      35.173 -17.791 -22.620  0.00  0.00    +0.100 A 
ATOM     12  C   UNL     1      34.739 -16.567 -22.091  0.00  0.00    +0.054 A 
ATOM     13  C   UNL     1      34.455 -15.816 -23.218  0.00  0.00    +0.179 A 
ATOM     14  C   UNL     1      34.549 -15.993 -20.824  0.00  0.00    +0.007 C 
ATOM     15  C   UNL     1      33.987 -14.506 -23.191  0.00  0.00    +0.070 C 
ATOM     16  C   UNL     1      34.076 -14.675 -20.760  0.00  0.00    +0.030 C 
ATOM     17  C   UNL     1      33.802 -13.947 -21.922  0.00  0.00    +0.143 C 
ENDBRANCH   2  11
BRANCH   1  18
ATOM     18  C   UNL     1      36.639 -21.671 -18.628  0.00  0.00    -0.076 C 
BRANCH  18  19
ATOM     19  C   UNL     1      36.610 -21.345 -17.141  0.00  0.00    -0.007 C 
BRANCH  19  23
ATOM     20  O   UNL     1      38.921 -22.412 -16.015  0.00  0.00    -0.274 OA
ATOM     21  N   UNL     1      37.835 -24.149 -14.904  0.00  0.00    -0.235 N 
ATOM     22  N   UNL     1      35.518 -24.475 -15.255  0.00  0.00    -0.397 NA
ATOM     23  C   UNL     1      36.583 -22.601 -16.319  0.00  0.00    +0.123 C 
ATOM     24  C   UNL     1      39.104 -24.624 -14.347  0.00  0.00    +0.100 C 
ATOM     25  C   UNL     1      36.629 -26.050 -13.802  0.00  0.00    +0.177 C 
ATOM     26  C   UNL     1      38.959 -25.543 -13.149  0.00  0.00    +0.025 C 
ATOM     27  C   UNL     1      37.989 -26.649 -13.503  0.00  0.00    +0.040 C 
ATOM     28  C   UNL     1      36.646 -24.837 -14.727  0.00  0.00    +0.192 C 
ATOM     29  C   UNL     1      37.892 -23.028 -15.736  0.00  0.00    +0.237 C 
ATOM     30  C   UNL     1      35.499 -23.355 -16.049  0.00  0.00    +0.097 C 
ATOM     31  C   UNL     1      34.134 -23.059 -16.611  0.00  0.00    +0.062 C 
BRANCH  25  32
ATOM     32  O   UNL     1      35.809 -27.049 -14.392  0.00  0.00    -0.376 OA
ATOM     33  H   UNL     1      35.251 -26.647 -15.075  0.00  0.00    +0.211 HD
ENDBRANCH  25  32
ENDBRANCH  19  23
ENDBRANCH  18  19
ENDBRANCH   1  18
TORSDOF 5
ENDMDL
