MODEL 1
REMARK VINA RESULT:     -11.8      0.000      0.000
REMARK  Name = 9799284
REMARK  5 active torsions:
REMARK  status: ('A' for Active; 'I' for Inactive)
REMARK    1  A    between atoms: N_1  and  C_19
REMARK    2  A    between atoms: C_2  and  C_8
REMARK    3  A    between atoms: C_8  and  N_10
REMARK    4  A    between atoms: C_19  and  C_21
REMARK    5  A    between atoms: C_21  and  C_23
REMARK                            x       y       z     vdW  Elec       q    Type
REMARK                         _______ _______ _______ _____ _____    ______ ____
ROOT
ATOM      1  N   UNL     1      34.499 -16.646 -21.741  0.00  0.00    +0.392 N 
ATOM      2  C   UNL     1      33.597 -13.914 -22.305  0.00  0.00    +0.016 C 
ATOM      3  C   UNL     1      33.879 -14.933 -23.415  0.00  0.00    -0.021 C 
ATOM      4  C   UNL     1      33.239 -14.647 -21.008  0.00  0.00    -0.021 C 
ATOM      5  C   UNL     1      34.919 -15.964 -22.973  0.00  0.00    -0.077 C 
ATOM      6  C   UNL     1      34.300 -15.688 -20.645  0.00  0.00    -0.077 C 
ATOM      7  H   UNL     1      33.606 -17.104 -21.924  0.00  0.00    -0.079 HD
ENDROOT
BRANCH   2   8
ATOM      8  C   UNL     1      32.487 -12.949 -22.714  0.00  0.00    +0.094 C 
BRANCH   8  10
ATOM      9  O   UNL     1      31.485 -10.322 -21.614  0.00  0.00    -0.270 OA
ATOM     10  N   UNL     1      32.998 -11.623 -22.887  0.00  0.00    -0.272 N 
ATOM     11  C   UNL     1      34.189 -11.350 -23.697  0.00  0.00    +0.121 C 
ATOM     12  C   UNL     1      32.460 -10.456 -22.331  0.00  0.00    +0.249 C 
ATOM     13  C   UNL     1      34.328  -9.871 -23.578  0.00  0.00    +0.002 C 
ATOM     14  C   UNL     1      33.312  -9.349 -22.777  0.00  0.00    +0.051 C 
ATOM     15  C   UNL     1      35.278  -9.035 -24.134  0.00  0.00    -0.002 C 
ATOM     16  C   UNL     1      33.199  -8.001 -22.499  0.00  0.00    +0.004 C 
ATOM     17  C   UNL     1      35.187  -7.665 -23.868  0.00  0.00    -0.000 C 
ATOM     18  C   UNL     1      34.157  -7.153 -23.057  0.00  0.00    +0.000 C 
ENDBRANCH   8  10
ENDBRANCH   2   8
BRANCH   1  19
ATOM     19  C   UNL     1      35.477 -17.664 -21.360  0.00  0.00    -0.006 C 
BRANCH  19  21
ATOM     20  O   UNL     1      34.709 -19.312 -22.948  0.00  0.00    -0.294 OA
ATOM     21  C   UNL     1      34.962 -19.029 -21.779  0.00  0.00    +0.152 C 
BRANCH  21  23
ATOM     22  F   UNL     1      34.198 -22.906 -17.835  0.00  0.00    -0.204 F 
ATOM     23  C   UNL     1      34.758 -20.066 -20.723  0.00  0.00    +0.033 C 
ATOM     24  C   UNL     1      33.472 -20.362 -20.332  0.00  0.00    +0.005 C 
ATOM     25  C   UNL     1      35.862 -20.684 -20.185  0.00  0.00    +0.005 C 
ATOM     26  C   UNL     1      33.281 -21.331 -19.347  0.00  0.00    +0.030 C 
ATOM     27  C   UNL     1      35.672 -21.653 -19.201  0.00  0.00    +0.030 C 
ATOM     28  C   UNL     1      34.381 -21.976 -18.781  0.00  0.00    +0.140 C 
ENDBRANCH  21  23
ENDBRANCH  19  21
ENDBRANCH   1  19
TORSDOF 5
ENDMDL
MODEL 2
REMARK VINA RESULT:     -11.5      0.895      1.718
REMARK  Name = 9799284
REMARK  5 active torsions:
REMARK  status: ('A' for Active; 'I' for Inactive)
REMARK    1  A    between atoms: N_1  and  C_19
REMARK    2  A    between atoms: C_2  and  C_8
REMARK    3  A    between atoms: C_8  and  N_10
REMARK    4  A    between atoms: C_19  and  C_21
REMARK    5  A    between atoms: C_21  and  C_23
REMARK                            x       y       z     vdW  Elec       q    Type
REMARK                         _______ _______ _______ _____ _____    ______ ____
ROOT
ATOM      1  N   UNL     1      34.473 -16.525 -21.719  0.00  0.00    +0.392 N 
ATOM      2  C   UNL     1      33.547 -13.806 -22.306  0.00  0.00    +0.016 C 
ATOM      3  C   UNL     1      33.894 -14.812 -23.408  0.00  0.00    -0.021 C 
ATOM      4  C   UNL     1      33.148 -14.553 -21.029  0.00  0.00    -0.021 C 
ATOM      5  C   UNL     1      34.932 -15.828 -22.928  0.00  0.00    -0.077 C 
ATOM      6  C   UNL     1      34.212 -15.577 -20.627  0.00  0.00    -0.077 C 
ATOM      7  H   UNL     1      33.597 -16.998 -21.942  0.00  0.00    -0.079 HD
ENDROOT
BRANCH   2   8
ATOM      8  C   UNL     1      32.439 -12.858 -22.756  0.00  0.00    +0.094 C 
BRANCH   8  10
ATOM      9  O   UNL     1      34.599 -11.692 -24.513  0.00  0.00    -0.270 OA
ATOM     10  N   UNL     1      32.922 -11.513 -22.853  0.00  0.00    -0.272 N 
ATOM     11  C   UNL     1      32.372 -10.430 -22.033  0.00  0.00    +0.121 C 
ATOM     12  C   UNL     1      33.937 -11.065 -23.707  0.00  0.00    +0.249 C 
ATOM     13  C   UNL     1      33.167  -9.252 -22.479  0.00  0.00    +0.002 C 
ATOM     14  C   UNL     1      34.085  -9.627 -23.461  0.00  0.00    +0.051 C 
ATOM     15  C   UNL     1      33.096  -7.938 -22.056  0.00  0.00    -0.002 C 
ATOM     16  C   UNL     1      34.953  -8.731 -24.052  0.00  0.00    +0.004 C 
ATOM     17  C   UNL     1      33.964  -7.009 -22.639  0.00  0.00    -0.000 C 
ATOM     18  C   UNL     1      34.885  -7.402 -23.629  0.00  0.00    +0.000 C 
ENDBRANCH   8  10
ENDBRANCH   2   8
BRANCH   1  19
ATOM     19  C   UNL     1      35.453 -17.528 -21.303  0.00  0.00    -0.006 C 
BRANCH  19  21
ATOM     20  O   UNL     1      34.777 -19.152 -22.954  0.00  0.00    -0.294 OA
ATOM     21  C   UNL     1      34.993 -18.896 -21.772  0.00  0.00    +0.152 C 
BRANCH  21  23
ATOM     22  F   UNL     1      34.264 -22.904 -17.954  0.00  0.00    -0.204 F 
ATOM     23  C   UNL     1      34.797 -19.969 -20.752  0.00  0.00    +0.033 C 
ATOM     24  C   UNL     1      35.906 -20.618 -20.259  0.00  0.00    +0.005 C 
ATOM     25  C   UNL     1      33.518 -20.265 -20.343  0.00  0.00    +0.005 C 
ATOM     26  C   UNL     1      35.724 -21.619 -19.305  0.00  0.00    +0.030 C 
ATOM     27  C   UNL     1      33.335 -21.265 -19.389  0.00  0.00    +0.030 C 
ATOM     28  C   UNL     1      34.438 -21.943 -18.870  0.00  0.00    +0.140 C 
ENDBRANCH  21  23
ENDBRANCH  19  21
ENDBRANCH   1  19
TORSDOF 5
ENDMDL
MODEL 3
REMARK VINA RESULT:     -11.5      1.311      1.698
REMARK  Name = 9799284
REMARK  5 active torsions:
REMARK  status: ('A' for Active; 'I' for Inactive)
REMARK    1  A    between atoms: N_1  and  C_19
REMARK    2  A    between atoms: C_2  and  C_8
REMARK    3  A    between atoms: C_8  and  N_10
REMARK    4  A    between atoms: C_19  and  C_21
REMARK    5  A    between atoms: C_21  and  C_23
REMARK                            x       y       z     vdW  Elec       q    Type
REMARK                         _______ _______ _______ _____ _____    ______ ____
ROOT
ATOM      1  N   UNL     1      34.299 -16.092 -21.501  0.00  0.00    +0.392 N 
ATOM      2  C   UNL     1      32.933 -13.498 -21.491  0.00  0.00    +0.016 C 
ATOM      3  C   UNL     1      33.416 -14.168 -22.782  0.00  0.00    -0.021 C 
ATOM      4  C   UNL     1      32.686 -14.561 -20.416  0.00  0.00    -0.021 C 
ATOM      5  C   UNL     1      34.615 -15.081 -22.519  0.00  0.00    -0.077 C 
ATOM      6  C   UNL     1      33.908 -15.462 -20.232  0.00  0.00    -0.077 C 
ATOM      7  H   UNL     1      33.506 -16.640 -21.836  0.00  0.00    -0.079 HD
ENDROOT
BRANCH   2   8
ATOM      8  C   UNL     1      31.677 -12.667 -21.740  0.00  0.00    +0.094 C 
BRANCH   8  10
ATOM      9  O   UNL     1      31.186 -10.892 -19.347  0.00  0.00    -0.270 OA
ATOM     10  N   UNL     1      31.940 -11.271 -21.558  0.00  0.00    -0.272 N 
ATOM     11  C   UNL     1      32.542 -10.451 -22.614  0.00  0.00    +0.121 C 
ATOM     12  C   UNL     1      31.675 -10.529 -20.401  0.00  0.00    +0.249 C 
ATOM     13  C   UNL     1      32.620  -9.108 -21.974  0.00  0.00    +0.002 C 
ATOM     14  C   UNL     1      32.111  -9.156 -20.676  0.00  0.00    +0.051 C 
ATOM     15  C   UNL     1      33.103  -7.921 -22.490  0.00  0.00    -0.002 C 
ATOM     16  C   UNL     1      32.061  -8.049 -19.852  0.00  0.00    +0.004 C 
ATOM     17  C   UNL     1      33.065  -6.783 -21.677  0.00  0.00    -0.000 C 
ATOM     18  C   UNL     1      32.549  -6.847 -20.369  0.00  0.00    +0.000 C 
ENDBRANCH   8  10
ENDBRANCH   2   8
BRANCH   1  19
ATOM     19  C   UNL     1      35.435 -16.989 -21.299  0.00  0.00    -0.006 C 
BRANCH  19  21
ATOM     20  O   UNL     1      34.944 -18.530 -23.090  0.00  0.00    -0.294 OA
ATOM     21  C   UNL     1      35.105 -18.349 -21.885  0.00  0.00    +0.152 C 
BRANCH  21  23
ATOM     22  F   UNL     1      34.606 -22.692 -18.412  0.00  0.00    -0.204 F 
ATOM     23  C   UNL     1      34.972 -19.510 -20.955  0.00  0.00    +0.033 C 
ATOM     24  C   UNL     1      33.709 -19.947 -20.624  0.00  0.00    +0.005 C 
ATOM     25  C   UNL     1      36.115 -20.098 -20.467  0.00  0.00    +0.005 C 
ATOM     26  C   UNL     1      33.584 -21.032 -19.757  0.00  0.00    +0.030 C 
ATOM     27  C   UNL     1      35.991 -21.183 -19.601  0.00  0.00    +0.030 C 
ATOM     28  C   UNL     1      34.725 -21.650 -19.245  0.00  0.00    +0.140 C 
ENDBRANCH  21  23
ENDBRANCH  19  21
ENDBRANCH   1  19
TORSDOF 5
ENDMDL
MODEL 4
REMARK VINA RESULT:     -11.3      3.661     10.399
REMARK  Name = 9799284
REMARK  5 active torsions:
REMARK  status: ('A' for Active; 'I' for Inactive)
REMARK    1  A    between atoms: N_1  and  C_19
REMARK    2  A    between atoms: C_2  and  C_8
REMARK    3  A    between atoms: C_8  and  N_10
REMARK    4  A    between atoms: C_19  and  C_21
REMARK    5  A    between atoms: C_21  and  C_23
REMARK                            x       y       z     vdW  Elec       q    Type
REMARK                         _______ _______ _______ _____ _____    ______ ____
ROOT
ATOM      1  N   UNL     1      34.249 -14.001 -22.961  0.00  0.00    +0.392 N 
ATOM      2  C   UNL     1      34.819 -16.873 -22.805  0.00  0.00    +0.016 C 
ATOM      3  C   UNL     1      34.777 -16.114 -24.136  0.00  0.00    -0.021 C 
ATOM      4  C   UNL     1      35.156 -15.905 -21.666  0.00  0.00    -0.021 C 
ATOM      5  C   UNL     1      33.851 -14.899 -24.054  0.00  0.00    -0.077 C 
ATOM      6  C   UNL     1      34.218 -14.696 -21.667  0.00  0.00    -0.077 C 
ATOM      7  H   UNL     1      35.208 -13.701 -23.134  0.00  0.00    -0.079 HD
ENDROOT
BRANCH   2   8
ATOM      8  C   UNL     1      35.819 -18.025 -22.860  0.00  0.00    +0.094 C 
BRANCH   8  10
ATOM      9  O   UNL     1      37.700 -19.340 -20.899  0.00  0.00    -0.270 OA
ATOM     10  N   UNL     1      35.554 -18.985 -21.832  0.00  0.00    -0.272 N 
ATOM     11  C   UNL     1      34.204 -19.496 -21.578  0.00  0.00    +0.121 C 
ATOM     12  C   UNL     1      36.502 -19.542 -20.964  0.00  0.00    +0.249 C 
ATOM     13  C   UNL     1      34.425 -20.440 -20.446  0.00  0.00    +0.002 C 
ATOM     14  C   UNL     1      35.773 -20.465 -20.088  0.00  0.00    +0.051 C 
ATOM     15  C   UNL     1      33.509 -21.226 -19.772  0.00  0.00    -0.002 C 
ATOM     16  C   UNL     1      36.259 -21.256 -19.065  0.00  0.00    +0.004 C 
ATOM     17  C   UNL     1      33.975 -22.037 -18.732  0.00  0.00    -0.000 C 
ATOM     18  C   UNL     1      35.338 -22.051 -18.382  0.00  0.00    +0.000 C 
ENDBRANCH   8  10
ENDBRANCH   2   8
BRANCH   1  19
ATOM     19  C   UNL     1      33.388 -12.820 -22.929  0.00  0.00    -0.006 C 
BRANCH  19  21
ATOM     20  O   UNL     1      34.197 -12.174 -25.108  0.00  0.00    -0.294 OA
ATOM     21  C   UNL     1      33.863 -11.831 -23.977  0.00  0.00    +0.152 C 
BRANCH  21  23
ATOM     22  F   UNL     1      34.090  -6.422 -22.610  0.00  0.00    -0.204 F 
ATOM     23  C   UNL     1      33.923 -10.384 -23.612  0.00  0.00    +0.033 C 
ATOM     24  C   UNL     1      32.894  -9.848 -22.871  0.00  0.00    +0.005 C 
ATOM     25  C   UNL     1      35.005  -9.644 -24.029  0.00  0.00    +0.005 C 
ATOM     26  C   UNL     1      32.951  -8.497 -22.529  0.00  0.00    +0.030 C 
ATOM     27  C   UNL     1      35.063  -8.293 -23.688  0.00  0.00    +0.030 C 
ATOM     28  C   UNL     1      34.036  -7.720 -22.938  0.00  0.00    +0.140 C 
ENDBRANCH  21  23
ENDBRANCH  19  21
ENDBRANCH   1  19
TORSDOF 5
ENDMDL
MODEL 5
REMARK VINA RESULT:     -11.2      3.425      5.869
REMARK  Name = 9799284
REMARK  5 active torsions:
REMARK  status: ('A' for Active; 'I' for Inactive)
REMARK    1  A    between atoms: N_1  and  C_19
REMARK    2  A    between atoms: C_2  and  C_8
REMARK    3  A    between atoms: C_8  and  N_10
REMARK    4  A    between atoms: C_19  and  C_21
REMARK    5  A    between atoms: C_21  and  C_23
REMARK                            x       y       z     vdW  Elec       q    Type
REMARK                         _______ _______ _______ _____ _____    ______ ____
ROOT
ATOM      1  N   UNL     1      35.498 -21.466 -19.501  0.00  0.00    +0.392 N 
ATOM      2  C   UNL     1      35.621 -19.144 -21.287  0.00  0.00    +0.016 C 
ATOM      3  C   UNL     1      36.868 -19.940 -20.885  0.00  0.00    -0.021 C 
ATOM      4  C   UNL     1      34.381 -20.038 -21.185  0.00  0.00    -0.021 C 
ATOM      5  C   UNL     1      36.688 -20.604 -19.519  0.00  0.00    -0.077 C 
ATOM      6  C   UNL     1      34.283 -20.699 -19.809  0.00  0.00    -0.077 C 
ATOM      7  H   UNL     1      35.613 -22.176 -20.224  0.00  0.00    -0.079 HD
ENDROOT
BRANCH   2   8
ATOM      8  C   UNL     1      35.767 -18.567 -22.693  0.00  0.00    +0.094 C 
BRANCH   8  10
ATOM      9  O   UNL     1      34.829 -17.019 -25.109  0.00  0.00    -0.270 OA
ATOM     10  N   UNL     1      35.167 -17.270 -22.780  0.00  0.00    -0.272 N 
ATOM     11  C   UNL     1      34.906 -16.455 -21.590  0.00  0.00    +0.121 C 
ATOM     12  C   UNL     1      34.762 -16.630 -23.957  0.00  0.00    +0.249 C 
ATOM     13  C   UNL     1      34.289 -15.228 -22.169  0.00  0.00    +0.002 C 
ATOM     14  C   UNL     1      34.206 -15.333 -23.558  0.00  0.00    +0.051 C 
ATOM     15  C   UNL     1      33.830 -14.094 -21.526  0.00  0.00    -0.002 C 
ATOM     16  C   UNL     1      33.673 -14.336 -24.351  0.00  0.00    +0.004 C 
ATOM     17  C   UNL     1      33.286 -13.068 -22.306  0.00  0.00    -0.000 C 
ATOM     18  C   UNL     1      33.208 -13.188 -23.706  0.00  0.00    +0.000 C 
ENDBRANCH   8  10
ENDBRANCH   2   8
BRANCH   1  19
ATOM     19  C   UNL     1      35.369 -22.133 -18.207  0.00  0.00    -0.006 C 
BRANCH  19  21
ATOM     20  O   UNL     1      33.671 -23.538 -19.191  0.00  0.00    -0.294 OA
ATOM     21  C   UNL     1      34.090 -22.952 -18.196  0.00  0.00    +0.152 C 
BRANCH  21  23
ATOM     22  F   UNL     1      31.201 -23.295 -13.430  0.00  0.00    -0.204 F 
ATOM     23  C   UNL     1      33.317 -23.045 -16.921  0.00  0.00    +0.033 C 
ATOM     24  C   UNL     1      33.991 -23.365 -15.765  0.00  0.00    +0.005 C 
ATOM     25  C   UNL     1      31.963 -22.805 -16.953  0.00  0.00    +0.005 C 
ATOM     26  C   UNL     1      33.269 -23.450 -14.574  0.00  0.00    +0.030 C 
ATOM     27  C   UNL     1      31.242 -22.890 -15.763  0.00  0.00    +0.030 C 
ATOM     28  C   UNL     1      31.894 -23.213 -14.573  0.00  0.00    +0.140 C 
ENDBRANCH  21  23
ENDBRANCH  19  21
ENDBRANCH   1  19
TORSDOF 5
ENDMDL
MODEL 6
REMARK VINA RESULT:     -11.2      1.975      2.998
REMARK  Name = 9799284
REMARK  5 active torsions:
REMARK  status: ('A' for Active; 'I' for Inactive)
REMARK    1  A    between atoms: N_1  and  C_19
REMARK    2  A    between atoms: C_2  and  C_8
REMARK    3  A    between atoms: C_8  and  N_10
REMARK    4  A    between atoms: C_19  and  C_21
REMARK    5  A    between atoms: C_21  and  C_23
REMARK                            x       y       z     vdW  Elec       q    Type
REMARK                         _______ _______ _______ _____ _____    ______ ____
ROOT
ATOM      1  N   UNL     1      35.567 -17.733 -23.106  0.00  0.00    +0.392 N 
ATOM      2  C   UNL     1      34.096 -15.242 -23.582  0.00  0.00    +0.016 C 
ATOM      3  C   UNL     1      34.903 -15.489 -22.302  0.00  0.00    -0.021 C 
ATOM      4  C   UNL     1      34.660 -16.095 -24.723  0.00  0.00    -0.021 C 
ATOM      5  C   UNL     1      34.993 -16.982 -21.981  0.00  0.00    -0.077 C 
ATOM      6  C   UNL     1      34.759 -17.567 -24.322  0.00  0.00    -0.077 C 
ATOM      7  H   UNL     1      36.497 -17.357 -23.293  0.00  0.00    -0.079 HD
ENDROOT
BRANCH   2   8
ATOM      8  C   UNL     1      34.094 -13.761 -23.953  0.00  0.00    +0.094 C 
BRANCH   8  10
ATOM      9  O   UNL     1      33.689 -10.775 -23.763  0.00  0.00    -0.270 OA
ATOM     10  N   UNL     1      33.408 -12.985 -22.964  0.00  0.00    -0.272 N 
ATOM     11  C   UNL     1      32.751 -13.606 -21.810  0.00  0.00    +0.121 C 
ATOM     12  C   UNL     1      33.272 -11.592 -22.962  0.00  0.00    +0.249 C 
ATOM     13  C   UNL     1      32.189 -12.430 -21.088  0.00  0.00    +0.002 C 
ATOM     14  C   UNL     1      32.496 -11.249 -21.766  0.00  0.00    +0.051 C 
ATOM     15  C   UNL     1      31.458 -12.391 -19.916  0.00  0.00    -0.002 C 
ATOM     16  C   UNL     1      32.098 -10.006 -21.317  0.00  0.00    +0.004 C 
ATOM     17  C   UNL     1      31.041 -11.144 -19.439  0.00  0.00    -0.000 C 
ATOM     18  C   UNL     1      31.358  -9.962 -20.134  0.00  0.00    +0.000 C 
ENDBRANCH   8  10
ENDBRANCH   2   8
BRANCH   1  19
ATOM     19  C   UNL     1      35.695 -19.149 -22.765  0.00  0.00    -0.006 C 
BRANCH  19  21
ATOM     20  O   UNL     1      36.974 -18.638 -20.783  0.00  0.00    -0.294 OA
ATOM     21  C   UNL     1      36.056 -19.275 -21.296  0.00  0.00    +0.152 C 
BRANCH  21  23
ATOM     22  F   UNL     1      33.084 -22.778 -18.123  0.00  0.00    -0.204 F 
ATOM     23  C   UNL     1      35.261 -20.211 -20.446  0.00  0.00    +0.033 C 
ATOM     24  C   UNL     1      33.888 -20.149 -20.506  0.00  0.00    +0.005 C 
ATOM     25  C   UNL     1      35.933 -21.100 -19.639  0.00  0.00    +0.005 C 
ATOM     26  C   UNL     1      33.145 -21.025 -19.714  0.00  0.00    +0.030 C 
ATOM     27  C   UNL     1      35.191 -21.975 -18.847  0.00  0.00    +0.030 C 
ATOM     28  C   UNL     1      33.797 -21.937 -18.884  0.00  0.00    +0.140 C 
ENDBRANCH  21  23
ENDBRANCH  19  21
ENDBRANCH   1  19
TORSDOF 5
ENDMDL
MODEL 7
REMARK VINA RESULT:     -11.1      4.412     11.191
REMARK  Name = 9799284
REMARK  5 active torsions:
REMARK  status: ('A' for Active; 'I' for Inactive)
REMARK    1  A    between atoms: N_1  and  C_19
REMARK    2  A    between atoms: C_2  and  C_8
REMARK    3  A    between atoms: C_8  and  N_10
REMARK    4  A    between atoms: C_19  and  C_21
REMARK    5  A    between atoms: C_21  and  C_23
REMARK                            x       y       z     vdW  Elec       q    Type
REMARK                         _______ _______ _______ _____ _____    ______ ____
ROOT
ATOM      1  N   UNL     1      35.600 -19.723 -20.950  0.00  0.00    +0.392 N 
ATOM      2  C   UNL     1      34.381 -21.621 -19.078  0.00  0.00    +0.016 C 
ATOM      3  C   UNL     1      33.567 -20.878 -20.142  0.00  0.00    -0.021 C 
ATOM      4  C   UNL     1      35.842 -21.732 -19.527  0.00  0.00    -0.021 C 
ATOM      5  C   UNL     1      34.213 -19.539 -20.502  0.00  0.00    -0.077 C 
ATOM      6  C   UNL     1      36.413 -20.365 -19.908  0.00  0.00    -0.077 C 
ATOM      7  H   UNL     1      35.589 -20.338 -21.764  0.00  0.00    -0.079 HD
ENDROOT
BRANCH   2   8
ATOM      8  C   UNL     1      33.788 -22.999 -18.795  0.00  0.00    +0.094 C 
BRANCH   8  10
ATOM      9  O   UNL     1      31.318 -22.407 -17.163  0.00  0.00    -0.270 OA
ATOM     10  N   UNL     1      33.545 -23.175 -17.395  0.00  0.00    -0.272 N 
ATOM     11  C   UNL     1      34.564 -23.720 -16.493  0.00  0.00    +0.121 C 
ATOM     12  C   UNL     1      32.355 -22.869 -16.723  0.00  0.00    +0.249 C 
ATOM     13  C   UNL     1      33.865 -23.716 -15.177  0.00  0.00    +0.002 C 
ATOM     14  C   UNL     1      32.570 -23.216 -15.315  0.00  0.00    +0.051 C 
ATOM     15  C   UNL     1      34.328 -24.122 -13.940  0.00  0.00    -0.002 C 
ATOM     16  C   UNL     1      31.697 -23.101 -14.250  0.00  0.00    +0.004 C 
ATOM     17  C   UNL     1      33.465 -24.016 -12.844  0.00  0.00    -0.000 C 
ATOM     18  C   UNL     1      32.161 -23.510 -12.998  0.00  0.00    +0.000 C 
ENDBRANCH   8  10
ENDBRANCH   2   8
BRANCH   1  19
ATOM     19  C   UNL     1      36.186 -18.442 -21.341  0.00  0.00    -0.006 C 
BRANCH  19  21
ATOM     20  O   UNL     1      35.210 -18.552 -23.545  0.00  0.00    -0.294 OA
ATOM     21  C   UNL     1      35.425 -17.889 -22.532  0.00  0.00    +0.152 C 
BRANCH  21  23
ATOM     22  F   UNL     1      33.537 -12.641 -22.281  0.00  0.00    -0.204 F 
ATOM     23  C   UNL     1      34.921 -16.485 -22.465  0.00  0.00    +0.033 C 
ATOM     24  C   UNL     1      34.740 -15.794 -23.641  0.00  0.00    +0.005 C 
ATOM     25  C   UNL     1      34.656 -15.939 -21.231  0.00  0.00    +0.005 C 
ATOM     26  C   UNL     1      34.268 -14.483 -23.579  0.00  0.00    +0.030 C 
ATOM     27  C   UNL     1      34.184 -14.629 -21.168  0.00  0.00    +0.030 C 
ATOM     28  C   UNL     1      33.990 -13.900 -22.341  0.00  0.00    +0.140 C 
ENDBRANCH  21  23
ENDBRANCH  19  21
ENDBRANCH   1  19
TORSDOF 5
ENDMDL
MODEL 8
REMARK VINA RESULT:     -10.9      3.346      9.694
REMARK  Name = 9799284
REMARK  5 active torsions:
REMARK  status: ('A' for Active; 'I' for Inactive)
REMARK    1  A    between atoms: N_1  and  C_19
REMARK    2  A    between atoms: C_2  and  C_8
REMARK    3  A    between atoms: C_8  and  N_10
REMARK    4  A    between atoms: C_19  and  C_21
REMARK    5  A    between atoms: C_21  and  C_23
REMARK                            x       y       z     vdW  Elec       q    Type
REMARK                         _______ _______ _______ _____ _____    ______ ____
ROOT
ATOM      1  N   UNL     1      33.998 -14.552 -23.628  0.00  0.00    +0.392 N 
ATOM      2  C   UNL     1      34.944 -17.249 -22.977  0.00  0.00    +0.016 C 
ATOM      3  C   UNL     1      35.043 -16.661 -24.389  0.00  0.00    -0.021 C 
ATOM      4  C   UNL     1      34.913 -16.117 -21.945  0.00  0.00    -0.021 C 
ATOM      5  C   UNL     1      33.951 -15.620 -24.636  0.00  0.00    -0.077 C 
ATOM      6  C   UNL     1      33.825 -15.093 -22.273  0.00  0.00    -0.077 C 
ATOM      7  H   UNL     1      34.918 -14.114 -23.677  0.00  0.00    -0.079 HD
ENDROOT
BRANCH   2   8
ATOM      8  C   UNL     1      36.095 -18.213 -22.700  0.00  0.00    +0.094 C 
BRANCH   8  10
ATOM      9  O   UNL     1      37.804 -19.518 -20.582  0.00  0.00    -0.270 OA
ATOM     10  N   UNL     1      35.741 -19.157 -21.683  0.00  0.00    -0.272 N 
ATOM     11  C   UNL     1      34.370 -19.653 -21.528  0.00  0.00    +0.121 C 
ATOM     12  C   UNL     1      36.612 -19.710 -20.737  0.00  0.00    +0.249 C 
ATOM     13  C   UNL     1      34.493 -20.582 -20.370  0.00  0.00    +0.002 C 
ATOM     14  C   UNL     1      35.809 -20.614 -19.909  0.00  0.00    +0.051 C 
ATOM     15  C   UNL     1      33.520 -21.351 -19.760  0.00  0.00    -0.002 C 
ATOM     16  C   UNL     1      36.206 -21.396 -18.841  0.00  0.00    +0.004 C 
ATOM     17  C   UNL     1      33.895 -22.152 -18.676  0.00  0.00    -0.000 C 
ATOM     18  C   UNL     1      35.227 -22.173 -18.221  0.00  0.00    +0.000 C 
ENDBRANCH   8  10
ENDBRANCH   2   8
BRANCH   1  19
ATOM     19  C   UNL     1      32.982 -13.538 -23.908  0.00  0.00    -0.006 C 
BRANCH  19  21
ATOM     20  O   UNL     1      34.352 -11.565 -23.671  0.00  0.00    -0.294 OA
ATOM     21  C   UNL     1      33.399 -12.227 -23.266  0.00  0.00    +0.152 C 
BRANCH  21  23
ATOM     22  F   UNL     1      30.474 -10.361 -18.892  0.00  0.00    -0.204 F 
ATOM     23  C   UNL     1      32.616 -11.728 -22.097  0.00  0.00    +0.033 C 
ATOM     24  C   UNL     1      32.303 -12.611 -21.089  0.00  0.00    +0.005 C 
ATOM     25  C   UNL     1      32.240 -10.405 -22.072  0.00  0.00    +0.005 C 
ATOM     26  C   UNL     1      31.572 -12.145 -19.996  0.00  0.00    +0.030 C 
ATOM     27  C   UNL     1      31.510  -9.939 -20.979  0.00  0.00    +0.030 C 
ATOM     28  C   UNL     1      31.176 -10.809 -19.941  0.00  0.00    +0.140 C 
ENDBRANCH  21  23
ENDBRANCH  19  21
ENDBRANCH   1  19
TORSDOF 5
ENDMDL
MODEL 9
REMARK VINA RESULT:     -10.8      4.061      6.540
REMARK  Name = 9799284
REMARK  5 active torsions:
REMARK  status: ('A' for Active; 'I' for Inactive)
REMARK    1  A    between atoms: N_1  and  C_19
REMARK    2  A    between atoms: C_2  and  C_8
REMARK    3  A    between atoms: C_8  and  N_10
REMARK    4  A    between atoms: C_19  and  C_21
REMARK    5  A    between atoms: C_21  and  C_23
REMARK                            x       y       z     vdW  Elec       q    Type
REMARK                         _______ _______ _______ _____ _____    ______ ____
ROOT
ATOM      1  N   UNL     1      34.227 -21.720 -19.003  0.00  0.00    +0.392 N 
ATOM      2  C   UNL     1      35.666 -19.851 -20.744  0.00  0.00    +0.016 C 
ATOM      3  C   UNL     1      34.223 -19.608 -20.291  0.00  0.00    -0.021 C 
ATOM      4  C   UNL     1      36.383 -20.749 -19.730  0.00  0.00    -0.021 C 
ATOM      5  C   UNL     1      33.500 -20.925 -20.003  0.00  0.00    -0.077 C 
ATOM      6  C   UNL     1      35.589 -22.028 -19.460  0.00  0.00    -0.077 C 
ATOM      7  H   UNL     1      34.299 -21.165 -18.151  0.00  0.00    -0.079 HD
ENDROOT
BRANCH   2   8
ATOM      8  C   UNL     1      36.413 -18.533 -20.934  0.00  0.00    +0.094 C 
BRANCH   8  10
ATOM      9  O   UNL     1      34.852 -15.979 -20.544  0.00  0.00    -0.270 OA
ATOM     10  N   UNL     1      35.750 -17.702 -21.894  0.00  0.00    -0.272 N 
ATOM     11  C   UNL     1      35.750 -18.019 -23.325  0.00  0.00    +0.121 C 
ATOM     12  C   UNL     1      35.046 -16.525 -21.614  0.00  0.00    +0.249 C 
ATOM     13  C   UNL     1      34.960 -16.896 -23.904  0.00  0.00    +0.002 C 
ATOM     14  C   UNL     1      34.548 -16.021 -22.898  0.00  0.00    +0.051 C 
ATOM     15  C   UNL     1      34.622 -16.653 -25.221  0.00  0.00    -0.002 C 
ATOM     16  C   UNL     1      33.797 -14.890 -23.154  0.00  0.00    +0.004 C 
ATOM     17  C   UNL     1      33.862 -15.514 -25.508  0.00  0.00    -0.000 C 
ATOM     18  C   UNL     1      33.454 -14.641 -24.483  0.00  0.00    +0.000 C 
ENDBRANCH   8  10
ENDBRANCH   2   8
BRANCH   1  19
ATOM     19  C   UNL     1      33.498 -22.951 -18.700  0.00  0.00    -0.006 C 
BRANCH  19  21
ATOM     20  O   UNL     1      31.652 -22.302 -17.287  0.00  0.00    -0.294 OA
ATOM     21  C   UNL     1      32.778 -22.787 -17.374  0.00  0.00    +0.152 C 
BRANCH  21  23
ATOM     22  F   UNL     1      35.369 -24.462 -12.720  0.00  0.00    -0.204 F 
ATOM     23  C   UNL     1      33.471 -23.236 -16.129  0.00  0.00    +0.033 C 
ATOM     24  C   UNL     1      34.847 -23.236 -16.105  0.00  0.00    +0.005 C 
ATOM     25  C   UNL     1      32.707 -23.631 -15.056  0.00  0.00    +0.005 C 
ATOM     26  C   UNL     1      35.494 -23.653 -14.943  0.00  0.00    +0.030 C 
ATOM     27  C   UNL     1      33.353 -24.048 -13.893  0.00  0.00    +0.030 C 
ATOM     28  C   UNL     1      34.747 -24.060 -13.836  0.00  0.00    +0.140 C 
ENDBRANCH  21  23
ENDBRANCH  19  21
ENDBRANCH   1  19
TORSDOF 5
ENDMDL
