MODEL 1
REMARK VINA RESULT:     -11.0      0.000      0.000
REMARK  Name = 9896504
REMARK  6 active torsions:
REMARK  status: ('A' for Active; 'I' for Inactive)
REMARK    1  A    between atoms: N_4  and  C_22
REMARK    2  A    between atoms: C_11  and  C_13
REMARK    3  A    between atoms: C_13  and  O_14
REMARK    4  A    between atoms: O_14  and  C_15
REMARK    5  A    between atoms: C_15  and  C_16
REMARK    6  A    between atoms: C_22  and  C_23
REMARK                            x       y       z     vdW  Elec       q    Type
REMARK                         _______ _______ _______ _____ _____    ______ ____
ROOT
ATOM      1  S   UNL     1      33.800 -15.035 -24.359  0.00  0.00    -0.064 S 
ATOM      2  O   UNL     1      35.600 -17.002 -20.231  0.00  0.00    -0.251 OA
ATOM      3  O   UNL     1      35.494 -19.793 -23.991  0.00  0.00    -0.269 OA
ATOM      4  N   UNL     1      35.584 -18.446 -22.076  0.00  0.00    -0.206 N 
ATOM      5  N   UNL     1      34.786 -16.238 -22.252  0.00  0.00    -0.214 N 
ATOM      6  C   UNL     1      34.486 -16.436 -23.581  0.00  0.00    +0.094 C 
ATOM      7  C   UNL     1      35.345 -17.206 -21.420  0.00  0.00    +0.321 C 
ATOM      8  C   UNL     1      35.296 -18.719 -23.426  0.00  0.00    +0.258 C 
ATOM      9  C   UNL     1      34.706 -17.597 -24.198  0.00  0.00    +0.080 C 
ATOM     10  C   UNL     1      34.456 -14.956 -21.878  0.00  0.00    +0.087 C 
ATOM     11  C   UNL     1      33.935 -14.211 -22.854  0.00  0.00    +0.122 C 
ENDROOT
BRANCH  11  13
ATOM     12  O   UNL     1      32.441 -12.489 -22.205  0.00  0.00    -0.244 OA
ATOM     13  C   UNL     1      33.508 -12.830 -22.709  0.00  0.00    +0.349 C 
BRANCH  13  14
ATOM     14  O   UNL     1      34.470 -12.010 -23.214  0.00  0.00    -0.440 OA
BRANCH  14  15
ATOM     15  C   UNL     1      34.044 -11.108 -24.240  0.00  0.00    +0.235 C 
BRANCH  15  16
ATOM     16  C   UNL     1      34.146  -9.701 -23.728  0.00  0.00    +0.021 C 
ATOM     17  C   UNL     1      35.285  -8.950 -23.999  0.00  0.00    -0.001 C 
ATOM     18  C   UNL     1      33.102  -9.160 -22.986  0.00  0.00    -0.001 C 
ATOM     19  C   UNL     1      35.380  -7.642 -23.523  0.00  0.00    -0.000 C 
ATOM     20  C   UNL     1      33.197  -7.852 -22.511  0.00  0.00    -0.000 C 
ATOM     21  C   UNL     1      34.336  -7.094 -22.780  0.00  0.00    -0.000 C 
ENDBRANCH  15  16
ENDBRANCH  14  15
ENDBRANCH  13  14
ENDBRANCH  11  13
BRANCH   4  22
ATOM     22  C   UNL     1      36.169 -19.537 -21.303  0.00  0.00    +0.129 C 
BRANCH  22  23
ATOM     23  C   UNL     1      35.133 -20.286 -20.517  0.00  0.00    -0.002 C 
ATOM     24  C   UNL     1      33.790 -19.958 -20.661  0.00  0.00    -0.003 C 
ATOM     25  C   UNL     1      35.527 -21.302 -19.654  0.00  0.00    -0.003 C 
ATOM     26  C   UNL     1      32.827 -20.654 -19.930  0.00  0.00    -0.000 C 
ATOM     27  C   UNL     1      34.564 -21.999 -18.924  0.00  0.00    -0.000 C 
ATOM     28  C   UNL     1      33.214 -21.675 -19.062  0.00  0.00    -0.000 C 
ENDBRANCH  22  23
ENDBRANCH   4  22
TORSDOF 6
ENDMDL
MODEL 2
REMARK VINA RESULT:     -11.0      1.487      2.112
REMARK  Name = 9896504
REMARK  6 active torsions:
REMARK  status: ('A' for Active; 'I' for Inactive)
REMARK    1  A    between atoms: N_4  and  C_22
REMARK    2  A    between atoms: C_11  and  C_13
REMARK    3  A    between atoms: C_13  and  O_14
REMARK    4  A    between atoms: O_14  and  C_15
REMARK    5  A    between atoms: C_15  and  C_16
REMARK    6  A    between atoms: C_22  and  C_23
REMARK                            x       y       z     vdW  Elec       q    Type
REMARK                         _______ _______ _______ _____ _____    ______ ____
ROOT
ATOM      1  S   UNL     1      33.905 -15.246 -24.484  0.00  0.00    -0.064 S 
ATOM      2  O   UNL     1      35.687 -17.138 -20.313  0.00  0.00    -0.251 OA
ATOM      3  O   UNL     1      35.451 -20.042 -23.981  0.00  0.00    -0.269 OA
ATOM      4  N   UNL     1      35.605 -18.639 -22.111  0.00  0.00    -0.206 N 
ATOM      5  N   UNL     1      34.876 -16.412 -22.350  0.00  0.00    -0.214 N 
ATOM      6  C   UNL     1      34.555 -16.643 -23.669  0.00  0.00    +0.094 C 
ATOM      7  C   UNL     1      35.412 -17.371 -21.492  0.00  0.00    +0.321 C 
ATOM      8  C   UNL     1      35.294 -18.944 -23.448  0.00  0.00    +0.258 C 
ATOM      9  C   UNL     1      34.731 -17.830 -24.250  0.00  0.00    +0.080 C 
ATOM     10  C   UNL     1      34.590 -15.109 -22.014  0.00  0.00    +0.087 C 
ATOM     11  C   UNL     1      34.083 -14.380 -23.008  0.00  0.00    +0.122 C 
ENDROOT
BRANCH  11  13
ATOM     12  O   UNL     1      33.920 -12.142 -23.771  0.00  0.00    -0.244 OA
ATOM     13  C   UNL     1      33.701 -12.982 -22.903  0.00  0.00    +0.349 C 
BRANCH  13  14
ATOM     14  O   UNL     1      33.079 -12.777 -21.709  0.00  0.00    -0.440 OA
BRANCH  14  15
ATOM     15  C   UNL     1      31.792 -12.155 -21.776  0.00  0.00    +0.235 C 
BRANCH  15  16
ATOM     16  C   UNL     1      31.867 -10.805 -21.124  0.00  0.00    +0.021 C 
ATOM     17  C   UNL     1      31.785 -10.703 -19.741  0.00  0.00    -0.001 C 
ATOM     18  C   UNL     1      32.018  -9.668 -21.911  0.00  0.00    -0.001 C 
ATOM     19  C   UNL     1      31.855  -9.448 -19.135  0.00  0.00    -0.000 C 
ATOM     20  C   UNL     1      32.088  -8.413 -21.305  0.00  0.00    -0.000 C 
ATOM     21  C   UNL     1      32.007  -8.305 -19.917  0.00  0.00    -0.000 C 
ENDBRANCH  15  16
ENDBRANCH  14  15
ENDBRANCH  13  14
ENDBRANCH  11  13
BRANCH   4  22
ATOM     22  C   UNL     1      36.163 -19.722 -21.310  0.00  0.00    +0.129 C 
BRANCH  22  23
ATOM     23  C   UNL     1      35.114 -20.406 -20.482  0.00  0.00    -0.002 C 
ATOM     24  C   UNL     1      33.778 -20.061 -20.643  0.00  0.00    -0.003 C 
ATOM     25  C   UNL     1      35.490 -21.380 -19.564  0.00  0.00    -0.003 C 
ATOM     26  C   UNL     1      32.802 -20.697 -19.874  0.00  0.00    -0.000 C 
ATOM     27  C   UNL     1      34.515 -22.016 -18.795  0.00  0.00    -0.000 C 
ATOM     28  C   UNL     1      33.171 -21.674 -18.951  0.00  0.00    -0.000 C 
ENDBRANCH  22  23
ENDBRANCH   4  22
TORSDOF 6
ENDMDL
MODEL 3
REMARK VINA RESULT:     -10.7      2.115      9.807
REMARK  Name = 9896504
REMARK  6 active torsions:
REMARK  status: ('A' for Active; 'I' for Inactive)
REMARK    1  A    between atoms: N_4  and  C_22
REMARK    2  A    between atoms: C_11  and  C_13
REMARK    3  A    between atoms: C_13  and  O_14
REMARK    4  A    between atoms: O_14  and  C_15
REMARK    5  A    between atoms: C_15  and  C_16
REMARK    6  A    between atoms: C_22  and  C_23
REMARK                            x       y       z     vdW  Elec       q    Type
REMARK                         _______ _______ _______ _____ _____    ______ ____
ROOT
ATOM      1  S   UNL     1      33.877 -15.611 -20.204  0.00  0.00    -0.064 S 
ATOM      2  O   UNL     1      32.815 -12.294 -23.671  0.00  0.00    -0.251 OA
ATOM      3  O   UNL     1      31.068 -11.473 -19.403  0.00  0.00    -0.269 OA
ATOM      4  N   UNL     1      31.920 -11.820 -21.558  0.00  0.00    -0.206 N 
ATOM      5  N   UNL     1      33.218 -13.750 -21.925  0.00  0.00    -0.214 N 
ATOM      6  C   UNL     1      33.068 -14.120 -20.607  0.00  0.00    +0.094 C 
ATOM      7  C   UNL     1      32.667 -12.599 -22.486  0.00  0.00    +0.321 C 
ATOM      8  C   UNL     1      31.722 -12.141 -20.203  0.00  0.00    +0.258 C 
ATOM      9  C   UNL     1      32.367 -13.394 -19.737  0.00  0.00    +0.080 C 
ATOM     10  C   UNL     1      33.983 -14.678 -22.593  0.00  0.00    +0.087 C 
ATOM     11  C   UNL     1      34.399 -15.697 -21.841  0.00  0.00    +0.122 C 
ENDROOT
BRANCH  11  13
ATOM     12  O   UNL     1      35.525 -16.973 -23.491  0.00  0.00    -0.244 OA
ATOM     13  C   UNL     1      35.217 -16.801 -22.315  0.00  0.00    +0.349 C 
BRANCH  13  14
ATOM     14  O   UNL     1      35.570 -17.582 -21.257  0.00  0.00    -0.440 OA
BRANCH  14  15
ATOM     15  C   UNL     1      36.017 -18.902 -21.579  0.00  0.00    +0.235 C 
BRANCH  15  16
ATOM     16  C   UNL     1      35.276 -19.891 -20.726  0.00  0.00    +0.021 C 
ATOM     17  C   UNL     1      35.986 -20.821 -19.976  0.00  0.00    -0.001 C 
ATOM     18  C   UNL     1      33.886 -19.868 -20.695  0.00  0.00    -0.001 C 
ATOM     19  C   UNL     1      35.298 -21.740 -19.183  0.00  0.00    -0.000 C 
ATOM     20  C   UNL     1      33.198 -20.787 -19.902  0.00  0.00    -0.000 C 
ATOM     21  C   UNL     1      33.904 -21.722 -19.146  0.00  0.00    -0.000 C 
ENDBRANCH  15  16
ENDBRANCH  14  15
ENDBRANCH  13  14
ENDBRANCH  11  13
BRANCH   4  22
ATOM     22  C   UNL     1      31.297 -10.589 -22.032  0.00  0.00    +0.129 C 
BRANCH  22  23
ATOM     23  C   UNL     1      32.224  -9.413 -21.924  0.00  0.00    -0.002 C 
ATOM     24  C   UNL     1      33.038  -9.079 -22.999  0.00  0.00    -0.003 C 
ATOM     25  C   UNL     1      32.256  -8.669 -20.750  0.00  0.00    -0.003 C 
ATOM     26  C   UNL     1      33.900  -7.986 -22.900  0.00  0.00    -0.000 C 
ATOM     27  C   UNL     1      33.117  -7.575 -20.651  0.00  0.00    -0.000 C 
ATOM     28  C   UNL     1      33.938  -7.234 -21.725  0.00  0.00    -0.000 C 
ENDBRANCH  22  23
ENDBRANCH   4  22
TORSDOF 6
ENDMDL
MODEL 4
REMARK VINA RESULT:     -10.5      4.268     11.161
REMARK  Name = 9896504
REMARK  6 active torsions:
REMARK  status: ('A' for Active; 'I' for Inactive)
REMARK    1  A    between atoms: N_4  and  C_22
REMARK    2  A    between atoms: C_11  and  C_13
REMARK    3  A    between atoms: C_13  and  O_14
REMARK    4  A    between atoms: O_14  and  C_15
REMARK    5  A    between atoms: C_15  and  C_16
REMARK    6  A    between atoms: C_22  and  C_23
REMARK                            x       y       z     vdW  Elec       q    Type
REMARK                         _______ _______ _______ _____ _____    ______ ____
ROOT
ATOM      1  S   UNL     1      36.505 -21.791 -18.087  0.00  0.00    -0.064 S 
ATOM      2  O   UNL     1      33.583 -19.921 -21.568  0.00  0.00    -0.251 OA
ATOM      3  O   UNL     1      38.049 -18.509 -21.622  0.00  0.00    -0.269 OA
ATOM      4  N   UNL     1      35.804 -19.183 -21.657  0.00  0.00    -0.206 N 
ATOM      5  N   UNL     1      35.092 -20.702 -20.005  0.00  0.00    -0.214 N 
ATOM      6  C   UNL     1      36.360 -20.739 -19.470  0.00  0.00    +0.094 C 
ATOM      7  C   UNL     1      34.728 -19.938 -21.112  0.00  0.00    +0.321 C 
ATOM      8  C   UNL     1      37.120 -19.169 -21.158  0.00  0.00    +0.258 C 
ATOM      9  C   UNL     1      37.370 -20.031 -19.976  0.00  0.00    +0.080 C 
ATOM     10  C   UNL     1      34.252 -21.523 -19.288  0.00  0.00    +0.087 C 
ATOM     11  C   UNL     1      34.833 -22.154 -18.268  0.00  0.00    +0.122 C 
ENDROOT
BRANCH  11  13
ATOM     12  O   UNL     1      33.292 -23.869 -17.715  0.00  0.00    -0.244 OA
ATOM     13  C   UNL     1      34.158 -23.071 -17.365  0.00  0.00    +0.349 C 
BRANCH  13  14
ATOM     14  O   UNL     1      34.642 -22.895 -16.105  0.00  0.00    -0.440 OA
BRANCH  14  15
ATOM     15  C   UNL     1      34.490 -24.008 -15.218  0.00  0.00    +0.235 C 
BRANCH  15  16
ATOM     16  C   UNL     1      35.840 -24.607 -14.949  0.00  0.00    +0.021 C 
ATOM     17  C   UNL     1      36.940 -23.775 -14.775  0.00  0.00    -0.001 C 
ATOM     18  C   UNL     1      35.978 -25.989 -14.878  0.00  0.00    -0.001 C 
ATOM     19  C   UNL     1      38.195 -24.332 -14.524  0.00  0.00    -0.000 C 
ATOM     20  C   UNL     1      37.233 -26.545 -14.628  0.00  0.00    -0.000 C 
ATOM     21  C   UNL     1      38.340 -25.717 -14.451  0.00  0.00    -0.000 C 
ENDBRANCH  15  16
ENDBRANCH  14  15
ENDBRANCH  13  14
ENDBRANCH  11  13
BRANCH   4  22
ATOM     22  C   UNL     1      35.543 -18.345 -22.821  0.00  0.00    +0.129 C 
BRANCH  22  23
ATOM     23  C   UNL     1      35.115 -16.960 -22.432  0.00  0.00    -0.002 C 
ATOM     24  C   UNL     1      35.004 -15.975 -23.407  0.00  0.00    -0.003 C 
ATOM     25  C   UNL     1      34.831 -16.676 -21.101  0.00  0.00    -0.003 C 
ATOM     26  C   UNL     1      34.606 -14.687 -23.046  0.00  0.00    -0.000 C 
ATOM     27  C   UNL     1      34.432 -15.389 -20.740  0.00  0.00    -0.000 C 
ATOM     28  C   UNL     1      34.320 -14.395 -21.712  0.00  0.00    -0.000 C 
ENDBRANCH  22  23
ENDBRANCH   4  22
TORSDOF 6
ENDMDL
MODEL 5
REMARK VINA RESULT:     -10.3      4.379     10.800
REMARK  Name = 9896504
REMARK  6 active torsions:
REMARK  status: ('A' for Active; 'I' for Inactive)
REMARK    1  A    between atoms: N_4  and  C_22
REMARK    2  A    between atoms: C_11  and  C_13
REMARK    3  A    between atoms: C_13  and  O_14
REMARK    4  A    between atoms: O_14  and  C_15
REMARK    5  A    between atoms: C_15  and  C_16
REMARK    6  A    between atoms: C_22  and  C_23
REMARK                            x       y       z     vdW  Elec       q    Type
REMARK                         _______ _______ _______ _____ _____    ______ ____
ROOT
ATOM      1  S   UNL     1      36.273 -21.959 -17.888  0.00  0.00    -0.064 S 
ATOM      2  O   UNL     1      33.467 -20.069 -21.453  0.00  0.00    -0.251 OA
ATOM      3  O   UNL     1      37.961 -18.749 -21.423  0.00  0.00    -0.269 OA
ATOM      4  N   UNL     1      35.705 -19.377 -21.500  0.00  0.00    -0.206 N 
ATOM      5  N   UNL     1      34.926 -20.863 -19.848  0.00  0.00    -0.214 N 
ATOM      6  C   UNL     1      36.181 -20.920 -19.285  0.00  0.00    +0.094 C 
ATOM      7  C   UNL     1      34.602 -20.104 -20.971  0.00  0.00    +0.321 C 
ATOM      8  C   UNL     1      37.009 -19.385 -20.973  0.00  0.00    +0.258 C 
ATOM      9  C   UNL     1      37.216 -20.239 -19.776  0.00  0.00    +0.080 C 
ATOM     10  C   UNL     1      34.053 -21.658 -19.141  0.00  0.00    +0.087 C 
ATOM     11  C   UNL     1      34.599 -22.290 -18.101  0.00  0.00    +0.122 C 
ENDROOT
BRANCH  11  13
ATOM     12  O   UNL     1      34.412 -23.788 -16.273  0.00  0.00    -0.244 OA
ATOM     13  C   UNL     1      33.886 -23.183 -17.204  0.00  0.00    +0.349 C 
BRANCH  13  14
ATOM     14  O   UNL     1      32.574 -23.228 -17.567  0.00  0.00    -0.440 OA
BRANCH  14  15
ATOM     15  C   UNL     1      31.677 -22.463 -16.756  0.00  0.00    +0.235 C 
BRANCH  15  16
ATOM     16  C   UNL     1      31.337 -23.251 -15.525  0.00  0.00    +0.021 C 
ATOM     17  C   UNL     1      31.757 -22.799 -14.280  0.00  0.00    -0.001 C 
ATOM     18  C   UNL     1      30.605 -24.428 -15.641  0.00  0.00    -0.001 C 
ATOM     19  C   UNL     1      31.440 -23.531 -13.136  0.00  0.00    -0.000 C 
ATOM     20  C   UNL     1      30.289 -25.161 -14.497  0.00  0.00    -0.000 C 
ATOM     21  C   UNL     1      30.707 -24.711 -13.245  0.00  0.00    -0.000 C 
ENDBRANCH  15  16
ENDBRANCH  14  15
ENDBRANCH  13  14
ENDBRANCH  11  13
BRANCH   4  22
ATOM     22  C   UNL     1      35.486 -18.547 -22.679  0.00  0.00    +0.129 C 
BRANCH  22  23
ATOM     23  C   UNL     1      35.066 -17.153 -22.315  0.00  0.00    -0.002 C 
ATOM     24  C   UNL     1      34.906 -16.200 -23.314  0.00  0.00    -0.003 C 
ATOM     25  C   UNL     1      34.839 -16.830 -20.982  0.00  0.00    -0.003 C 
ATOM     26  C   UNL     1      34.515 -14.904 -22.976  0.00  0.00    -0.000 C 
ATOM     27  C   UNL     1      34.447 -15.534 -20.644  0.00  0.00    -0.000 C 
ATOM     28  C   UNL     1      34.286 -14.572 -21.641  0.00  0.00    -0.000 C 
ENDBRANCH  22  23
ENDBRANCH   4  22
TORSDOF 6
ENDMDL
MODEL 6
REMARK VINA RESULT:     -10.3      1.888      2.370
REMARK  Name = 9896504
REMARK  6 active torsions:
REMARK  status: ('A' for Active; 'I' for Inactive)
REMARK    1  A    between atoms: N_4  and  C_22
REMARK    2  A    between atoms: C_11  and  C_13
REMARK    3  A    between atoms: C_13  and  O_14
REMARK    4  A    between atoms: O_14  and  C_15
REMARK    5  A    between atoms: C_15  and  C_16
REMARK    6  A    between atoms: C_22  and  C_23
REMARK                            x       y       z     vdW  Elec       q    Type
REMARK                         _______ _______ _______ _____ _____    ______ ____
ROOT
ATOM      1  S   UNL     1      32.883 -13.632 -23.145  0.00  0.00    -0.064 S 
ATOM      2  O   UNL     1      35.230 -16.804 -20.214  0.00  0.00    -0.251 OA
ATOM      3  O   UNL     1      35.282 -17.775 -24.797  0.00  0.00    -0.269 OA
ATOM      4  N   UNL     1      35.302 -17.341 -22.494  0.00  0.00    -0.206 N 
ATOM      5  N   UNL     1      34.177 -15.418 -21.732  0.00  0.00    -0.214 N 
ATOM      6  C   UNL     1      33.820 -15.097 -23.023  0.00  0.00    +0.094 C 
ATOM      7  C   UNL     1      34.927 -16.539 -21.380  0.00  0.00    +0.321 C 
ATOM      8  C   UNL     1      34.967 -17.077 -23.834  0.00  0.00    +0.258 C 
ATOM      9  C   UNL     1      34.167 -15.848 -24.068  0.00  0.00    +0.080 C 
ATOM     10  C   UNL     1      33.687 -14.476 -20.858  0.00  0.00    +0.087 C 
ATOM     11  C   UNL     1      32.997 -13.491 -21.434  0.00  0.00    +0.122 C 
ENDROOT
BRANCH  11  13
ATOM     12  O   UNL     1      31.946 -12.455 -19.579  0.00  0.00    -0.244 OA
ATOM     13  C   UNL     1      32.382 -12.382 -20.725  0.00  0.00    +0.349 C 
BRANCH  13  14
ATOM     14  O   UNL     1      32.375 -11.285 -21.531  0.00  0.00    -0.440 OA
BRANCH  14  15
ATOM     15  C   UNL     1      31.243 -10.420 -21.397  0.00  0.00    +0.235 C 
BRANCH  15  16
ATOM     16  C   UNL     1      31.706  -8.994 -21.471  0.00  0.00    +0.021 C 
ATOM     17  C   UNL     1      32.288  -8.400 -20.358  0.00  0.00    -0.001 C 
ATOM     18  C   UNL     1      31.548  -8.280 -22.654  0.00  0.00    -0.001 C 
ATOM     19  C   UNL     1      32.718  -7.075 -20.427  0.00  0.00    -0.000 C 
ATOM     20  C   UNL     1      31.978  -6.955 -22.723  0.00  0.00    -0.000 C 
ATOM     21  C   UNL     1      32.563  -6.353 -21.609  0.00  0.00    -0.000 C 
ENDBRANCH  15  16
ENDBRANCH  14  15
ENDBRANCH  13  14
ENDBRANCH  11  13
BRANCH   4  22
ATOM     22  C   UNL     1      36.092 -18.542 -22.247  0.00  0.00    +0.129 C 
BRANCH  22  23
ATOM     23  C   UNL     1      35.400 -19.488 -21.309  0.00  0.00    -0.002 C 
ATOM     24  C   UNL     1      36.152 -20.256 -20.429  0.00  0.00    -0.003 C 
ATOM     25  C   UNL     1      34.013 -19.583 -21.328  0.00  0.00    -0.003 C 
ATOM     26  C   UNL     1      35.509 -21.135 -19.556  0.00  0.00    -0.000 C 
ATOM     27  C   UNL     1      33.370 -20.461 -20.455  0.00  0.00    -0.000 C 
ATOM     28  C   UNL     1      34.118 -21.237 -19.570  0.00  0.00    -0.000 C 
ENDBRANCH  22  23
ENDBRANCH   4  22
TORSDOF 6
ENDMDL
MODEL 7
REMARK VINA RESULT:     -10.3      3.016     10.673
REMARK  Name = 9896504
REMARK  6 active torsions:
REMARK  status: ('A' for Active; 'I' for Inactive)
REMARK    1  A    between atoms: N_4  and  C_22
REMARK    2  A    between atoms: C_11  and  C_13
REMARK    3  A    between atoms: C_13  and  O_14
REMARK    4  A    between atoms: O_14  and  C_15
REMARK    5  A    between atoms: C_15  and  C_16
REMARK    6  A    between atoms: C_22  and  C_23
REMARK                            x       y       z     vdW  Elec       q    Type
REMARK                         _______ _______ _______ _____ _____    ______ ____
ROOT
ATOM      1  S   UNL     1      32.149 -12.233 -22.650  0.00  0.00    -0.064 S 
ATOM      2  O   UNL     1      35.672  -9.302 -24.425  0.00  0.00    -0.251 OA
ATOM      3  O   UNL     1      32.693  -7.363 -21.373  0.00  0.00    -0.269 OA
ATOM      4  N   UNL     1      34.222  -8.274 -22.897  0.00  0.00    -0.206 N 
ATOM      5  N   UNL     1      33.958 -10.537 -23.492  0.00  0.00    -0.214 N 
ATOM      6  C   UNL     1      32.866 -10.644 -22.660  0.00  0.00    +0.094 C 
ATOM      7  C   UNL     1      34.699  -9.371 -23.669  0.00  0.00    +0.321 C 
ATOM      8  C   UNL     1      33.112  -8.312 -22.034  0.00  0.00    +0.258 C 
ATOM      9  C   UNL     1      32.415  -9.619 -21.938  0.00  0.00    +0.080 C 
ATOM     10  C   UNL     1      34.199 -11.741 -24.113  0.00  0.00    +0.087 C 
ATOM     11  C   UNL     1      33.351 -12.715 -23.782  0.00  0.00    +0.122 C 
ENDROOT
BRANCH  11  13
ATOM     12  O   UNL     1      33.255 -14.359 -25.487  0.00  0.00    -0.244 OA
ATOM     13  C   UNL     1      33.399 -14.071 -24.302  0.00  0.00    +0.349 C 
BRANCH  13  14
ATOM     14  O   UNL     1      33.624 -14.936 -23.275  0.00  0.00    -0.440 OA
BRANCH  14  15
ATOM     15  C   UNL     1      34.980 -15.358 -23.102  0.00  0.00    +0.235 C 
BRANCH  15  16
ATOM     16  C   UNL     1      34.998 -16.823 -22.777  0.00  0.00    +0.021 C 
ATOM     17  C   UNL     1      35.153 -17.234 -21.458  0.00  0.00    -0.001 C 
ATOM     18  C   UNL     1      34.860 -17.757 -23.798  0.00  0.00    -0.001 C 
ATOM     19  C   UNL     1      35.169 -18.596 -21.155  0.00  0.00    -0.000 C 
ATOM     20  C   UNL     1      34.876 -19.119 -23.495  0.00  0.00    -0.000 C 
ATOM     21  C   UNL     1      35.030 -19.538 -22.174  0.00  0.00    -0.000 C 
ENDBRANCH  15  16
ENDBRANCH  14  15
ENDBRANCH  13  14
ENDBRANCH  11  13
BRANCH   4  22
ATOM     22  C   UNL     1      34.922  -6.999 -22.999  0.00  0.00    +0.129 C 
BRANCH  22  23
ATOM     23  C   UNL     1      34.450  -6.192 -24.174  0.00  0.00    -0.002 C 
ATOM     24  C   UNL     1      33.142  -5.725 -24.206  0.00  0.00    -0.003 C 
ATOM     25  C   UNL     1      35.327  -5.918 -25.217  0.00  0.00    -0.003 C 
ATOM     26  C   UNL     1      32.702  -4.974 -25.297  0.00  0.00    -0.000 C 
ATOM     27  C   UNL     1      34.889  -5.166 -26.307  0.00  0.00    -0.000 C 
ATOM     28  C   UNL     1      33.576  -4.695 -26.347  0.00  0.00    -0.000 C 
ENDBRANCH  22  23
ENDBRANCH   4  22
TORSDOF 6
ENDMDL
MODEL 8
REMARK VINA RESULT:     -10.3      1.629      9.614
REMARK  Name = 9896504
REMARK  6 active torsions:
REMARK  status: ('A' for Active; 'I' for Inactive)
REMARK    1  A    between atoms: N_4  and  C_22
REMARK    2  A    between atoms: C_11  and  C_13
REMARK    3  A    between atoms: C_13  and  O_14
REMARK    4  A    between atoms: O_14  and  C_15
REMARK    5  A    between atoms: C_15  and  C_16
REMARK    6  A    between atoms: C_22  and  C_23
REMARK                            x       y       z     vdW  Elec       q    Type
REMARK                         _______ _______ _______ _____ _____    ______ ____
ROOT
ATOM      1  S   UNL     1      35.128 -17.325 -24.018  0.00  0.00    -0.064 S 
ATOM      2  O   UNL     1      33.827 -13.473 -21.258  0.00  0.00    -0.251 OA
ATOM      3  O   UNL     1      32.782 -13.213 -25.816  0.00  0.00    -0.269 OA
ATOM      4  N   UNL     1      33.267 -13.285 -23.525  0.00  0.00    -0.206 N 
ATOM      5  N   UNL     1      34.366 -15.196 -22.698  0.00  0.00    -0.214 N 
ATOM      6  C   UNL     1      34.379 -15.753 -23.957  0.00  0.00    +0.094 C 
ATOM      7  C   UNL     1      33.822 -13.949 -22.395  0.00  0.00    +0.321 C 
ATOM      8  C   UNL     1      33.253 -13.791 -24.837  0.00  0.00    +0.258 C 
ATOM      9  C   UNL     1      33.863 -15.132 -25.018  0.00  0.00    +0.080 C 
ATOM     10  C   UNL     1      34.963 -16.048 -21.798  0.00  0.00    +0.087 C 
ATOM     11  C   UNL     1      35.408 -17.188 -22.326  0.00  0.00    +0.122 C 
ENDROOT
BRANCH  11  13
ATOM     12  O   UNL     1      37.228 -18.610 -21.789  0.00  0.00    -0.244 OA
ATOM     13  C   UNL     1      36.073 -18.245 -21.583  0.00  0.00    +0.349 C 
BRANCH  13  14
ATOM     14  O   UNL     1      35.217 -18.741 -20.648  0.00  0.00    -0.440 OA
BRANCH  14  15
ATOM     15  C   UNL     1      34.512 -19.930 -21.018  0.00  0.00    +0.235 C 
BRANCH  15  16
ATOM     16  C   UNL     1      34.536 -20.892 -19.865  0.00  0.00    +0.021 C 
ATOM     17  C   UNL     1      35.752 -21.259 -19.300  0.00  0.00    -0.001 C 
ATOM     18  C   UNL     1      33.342 -21.407 -19.374  0.00  0.00    -0.001 C 
ATOM     19  C   UNL     1      35.774 -22.152 -18.228  0.00  0.00    -0.000 C 
ATOM     20  C   UNL     1      33.364 -22.300 -18.302  0.00  0.00    -0.000 C 
ATOM     21  C   UNL     1      34.581 -22.672 -17.730  0.00  0.00    -0.000 C 
ENDBRANCH  15  16
ENDBRANCH  14  15
ENDBRANCH  13  14
ENDBRANCH  11  13
BRANCH   4  22
ATOM     22  C   UNL     1      32.667 -11.970 -23.329  0.00  0.00    +0.129 C 
BRANCH  22  23
ATOM     23  C   UNL     1      33.634 -10.861 -23.625  0.00  0.00    -0.002 C 
ATOM     24  C   UNL     1      34.728 -11.104 -24.446  0.00  0.00    -0.003 C 
ATOM     25  C   UNL     1      33.424  -9.602 -23.075  0.00  0.00    -0.003 C 
ATOM     26  C   UNL     1      35.628 -10.074 -24.721  0.00  0.00    -0.000 C 
ATOM     27  C   UNL     1      34.323  -8.571 -23.351  0.00  0.00    -0.000 C 
ATOM     28  C   UNL     1      35.425  -8.807 -24.173  0.00  0.00    -0.000 C 
ENDBRANCH  22  23
ENDBRANCH   4  22
TORSDOF 6
ENDMDL
MODEL 9
REMARK VINA RESULT:     -10.0      4.748     10.823
REMARK  Name = 9896504
REMARK  6 active torsions:
REMARK  status: ('A' for Active; 'I' for Inactive)
REMARK    1  A    between atoms: N_4  and  C_22
REMARK    2  A    between atoms: C_11  and  C_13
REMARK    3  A    between atoms: C_13  and  O_14
REMARK    4  A    between atoms: O_14  and  C_15
REMARK    5  A    between atoms: C_15  and  C_16
REMARK    6  A    between atoms: C_22  and  C_23
REMARK                            x       y       z     vdW  Elec       q    Type
REMARK                         _______ _______ _______ _____ _____    ______ ____
ROOT
ATOM      1  S   UNL     1      32.300 -10.216 -19.248  0.00  0.00    -0.064 S 
ATOM      2  O   UNL     1      31.519  -8.591 -23.819  0.00  0.00    -0.251 OA
ATOM      3  O   UNL     1      32.165  -5.319 -20.530  0.00  0.00    -0.269 OA
ATOM      4  N   UNL     1      31.844  -6.905 -22.224  0.00  0.00    -0.206 N 
ATOM      5  N   UNL     1      31.900  -9.180 -21.619  0.00  0.00    -0.214 N 
ATOM      6  C   UNL     1      32.141  -8.841 -20.307  0.00  0.00    +0.094 C 
ATOM      7  C   UNL     1      31.737  -8.258 -22.652  0.00  0.00    +0.321 C 
ATOM      8  C   UNL     1      32.082  -6.489 -20.902  0.00  0.00    +0.258 C 
ATOM      9  C   UNL     1      32.239  -7.574 -19.902  0.00  0.00    +0.080 C 
ATOM     10  C   UNL     1      31.846 -10.548 -21.752  0.00  0.00    +0.087 C 
ATOM     11  C   UNL     1      32.033 -11.223 -20.618  0.00  0.00    +0.122 C 
ENDROOT
BRANCH  11  13
ATOM     12  O   UNL     1      31.727 -13.275 -19.472  0.00  0.00    -0.244 OA
ATOM     13  C   UNL     1      32.022 -12.671 -20.500  0.00  0.00    +0.349 C 
BRANCH  13  14
ATOM     14  O   UNL     1      32.384 -13.219 -21.692  0.00  0.00    -0.440 OA
BRANCH  14  15
ATOM     15  C   UNL     1      33.700 -13.778 -21.747  0.00  0.00    +0.235 C 
BRANCH  15  16
ATOM     16  C   UNL     1      33.877 -14.485 -23.059  0.00  0.00    +0.021 C 
ATOM     17  C   UNL     1      33.245 -13.996 -24.196  0.00  0.00    -0.001 C 
ATOM     18  C   UNL     1      34.671 -15.625 -23.125  0.00  0.00    -0.001 C 
ATOM     19  C   UNL     1      33.410 -14.653 -25.416  0.00  0.00    -0.000 C 
ATOM     20  C   UNL     1      34.835 -16.283 -24.344  0.00  0.00    -0.000 C 
ATOM     21  C   UNL     1      34.205 -15.796 -25.489  0.00  0.00    -0.000 C 
ENDBRANCH  15  16
ENDBRANCH  14  15
ENDBRANCH  13  14
ENDBRANCH  11  13
BRANCH   4  22
ATOM     22  C   UNL     1      31.693  -5.850 -23.220  0.00  0.00    +0.129 C 
BRANCH  22  23
ATOM     23  C   UNL     1      32.918  -5.705 -24.075  0.00  0.00    -0.002 C 
ATOM     24  C   UNL     1      34.103  -6.318 -23.687  0.00  0.00    -0.003 C 
ATOM     25  C   UNL     1      32.854  -4.960 -25.247  0.00  0.00    -0.003 C 
ATOM     26  C   UNL     1      35.243  -6.184 -24.482  0.00  0.00    -0.000 C 
ATOM     27  C   UNL     1      33.993  -4.827 -26.042  0.00  0.00    -0.000 C 
ATOM     28  C   UNL     1      35.187  -5.438 -25.659  0.00  0.00    -0.000 C 
ENDBRANCH  22  23
ENDBRANCH   4  22
TORSDOF 6
ENDMDL
