MODEL 1
REMARK VINA RESULT:     -11.5      0.000      0.000
REMARK  Name = 447656
REMARK  5 active torsions:
REMARK  status: ('A' for Active; 'I' for Inactive)
REMARK    1  A    between atoms: N_5  and  C_14
REMARK    2  A    between atoms: C_6  and  O_25
REMARK    3  A    between atoms: C_17  and  C_22
REMARK    4  A    between atoms: O_25  and  C_26
REMARK    5  A    between atoms: C_26  and  C_27
REMARK                            x       y       z     vdW  Elec       q    Type
REMARK                         _______ _______ _______ _____ _____    ______ ____
ROOT
ATOM      1  N   UNL     1      33.248 -23.537 -15.794  0.00  0.00    -0.293 NA
ATOM      2  N   UNL     1      29.838 -22.533 -16.734  0.00  0.00    -0.266 NA
ATOM      3  N   UNL     1      31.610 -23.772 -14.002  0.00  0.00    -0.316 NA
ATOM      4  N   UNL     1      29.359 -23.105 -14.634  0.00  0.00    -0.296 N 
ATOM      5  N   UNL     1      33.857 -24.339 -13.679  0.00  0.00    -0.238 N 
ATOM      6  C   UNL     1      32.312 -23.071 -16.648  0.00  0.00    +0.288 C 
ATOM      7  C   UNL     1      31.017 -22.951 -16.187  0.00  0.00    +0.215 C 
ATOM      8  C   UNL     1      30.693 -23.301 -14.883  0.00  0.00    +0.196 C 
ATOM      9  C   UNL     1      32.845 -23.855 -14.541  0.00  0.00    +0.207 C 
ATOM     10  C   UNL     1      28.875 -22.643 -15.767  0.00  0.00    +0.164 C 
ATOM     11  H   UNL     1      29.706 -22.210 -17.656  0.00  0.00    +0.126 HD
ATOM     12  H   UNL     1      28.872 -23.273 -13.795  0.00  0.00    +0.150 HD
ATOM     13  H   UNL     1      33.535 -24.562 -12.776  0.00  0.00    +0.166 HD
ENDROOT
BRANCH   5  14
ATOM     14  C   UNL     1      35.233 -24.564 -13.861  0.00  0.00    +0.058 C 
ATOM     15  C   UNL     1      36.167 -23.685 -13.307  0.00  0.00    +0.015 C 
ATOM     16  C   UNL     1      35.672 -25.667 -14.597  0.00  0.00    +0.015 C 
ATOM     17  C   UNL     1      37.967 -25.011 -14.222  0.00  0.00    +0.053 C 
ATOM     18  C   UNL     1      37.532 -23.908 -13.486  0.00  0.00    +0.006 C 
ATOM     19  C   UNL     1      37.038 -25.891 -14.777  0.00  0.00    +0.006 C 
BRANCH  17  22
ATOM     20  O   UNL     1      40.109 -24.422 -15.004  0.00  0.00    -0.270 OA
ATOM     21  N   UNL     1      39.929 -26.414 -13.880  0.00  0.00    -0.325 N 
ATOM     22  C   UNL     1      39.390 -25.244 -14.408  0.00  0.00    +0.243 C 
ATOM     23  H   UNL     1      40.889 -26.606 -13.988  0.00  0.00    +0.145 HD
ATOM     24  H   UNL     1      39.351 -27.050 -13.400  0.00  0.00    +0.145 HD
ENDBRANCH  17  22
ENDBRANCH   5  14
BRANCH   6  25
ATOM     25  O   UNL     1      32.687 -22.739 -17.927  0.00  0.00    -0.453 OA
BRANCH  25  26
ATOM     26  C   UNL     1      34.063 -22.842 -18.240  0.00  0.00    +0.208 C 
BRANCH  26  27
ATOM     27  C   UNL     1      34.512 -21.533 -18.886  0.00  0.00    +0.044 C 
ATOM     28  C   UNL     1      35.875 -21.705 -19.572  0.00  0.00    +0.004 C 
ATOM     29  C   UNL     1      33.460 -21.030 -19.883  0.00  0.00    +0.004 C 
ATOM     30  C   UNL     1      36.321 -20.423 -20.271  0.00  0.00    +0.000 C 
ATOM     31  C   UNL     1      33.910 -19.750 -20.582  0.00  0.00    +0.000 C 
ATOM     32  C   UNL     1      35.268 -19.923 -21.254  0.00  0.00    +0.000 C 
ENDBRANCH  26  27
ENDBRANCH  25  26
ENDBRANCH   6  25
TORSDOF 5
ENDMDL
MODEL 2
REMARK VINA RESULT:     -11.2      2.524      6.863
REMARK  Name = 447656
REMARK  5 active torsions:
REMARK  status: ('A' for Active; 'I' for Inactive)
REMARK    1  A    between atoms: N_5  and  C_14
REMARK    2  A    between atoms: C_6  and  O_25
REMARK    3  A    between atoms: C_17  and  C_22
REMARK    4  A    between atoms: O_25  and  C_26
REMARK    5  A    between atoms: C_26  and  C_27
REMARK                            x       y       z     vdW  Elec       q    Type
REMARK                         _______ _______ _______ _____ _____    ______ ____
ROOT
ATOM      1  N   UNL     1      34.012 -22.759 -16.252  0.00  0.00    -0.293 NA
ATOM      2  N   UNL     1      32.949 -24.614 -13.260  0.00  0.00    -0.266 NA
ATOM      3  N   UNL     1      31.738 -23.635 -16.377  0.00  0.00    -0.316 NA
ATOM      4  N   UNL     1      31.046 -24.860 -14.394  0.00  0.00    -0.296 N 
ATOM      5  N   UNL     1      32.671 -22.415 -18.142  0.00  0.00    -0.238 N 
ATOM      6  C   UNL     1      34.187 -23.272 -15.015  0.00  0.00    +0.288 C 
ATOM      7  C   UNL     1      33.141 -23.971 -14.449  0.00  0.00    +0.215 C 
ATOM      8  C   UNL     1      31.946 -24.138 -15.135  0.00  0.00    +0.196 C 
ATOM      9  C   UNL     1      32.814 -22.969 -16.848  0.00  0.00    +0.207 C 
ATOM     10  C   UNL     1      31.681 -25.130 -13.273  0.00  0.00    +0.164 C 
ATOM     11  H   UNL     1      33.603 -24.693 -12.527  0.00  0.00    +0.126 HD
ATOM     12  H   UNL     1      30.130 -25.118 -14.644  0.00  0.00    +0.150 HD
ATOM     13  H   UNL     1      31.792 -22.583 -18.550  0.00  0.00    +0.166 HD
ENDROOT
BRANCH   5  14
ATOM     14  C   UNL     1      33.541 -21.671 -18.958  0.00  0.00    +0.058 C 
ATOM     15  C   UNL     1      34.918 -21.906 -18.914  0.00  0.00    +0.015 C 
ATOM     16  C   UNL     1      33.033 -20.693 -19.817  0.00  0.00    +0.015 C 
ATOM     17  C   UNL     1      35.270 -20.193 -20.581  0.00  0.00    +0.053 C 
ATOM     18  C   UNL     1      35.781 -21.168 -19.724  0.00  0.00    +0.006 C 
ATOM     19  C   UNL     1      33.896 -19.955 -20.628  0.00  0.00    +0.006 C 
BRANCH  17  22
ATOM     20  O   UNL     1      35.850 -19.094 -22.582  0.00  0.00    -0.270 OA
ATOM     21  N   UNL     1      37.399 -19.050 -20.891  0.00  0.00    -0.325 N 
ATOM     22  C   UNL     1      36.169 -19.424 -21.425  0.00  0.00    +0.243 C 
ATOM     23  H   UNL     1      38.034 -18.529 -21.434  0.00  0.00    +0.145 HD
ATOM     24  H   UNL     1      37.635 -19.307 -19.970  0.00  0.00    +0.145 HD
ENDBRANCH  17  22
ENDBRANCH   5  14
BRANCH   6  25
ATOM     25  O   UNL     1      35.391 -23.079 -14.382  0.00  0.00    -0.453 OA
BRANCH  25  26
ATOM     26  C   UNL     1      36.561 -23.396 -15.113  0.00  0.00    +0.208 C 
BRANCH  26  27
ATOM     27  C   UNL     1      37.353 -24.440 -14.328  0.00  0.00    +0.044 C 
ATOM     28  C   UNL     1      37.502 -24.017 -12.861  0.00  0.00    +0.004 C 
ATOM     29  C   UNL     1      36.688 -25.818 -14.434  0.00  0.00    +0.004 C 
ATOM     30  C   UNL     1      38.246 -25.070 -12.043  0.00  0.00    +0.000 C 
ATOM     31  C   UNL     1      37.433 -26.868 -13.613  0.00  0.00    +0.000 C 
ATOM     32  C   UNL     1      37.587 -26.440 -12.158  0.00  0.00    +0.000 C 
ENDBRANCH  26  27
ENDBRANCH  25  26
ENDBRANCH   6  25
TORSDOF 5
ENDMDL
MODEL 3
REMARK VINA RESULT:     -11.2      2.048      6.611
REMARK  Name = 447656
REMARK  5 active torsions:
REMARK  status: ('A' for Active; 'I' for Inactive)
REMARK    1  A    between atoms: N_5  and  C_14
REMARK    2  A    between atoms: C_6  and  O_25
REMARK    3  A    between atoms: C_17  and  C_22
REMARK    4  A    between atoms: O_25  and  C_26
REMARK    5  A    between atoms: C_26  and  C_27
REMARK                            x       y       z     vdW  Elec       q    Type
REMARK                         _______ _______ _______ _____ _____    ______ ____
ROOT
ATOM      1  N   UNL     1      33.673 -23.572 -15.487  0.00  0.00    -0.293 NA
ATOM      2  N   UNL     1      37.325 -23.987 -15.368  0.00  0.00    -0.266 NA
ATOM      3  N   UNL     1      34.466 -24.878 -13.586  0.00  0.00    -0.316 NA
ATOM      4  N   UNL     1      36.882 -25.147 -13.517  0.00  0.00    -0.296 N 
ATOM      5  N   UNL     1      32.187 -24.458 -13.908  0.00  0.00    -0.238 N 
ATOM      6  C   UNL     1      34.930 -23.392 -15.944  0.00  0.00    +0.288 C 
ATOM      7  C   UNL     1      35.967 -23.954 -15.226  0.00  0.00    +0.215 C 
ATOM      8  C   UNL     1      35.717 -24.680 -14.069  0.00  0.00    +0.196 C 
ATOM      9  C   UNL     1      33.520 -24.294 -14.352  0.00  0.00    +0.207 C 
ATOM     10  C   UNL     1      37.828 -24.713 -14.322  0.00  0.00    +0.164 C 
ATOM     11  H   UNL     1      37.845 -23.568 -16.091  0.00  0.00    +0.126 HD
ATOM     12  H   UNL     1      36.987 -25.686 -12.700  0.00  0.00    +0.150 HD
ATOM     13  H   UNL     1      32.107 -24.986 -13.081  0.00  0.00    +0.166 HD
ENDROOT
BRANCH   5  14
ATOM     14  C   UNL     1      30.954 -24.015 -14.418  0.00  0.00    +0.058 C 
ATOM     15  C   UNL     1      30.569 -22.680 -14.261  0.00  0.00    +0.015 C 
ATOM     16  C   UNL     1      30.108 -24.905 -15.083  0.00  0.00    +0.015 C 
ATOM     17  C   UNL     1      28.504 -23.132 -15.430  0.00  0.00    +0.053 C 
ATOM     18  C   UNL     1      29.346 -22.239 -14.766  0.00  0.00    +0.006 C 
ATOM     19  C   UNL     1      28.885 -24.464 -15.589  0.00  0.00    +0.006 C 
BRANCH  17  22
ATOM     20  O   UNL     1      26.264 -22.438 -15.209  0.00  0.00    -0.270 OA
ATOM     21  N   UNL     1      27.129 -22.482 -17.333  0.00  0.00    -0.325 N 
ATOM     22  C   UNL     1      27.230 -22.672 -15.958  0.00  0.00    +0.243 C 
ATOM     23  H   UNL     1      26.281 -22.172 -17.726  0.00  0.00    +0.145 HD
ATOM     24  H   UNL     1      27.905 -22.659 -17.913  0.00  0.00    +0.145 HD
ENDBRANCH  17  22
ENDBRANCH   5  14
BRANCH   6  25
ATOM     25  O   UNL     1      35.121 -22.666 -17.094  0.00  0.00    -0.453 OA
BRANCH  25  26
ATOM     26  C   UNL     1      34.063 -22.662 -18.034  0.00  0.00    +0.208 C 
BRANCH  26  27
ATOM     27  C   UNL     1      34.542 -21.952 -19.299  0.00  0.00    +0.044 C 
ATOM     28  C   UNL     1      33.558 -20.847 -19.707  0.00  0.00    +0.004 C 
ATOM     29  C   UNL     1      35.952 -21.380 -19.099  0.00  0.00    +0.004 C 
ATOM     30  C   UNL     1      34.042 -20.087 -20.939  0.00  0.00    +0.000 C 
ATOM     31  C   UNL     1      36.432 -20.618 -20.332  0.00  0.00    +0.000 C 
ATOM     32  C   UNL     1      35.446 -19.528 -20.739  0.00  0.00    +0.000 C 
ENDBRANCH  26  27
ENDBRANCH  25  26
ENDBRANCH   6  25
TORSDOF 5
ENDMDL
MODEL 4
REMARK VINA RESULT:     -11.1      2.153      6.596
REMARK  Name = 447656
REMARK  5 active torsions:
REMARK  status: ('A' for Active; 'I' for Inactive)
REMARK    1  A    between atoms: N_5  and  C_14
REMARK    2  A    between atoms: C_6  and  O_25
REMARK    3  A    between atoms: C_17  and  C_22
REMARK    4  A    between atoms: O_25  and  C_26
REMARK    5  A    between atoms: C_26  and  C_27
REMARK                            x       y       z     vdW  Elec       q    Type
REMARK                         _______ _______ _______ _____ _____    ______ ____
ROOT
ATOM      1  N   UNL     1      34.578 -23.989 -14.152  0.00  0.00    -0.293 NA
ATOM      2  N   UNL     1      38.062 -24.063 -12.978  0.00  0.00    -0.266 NA
ATOM      3  N   UNL     1      34.811 -24.244 -11.737  0.00  0.00    -0.316 NA
ATOM      4  N   UNL     1      37.118 -24.292 -10.972  0.00  0.00    -0.296 N 
ATOM      5  N   UNL     1      32.706 -24.166 -12.755  0.00  0.00    -0.238 N 
ATOM      6  C   UNL     1      35.917 -23.951 -14.320  0.00  0.00    +0.288 C 
ATOM      7  C   UNL     1      36.714 -24.059 -13.200  0.00  0.00    +0.215 C 
ATOM      8  C   UNL     1      36.151 -24.202 -11.939  0.00  0.00    +0.196 C 
ATOM      9  C   UNL     1      34.113 -24.131 -12.888  0.00  0.00    +0.207 C 
ATOM     10  C   UNL     1      38.255 -24.204 -11.630  0.00  0.00    +0.164 C 
ATOM     11  H   UNL     1      38.765 -23.980 -13.662  0.00  0.00    +0.126 HD
ATOM     12  H   UNL     1      36.991 -24.397 -10.001  0.00  0.00    +0.150 HD
ATOM     13  H   UNL     1      32.398 -24.269 -11.826  0.00  0.00    +0.166 HD
ENDROOT
BRANCH   5  14
ATOM     14  C   UNL     1      31.661 -24.082 -13.692  0.00  0.00    +0.058 C 
ATOM     15  C   UNL     1      30.865 -25.199 -13.958  0.00  0.00    +0.015 C 
ATOM     16  C   UNL     1      31.413 -22.881 -14.361  0.00  0.00    +0.015 C 
ATOM     17  C   UNL     1      29.583 -23.916 -15.553  0.00  0.00    +0.053 C 
ATOM     18  C   UNL     1      29.828 -25.117 -14.887  0.00  0.00    +0.006 C 
ATOM     19  C   UNL     1      30.375 -22.798 -15.290  0.00  0.00    +0.006 C 
BRANCH  17  22
ATOM     20  O   UNL     1      27.956 -24.849 -16.977  0.00  0.00    -0.270 OA
ATOM     21  N   UNL     1      28.080 -22.560 -16.908  0.00  0.00    -0.325 N 
ATOM     22  C   UNL     1      28.502 -23.829 -16.521  0.00  0.00    +0.243 C 
ATOM     23  H   UNL     1      27.350 -22.462 -17.562  0.00  0.00    +0.145 HD
ATOM     24  H   UNL     1      28.512 -21.760 -16.530  0.00  0.00    +0.145 HD
ENDBRANCH  17  22
ENDBRANCH   5  14
BRANCH   6  25
ATOM     25  O   UNL     1      36.422 -23.808 -15.590  0.00  0.00    -0.453 OA
BRANCH  25  26
ATOM     26  C   UNL     1      36.489 -22.494 -16.111  0.00  0.00    +0.208 C 
BRANCH  26  27
ATOM     27  C   UNL     1      35.897 -22.500 -17.519  0.00  0.00    +0.044 C 
ATOM     28  C   UNL     1      34.366 -22.406 -17.464  0.00  0.00    +0.004 C 
ATOM     29  C   UNL     1      36.484 -21.359 -18.360  0.00  0.00    +0.004 C 
ATOM     30  C   UNL     1      33.753 -22.357 -18.861  0.00  0.00    +0.000 C 
ATOM     31  C   UNL     1      35.867 -21.312 -19.755  0.00  0.00    +0.000 C 
ATOM     32  C   UNL     1      34.345 -21.227 -19.696  0.00  0.00    +0.000 C 
ENDBRANCH  26  27
ENDBRANCH  25  26
ENDBRANCH   6  25
TORSDOF 5
ENDMDL
MODEL 5
REMARK VINA RESULT:     -11.1      7.455     10.673
REMARK  Name = 447656
REMARK  5 active torsions:
REMARK  status: ('A' for Active; 'I' for Inactive)
REMARK    1  A    between atoms: N_5  and  C_14
REMARK    2  A    between atoms: C_6  and  O_25
REMARK    3  A    between atoms: C_17  and  C_22
REMARK    4  A    between atoms: O_25  and  C_26
REMARK    5  A    between atoms: C_26  and  C_27
REMARK                            x       y       z     vdW  Elec       q    Type
REMARK                         _______ _______ _______ _____ _____    ______ ____
ROOT
ATOM      1  N   UNL     1      34.561 -16.038 -22.879  0.00  0.00    -0.293 NA
ATOM      2  N   UNL     1      33.461 -13.187 -24.925  0.00  0.00    -0.266 NA
ATOM      3  N   UNL     1      34.566 -16.472 -25.280  0.00  0.00    -0.316 NA
ATOM      4  N   UNL     1      33.837 -14.582 -26.622  0.00  0.00    -0.296 N 
ATOM      5  N   UNL     1      35.220 -18.112 -23.744  0.00  0.00    -0.238 N 
ATOM      6  C   UNL     1      34.117 -14.777 -23.065  0.00  0.00    +0.288 C 
ATOM      7  C   UNL     1      33.894 -14.352 -24.359  0.00  0.00    +0.215 C 
ATOM      8  C   UNL     1      34.122 -15.201 -25.433  0.00  0.00    +0.196 C 
ATOM      9  C   UNL     1      34.756 -16.798 -23.983  0.00  0.00    +0.207 C 
ATOM     10  C   UNL     1      33.443 -13.373 -26.281  0.00  0.00    +0.164 C 
ATOM     11  H   UNL     1      33.207 -12.365 -24.445  0.00  0.00    +0.126 HD
ATOM     12  H   UNL     1      33.912 -14.956 -27.530  0.00  0.00    +0.150 HD
ATOM     13  H   UNL     1      35.353 -18.641 -24.564  0.00  0.00    +0.166 HD
ENDROOT
BRANCH   5  14
ATOM     14  C   UNL     1      35.530 -18.811 -22.565  0.00  0.00    +0.058 C 
ATOM     15  C   UNL     1      34.576 -19.640 -21.969  0.00  0.00    +0.015 C 
ATOM     16  C   UNL     1      36.793 -18.681 -21.982  0.00  0.00    +0.015 C 
ATOM     17  C   UNL     1      36.145 -20.202 -20.220  0.00  0.00    +0.053 C 
ATOM     18  C   UNL     1      34.883 -20.335 -20.799  0.00  0.00    +0.006 C 
ATOM     19  C   UNL     1      37.101 -19.375 -20.812  0.00  0.00    +0.006 C 
BRANCH  17  22
ATOM     20  O   UNL     1      37.292 -20.484 -18.182  0.00  0.00    -0.270 OA
ATOM     21  N   UNL     1      35.800 -22.125 -18.766  0.00  0.00    -0.325 N 
ATOM     22  C   UNL     1      36.465 -20.925 -19.001  0.00  0.00    +0.243 C 
ATOM     23  H   UNL     1      35.992 -22.643 -17.950  0.00  0.00    +0.145 HD
ATOM     24  H   UNL     1      35.138 -22.457 -19.415  0.00  0.00    +0.145 HD
ENDBRANCH  17  22
ENDBRANCH   5  14
BRANCH   6  25
ATOM     25  O   UNL     1      33.908 -13.979 -21.966  0.00  0.00    -0.453 OA
BRANCH  25  26
ATOM     26  C   UNL     1      32.790 -14.284 -21.154  0.00  0.00    +0.208 C 
BRANCH  26  27
ATOM     27  C   UNL     1      31.972 -13.009 -20.957  0.00  0.00    +0.044 C 
ATOM     28  C   UNL     1      32.044 -12.539 -19.498  0.00  0.00    +0.004 C 
ATOM     29  C   UNL     1      32.450 -11.906 -21.910  0.00  0.00    +0.004 C 
ATOM     30  C   UNL     1      31.277 -11.235 -19.287  0.00  0.00    +0.000 C 
ATOM     31  C   UNL     1      31.684 -10.603 -21.694  0.00  0.00    +0.000 C 
ATOM     32  C   UNL     1      31.749 -10.144 -20.241  0.00  0.00    +0.000 C 
ENDBRANCH  26  27
ENDBRANCH  25  26
ENDBRANCH   6  25
TORSDOF 5
ENDMDL
MODEL 6
REMARK VINA RESULT:     -11.0      2.628      7.307
REMARK  Name = 447656
REMARK  5 active torsions:
REMARK  status: ('A' for Active; 'I' for Inactive)
REMARK    1  A    between atoms: N_5  and  C_14
REMARK    2  A    between atoms: C_6  and  O_25
REMARK    3  A    between atoms: C_17  and  C_22
REMARK    4  A    between atoms: O_25  and  C_26
REMARK    5  A    between atoms: C_26  and  C_27
REMARK                            x       y       z     vdW  Elec       q    Type
REMARK                         _______ _______ _______ _____ _____    ______ ____
ROOT
ATOM      1  N   UNL     1      35.534 -23.844 -15.264  0.00  0.00    -0.293 NA
ATOM      2  N   UNL     1      36.428 -25.757 -12.253  0.00  0.00    -0.266 NA
ATOM      3  N   UNL     1      37.928 -23.908 -14.797  0.00  0.00    -0.316 NA
ATOM      4  N   UNL     1      38.507 -25.174 -12.804  0.00  0.00    -0.296 N 
ATOM      5  N   UNL     1      37.079 -22.761 -16.651  0.00  0.00    -0.238 N 
ATOM      6  C   UNL     1      35.258 -24.597 -14.178  0.00  0.00    +0.288 C 
ATOM      7  C   UNL     1      36.314 -25.011 -13.392  0.00  0.00    +0.215 C 
ATOM      8  C   UNL     1      37.618 -24.661 -13.714  0.00  0.00    +0.196 C 
ATOM      9  C   UNL     1      36.834 -23.550 -15.504  0.00  0.00    +0.207 C 
ATOM     10  C   UNL     1      37.759 -25.827 -11.941  0.00  0.00    +0.164 C 
ATOM     11  H   UNL     1      35.688 -26.168 -11.750  0.00  0.00    +0.126 HD
ATOM     12  H   UNL     1      39.487 -25.077 -12.799  0.00  0.00    +0.150 HD
ATOM     13  H   UNL     1      38.031 -22.563 -16.801  0.00  0.00    +0.166 HD
ENDROOT
BRANCH   5  14
ATOM     14  C   UNL     1      36.227 -22.203 -17.621  0.00  0.00    +0.058 C 
ATOM     15  C   UNL     1      34.851 -22.444 -17.569  0.00  0.00    +0.015 C 
ATOM     16  C   UNL     1      36.751 -21.405 -18.640  0.00  0.00    +0.015 C 
ATOM     17  C   UNL     1      34.533 -21.094 -19.547  0.00  0.00    +0.053 C 
ATOM     18  C   UNL     1      34.006 -21.891 -18.530  0.00  0.00    +0.006 C 
ATOM     19  C   UNL     1      35.906 -20.850 -19.602  0.00  0.00    +0.006 C 
BRANCH  17  22
ATOM     20  O   UNL     1      32.422 -20.698 -20.513  0.00  0.00    -0.270 OA
ATOM     21  N   UNL     1      34.229 -19.732 -21.544  0.00  0.00    -0.325 N 
ATOM     22  C   UNL     1      33.652 -20.517 -20.548  0.00  0.00    +0.243 C 
ATOM     23  H   UNL     1      33.663 -19.325 -22.240  0.00  0.00    +0.145 HD
ATOM     24  H   UNL     1      35.202 -19.586 -21.554  0.00  0.00    +0.145 HD
ENDBRANCH  17  22
ENDBRANCH   5  14
BRANCH   6  25
ATOM     25  O   UNL     1      33.950 -24.913 -13.905  0.00  0.00    -0.453 OA
BRANCH  25  26
ATOM     26  C   UNL     1      33.236 -24.025 -13.064  0.00  0.00    +0.208 C 
BRANCH  26  27
ATOM     27  C   UNL     1      31.828 -23.850 -13.631  0.00  0.00    +0.044 C 
ATOM     28  C   UNL     1      31.880 -23.216 -15.027  0.00  0.00    +0.004 C 
ATOM     29  C   UNL     1      31.087 -25.193 -13.669  0.00  0.00    +0.004 C 
ATOM     30  C   UNL     1      30.487 -23.079 -15.637  0.00  0.00    +0.000 C 
ATOM     31  C   UNL     1      29.696 -25.053 -14.281  0.00  0.00    +0.000 C 
ATOM     32  C   UNL     1      29.751 -24.414 -15.665  0.00  0.00    +0.000 C 
ENDBRANCH  26  27
ENDBRANCH  25  26
ENDBRANCH   6  25
TORSDOF 5
ENDMDL
MODEL 7
REMARK VINA RESULT:     -10.6      6.134      9.049
REMARK  Name = 447656
REMARK  5 active torsions:
REMARK  status: ('A' for Active; 'I' for Inactive)
REMARK    1  A    between atoms: N_5  and  C_14
REMARK    2  A    between atoms: C_6  and  O_25
REMARK    3  A    between atoms: C_17  and  C_22
REMARK    4  A    between atoms: O_25  and  C_26
REMARK    5  A    between atoms: C_26  and  C_27
REMARK                            x       y       z     vdW  Elec       q    Type
REMARK                         _______ _______ _______ _____ _____    ______ ____
ROOT
ATOM      1  N   UNL     1      34.680 -17.663 -21.041  0.00  0.00    -0.293 NA
ATOM      2  N   UNL     1      34.782 -14.682 -23.192  0.00  0.00    -0.266 NA
ATOM      3  N   UNL     1      35.241 -18.131 -23.368  0.00  0.00    -0.316 NA
ATOM      4  N   UNL     1      35.305 -16.154 -24.781  0.00  0.00    -0.296 N 
ATOM      5  N   UNL     1      35.106 -19.844 -21.780  0.00  0.00    -0.238 N 
ATOM      6  C   UNL     1      34.572 -16.340 -21.288  0.00  0.00    +0.288 C 
ATOM      7  C   UNL     1      34.798 -15.901 -22.576  0.00  0.00    +0.215 C 
ATOM      8  C   UNL     1      35.125 -16.798 -23.584  0.00  0.00    +0.196 C 
ATOM      9  C   UNL     1      35.004 -18.466 -22.081  0.00  0.00    +0.207 C 
ATOM     10  C   UNL     1      35.091 -14.884 -24.510  0.00  0.00    +0.164 C 
ATOM     11  H   UNL     1      34.583 -13.817 -22.765  0.00  0.00    +0.126 HD
ATOM     12  H   UNL     1      35.542 -16.552 -25.650  0.00  0.00    +0.150 HD
ATOM     13  H   UNL     1      35.343 -20.403 -22.554  0.00  0.00    +0.166 HD
ENDROOT
BRANCH   5  14
ATOM     14  C   UNL     1      34.937 -20.571 -20.588  0.00  0.00    +0.058 C 
ATOM     15  C   UNL     1      33.652 -20.855 -20.116  0.00  0.00    +0.015 C 
ATOM     16  C   UNL     1      36.051 -21.013 -19.871  0.00  0.00    +0.015 C 
ATOM     17  C   UNL     1      34.598 -22.017 -18.221  0.00  0.00    +0.053 C 
ATOM     18  C   UNL     1      33.483 -21.577 -18.935  0.00  0.00    +0.006 C 
ATOM     19  C   UNL     1      35.882 -21.735 -18.689  0.00  0.00    +0.006 C 
BRANCH  17  22
ATOM     20  O   UNL     1      33.293 -23.098 -16.586  0.00  0.00    -0.270 OA
ATOM     21  N   UNL     1      35.566 -23.130 -16.283  0.00  0.00    -0.325 N 
ATOM     22  C   UNL     1      34.423 -22.769 -16.990  0.00  0.00    +0.243 C 
ATOM     23  H   UNL     1      35.485 -23.640 -15.444  0.00  0.00    +0.145 HD
ATOM     24  H   UNL     1      36.455 -22.875 -16.620  0.00  0.00    +0.145 HD
ENDBRANCH  17  22
ENDBRANCH   5  14
BRANCH   6  25
ATOM     25  O   UNL     1      34.245 -15.496 -20.254  0.00  0.00    -0.453 OA
BRANCH  25  26
ATOM     26  C   UNL     1      32.892 -15.088 -20.162  0.00  0.00    +0.208 C 
BRANCH  26  27
ATOM     27  C   UNL     1      32.825 -13.580 -20.397  0.00  0.00    +0.044 C 
ATOM     28  C   UNL     1      32.298 -13.274 -21.806  0.00  0.00    +0.004 C 
ATOM     29  C   UNL     1      31.954 -12.904 -19.330  0.00  0.00    +0.004 C 
ATOM     30  C   UNL     1      32.171 -11.771 -22.046  0.00  0.00    +0.000 C 
ATOM     31  C   UNL     1      31.827 -11.402 -19.574  0.00  0.00    +0.000 C 
ATOM     32  C   UNL     1      31.313 -11.101 -20.978  0.00  0.00    +0.000 C 
ENDBRANCH  26  27
ENDBRANCH  25  26
ENDBRANCH   6  25
TORSDOF 5
ENDMDL
MODEL 8
REMARK VINA RESULT:     -10.4      2.564      5.396
REMARK  Name = 447656
REMARK  5 active torsions:
REMARK  status: ('A' for Active; 'I' for Inactive)
REMARK    1  A    between atoms: N_5  and  C_14
REMARK    2  A    between atoms: C_6  and  O_25
REMARK    3  A    between atoms: C_17  and  C_22
REMARK    4  A    between atoms: O_25  and  C_26
REMARK    5  A    between atoms: C_26  and  C_27
REMARK                            x       y       z     vdW  Elec       q    Type
REMARK                         _______ _______ _______ _____ _____    ______ ____
ROOT
ATOM      1  N   UNL     1      34.890 -22.611 -17.270  0.00  0.00    -0.293 NA
ATOM      2  N   UNL     1      33.203 -21.117 -20.177  0.00  0.00    -0.266 NA
ATOM      3  N   UNL     1      36.311 -21.139 -18.600  0.00  0.00    -0.316 NA
ATOM      4  N   UNL     1      35.186 -20.157 -20.518  0.00  0.00    -0.296 N 
ATOM      5  N   UNL     1      37.127 -22.222 -16.694  0.00  0.00    -0.238 N 
ATOM      6  C   UNL     1      33.835 -22.401 -18.086  0.00  0.00    +0.288 C 
ATOM      7  C   UNL     1      34.008 -21.559 -19.165  0.00  0.00    +0.215 C 
ATOM      8  C   UNL     1      35.233 -20.948 -19.399  0.00  0.00    +0.196 C 
ATOM      9  C   UNL     1      36.047 -21.975 -17.573  0.00  0.00    +0.207 C 
ATOM     10  C   UNL     1      33.952 -20.282 -20.961  0.00  0.00    +0.164 C 
ATOM     11  H   UNL     1      32.258 -21.357 -20.316  0.00  0.00    +0.126 HD
ATOM     12  H   UNL     1      35.912 -19.616 -20.905  0.00  0.00    +0.150 HD
ATOM     13  H   UNL     1      37.954 -21.747 -16.938  0.00  0.00    +0.166 HD
ENDROOT
BRANCH   5  14
ATOM     14  C   UNL     1      37.250 -23.014 -15.538  0.00  0.00    +0.058 C 
ATOM     15  C   UNL     1      36.258 -22.980 -14.555  0.00  0.00    +0.015 C 
ATOM     16  C   UNL     1      38.365 -23.838 -15.367  0.00  0.00    +0.015 C 
ATOM     17  C   UNL     1      37.493 -24.587 -13.241  0.00  0.00    +0.053 C 
ATOM     18  C   UNL     1      36.378 -23.765 -13.409  0.00  0.00    +0.006 C 
ATOM     19  C   UNL     1      38.486 -24.624 -14.221  0.00  0.00    +0.006 C 
BRANCH  17  22
ATOM     20  O   UNL     1      37.868 -24.901 -10.937  0.00  0.00    -0.270 OA
ATOM     21  N   UNL     1      37.433 -26.779 -12.181  0.00  0.00    -0.325 N 
ATOM     22  C   UNL     1      37.619 -25.406 -12.047  0.00  0.00    +0.243 C 
ATOM     23  H   UNL     1      37.512 -27.365 -11.393  0.00  0.00    +0.145 HD
ATOM     24  H   UNL     1      37.224 -27.164 -13.062  0.00  0.00    +0.145 HD
ENDBRANCH  17  22
ENDBRANCH   5  14
BRANCH   6  25
ATOM     25  O   UNL     1      32.647 -23.030 -17.808  0.00  0.00    -0.453 OA
BRANCH  25  26
ATOM     26  C   UNL     1      31.959 -22.619 -16.641  0.00  0.00    +0.208 C 
BRANCH  26  27
ATOM     27  C   UNL     1      31.851 -23.815 -15.696  0.00  0.00    +0.044 C 
ATOM     28  C   UNL     1      32.619 -23.548 -14.394  0.00  0.00    +0.004 C 
ATOM     29  C   UNL     1      30.382 -24.145 -15.405  0.00  0.00    +0.004 C 
ATOM     30  C   UNL     1      32.482 -24.708 -13.411  0.00  0.00    +0.000 C 
ATOM     31  C   UNL     1      30.249 -25.304 -14.419  0.00  0.00    +0.000 C 
ATOM     32  C   UNL     1      31.021 -25.039 -13.131  0.00  0.00    +0.000 C 
ENDBRANCH  26  27
ENDBRANCH  25  26
ENDBRANCH   6  25
TORSDOF 5
ENDMDL
MODEL 9
REMARK VINA RESULT:      -9.9      3.253      7.966
REMARK  Name = 447656
REMARK  5 active torsions:
REMARK  status: ('A' for Active; 'I' for Inactive)
REMARK    1  A    between atoms: N_5  and  C_14
REMARK    2  A    between atoms: C_6  and  O_25
REMARK    3  A    between atoms: C_17  and  C_22
REMARK    4  A    between atoms: O_25  and  C_26
REMARK    5  A    between atoms: C_26  and  C_27
REMARK                            x       y       z     vdW  Elec       q    Type
REMARK                         _______ _______ _______ _____ _____    ______ ____
ROOT
ATOM      1  N   UNL     1      35.090 -22.091 -17.974  0.00  0.00    -0.293 NA
ATOM      2  N   UNL     1      35.027 -24.187 -14.953  0.00  0.00    -0.266 NA
ATOM      3  N   UNL     1      37.196 -22.129 -16.743  0.00  0.00    -0.316 NA
ATOM      4  N   UNL     1      37.143 -23.517 -14.748  0.00  0.00    -0.296 N 
ATOM      5  N   UNL     1      36.955 -20.877 -18.704  0.00  0.00    -0.238 N 
ATOM      6  C   UNL     1      34.506 -22.924 -17.086  0.00  0.00    +0.288 C 
ATOM      7  C   UNL     1      35.261 -23.366 -16.019  0.00  0.00    +0.215 C 
ATOM      8  C   UNL     1      36.581 -22.964 -15.869  0.00  0.00    +0.196 C 
ATOM      9  C   UNL     1      36.381 -21.750 -17.751  0.00  0.00    +0.207 C 
ATOM     10  C   UNL     1      36.182 -24.246 -14.220  0.00  0.00    +0.164 C 
ATOM     11  H   UNL     1      34.182 -24.650 -14.748  0.00  0.00    +0.126 HD
ATOM     12  H   UNL     1      38.061 -23.397 -14.411  0.00  0.00    +0.150 HD
ATOM     13  H   UNL     1      37.893 -20.647 -18.517  0.00  0.00    +0.166 HD
ENDROOT
BRANCH   5  14
ATOM     14  C   UNL     1      36.446 -20.273 -19.868  0.00  0.00    +0.058 C 
ATOM     15  C   UNL     1      35.142 -20.548 -20.288  0.00  0.00    +0.015 C 
ATOM     16  C   UNL     1      37.241 -19.396 -20.609  0.00  0.00    +0.015 C 
ATOM     17  C   UNL     1      35.433 -19.074 -22.180  0.00  0.00    +0.053 C 
ATOM     18  C   UNL     1      34.636 -19.950 -21.442  0.00  0.00    +0.006 C 
ATOM     19  C   UNL     1      36.735 -18.797 -21.763  0.00  0.00    +0.006 C 
BRANCH  17  22
ATOM     20  O   UNL     1      34.418 -19.127 -24.304  0.00  0.00    -0.270 OA
ATOM     21  N   UNL     1      34.947 -17.061 -23.461  0.00  0.00    -0.325 N 
ATOM     22  C   UNL     1      34.906 -18.450 -23.382  0.00  0.00    +0.243 C 
ATOM     23  H   UNL     1      34.600 -16.603 -24.261  0.00  0.00    +0.145 HD
ATOM     24  H   UNL     1      35.325 -16.535 -22.719  0.00  0.00    +0.145 HD
ENDBRANCH  17  22
ENDBRANCH   5  14
BRANCH   6  25
ATOM     25  O   UNL     1      33.197 -23.290 -17.282  0.00  0.00    -0.453 OA
BRANCH  25  26
ATOM     26  C   UNL     1      32.234 -22.720 -16.415  0.00  0.00    +0.208 C 
BRANCH  26  27
ATOM     27  C   UNL     1      31.251 -23.812 -15.997  0.00  0.00    +0.044 C 
ATOM     28  C   UNL     1      31.525 -24.265 -14.556  0.00  0.00    +0.004 C 
ATOM     29  C   UNL     1      29.804 -23.328 -16.151  0.00  0.00    +0.004 C 
ATOM     30  C   UNL     1      30.522 -25.321 -14.096  0.00  0.00    +0.000 C 
ATOM     31  C   UNL     1      28.804 -24.384 -15.688  0.00  0.00    +0.000 C 
ATOM     32  C   UNL     1      29.084 -24.839 -14.260  0.00  0.00    +0.000 C 
ENDBRANCH  26  27
ENDBRANCH  25  26
ENDBRANCH   6  25
TORSDOF 5
ENDMDL
