MODEL 1
REMARK VINA RESULT:     -11.3      0.000      0.000
REMARK  Name = 24743471
REMARK  3 active torsions:
REMARK  status: ('A' for Active; 'I' for Inactive)
REMARK    1  A    between atoms: C_1  and  N_7
REMARK    2  A    between atoms: C_6  and  C_17
REMARK    3  A    between atoms: C_22  and  N_24
REMARK                            x       y       z     vdW  Elec       q    Type
REMARK                         _______ _______ _______ _____ _____    ______ ____
ROOT
ATOM      1  C   UNL     1      36.255 -23.514 -15.398  0.00  0.00    +0.048 C 
ATOM      2  C   UNL     1      35.010 -23.502 -16.028  0.00  0.00    +0.015 C 
ATOM      3  C   UNL     1      37.307 -22.759 -15.917  0.00  0.00    +0.015 C 
ATOM      4  C   UNL     1      34.818 -22.735 -17.178  0.00  0.00    +0.001 C 
ATOM      5  C   UNL     1      37.114 -21.991 -17.066  0.00  0.00    +0.001 C 
ATOM      6  C   UNL     1      35.869 -21.980 -17.695  0.00  0.00    +0.000 C 
ENDROOT
BRANCH   1   7
ATOM      7  N   UNL     1      36.446 -24.273 -14.260  0.00  0.00    -0.311 N 
ATOM      8  N   UNL     1      39.050 -26.512 -13.631  0.00  0.00    +0.387 N 
ATOM      9  C   UNL     1      36.966 -26.050 -12.767  0.00  0.00    -0.003 C 
ATOM     10  C   UNL     1      36.928 -25.657 -14.254  0.00  0.00    +0.050 C 
ATOM     11  C   UNL     1      36.099 -25.024 -12.058  0.00  0.00    +0.021 C 
ATOM     12  C   UNL     1      38.443 -26.014 -12.399  0.00  0.00    -0.076 C 
ATOM     13  C   UNL     1      38.387 -25.776 -14.712  0.00  0.00    -0.057 C 
ATOM     14  C   UNL     1      36.233 -23.764 -12.907  0.00  0.00    +0.091 C 
ATOM     15  C   UNL     1      40.495 -26.343 -13.648  0.00  0.00    -0.101 C 
ATOM     16  H   UNL     1      38.919 -27.520 -13.731  0.00  0.00    -0.080 HD
ENDBRANCH   1   7
BRANCH   6  17
ATOM     17  C   UNL     1      35.670 -21.184 -18.888  0.00  0.00    +0.000 C 
ATOM     18  C   UNL     1      36.755 -20.543 -19.487  0.00  0.00    +0.001 C 
ATOM     19  C   UNL     1      34.394 -21.055 -19.436  0.00  0.00    +0.001 C 
ATOM     20  C   UNL     1      36.564 -19.776 -20.636  0.00  0.00    +0.017 C 
ATOM     21  C   UNL     1      34.203 -20.288 -20.585  0.00  0.00    +0.017 C 
ATOM     22  C   UNL     1      35.288 -19.648 -21.184  0.00  0.00    +0.077 C 
BRANCH  22  24
ATOM     23  O   UNL     1      35.469 -16.695 -21.506  0.00  0.00    -0.268 OA
ATOM     24  N   UNL     1      35.091 -18.853 -22.374  0.00  0.00    -0.155 N 
ATOM     25  N   UNL     1      34.819 -19.606 -23.492  0.00  0.00    -0.170 NA
ATOM     26  C   UNL     1      35.171 -17.457 -22.426  0.00  0.00    +0.272 C 
ATOM     27  C   UNL     1      34.883 -16.821 -23.737  0.00  0.00    +0.062 C 
ATOM     28  C   UNL     1      34.600 -18.994 -24.605  0.00  0.00    +0.118 C 
ATOM     29  C   UNL     1      34.604 -17.551 -24.811  0.00  0.00    +0.027 C 
ENDBRANCH  22  24
ENDBRANCH   6  17
TORSDOF 3
ENDMDL
MODEL 2
REMARK VINA RESULT:     -10.2      1.407      2.353
REMARK  Name = 24743471
REMARK  3 active torsions:
REMARK  status: ('A' for Active; 'I' for Inactive)
REMARK    1  A    between atoms: C_1  and  N_7
REMARK    2  A    between atoms: C_6  and  C_17
REMARK    3  A    between atoms: C_22  and  N_24
REMARK                            x       y       z     vdW  Elec       q    Type
REMARK                         _______ _______ _______ _____ _____    ______ ____
ROOT
ATOM      1  C   UNL     1      36.520 -23.656 -15.766  0.00  0.00    +0.048 C 
ATOM      2  C   UNL     1      37.539 -22.812 -16.208  0.00  0.00    +0.015 C 
ATOM      3  C   UNL     1      35.275 -23.635 -16.396  0.00  0.00    +0.015 C 
ATOM      4  C   UNL     1      37.313 -21.946 -17.278  0.00  0.00    +0.001 C 
ATOM      5  C   UNL     1      35.050 -22.769 -17.467  0.00  0.00    +0.001 C 
ATOM      6  C   UNL     1      36.070 -21.925 -17.907  0.00  0.00    +0.000 C 
ENDROOT
BRANCH   1   7
ATOM      7  N   UNL     1      36.742 -24.514 -14.707  0.00  0.00    -0.311 N 
ATOM      8  N   UNL     1      37.361 -23.647 -11.382  0.00  0.00    +0.387 N 
ATOM      9  C   UNL     1      37.588 -25.509 -12.719  0.00  0.00    -0.003 C 
ATOM     10  C   UNL     1      37.718 -24.282 -13.638  0.00  0.00    +0.050 C 
ATOM     11  C   UNL     1      36.865 -26.557 -13.547  0.00  0.00    +0.021 C 
ATOM     12  C   UNL     1      36.820 -24.999 -11.507  0.00  0.00    -0.076 C 
ATOM     13  C   UNL     1      37.341 -23.097 -12.742  0.00  0.00    -0.057 C 
ATOM     14  C   UNL     1      35.989 -25.749 -14.499  0.00  0.00    +0.091 C 
ATOM     15  C   UNL     1      36.609 -22.831 -10.441  0.00  0.00    -0.101 C 
ATOM     16  H   UNL     1      38.308 -23.657 -10.999  0.00  0.00    -0.080 HD
ENDBRANCH   1   7
BRANCH   6  17
ATOM     17  C   UNL     1      35.835 -21.027 -19.018  0.00  0.00    +0.000 C 
ATOM     18  C   UNL     1      36.895 -20.302 -19.563  0.00  0.00    +0.001 C 
ATOM     19  C   UNL     1      34.551 -20.887 -19.542  0.00  0.00    +0.001 C 
ATOM     20  C   UNL     1      36.670 -19.437 -20.633  0.00  0.00    +0.017 C 
ATOM     21  C   UNL     1      34.325 -20.021 -20.612  0.00  0.00    +0.017 C 
ATOM     22  C   UNL     1      35.385 -19.296 -21.157  0.00  0.00    +0.077 C 
BRANCH  22  24
ATOM     23  O   UNL     1      34.815 -19.956 -24.002  0.00  0.00    -0.268 OA
ATOM     24  N   UNL     1      35.151 -18.400 -22.266  0.00  0.00    -0.155 N 
ATOM     25  N   UNL     1      35.169 -17.073 -21.905  0.00  0.00    -0.170 NA
ATOM     26  C   UNL     1      34.915 -18.803 -23.585  0.00  0.00    +0.272 C 
ATOM     27  C   UNL     1      34.749 -17.724 -24.592  0.00  0.00    +0.062 C 
ATOM     28  C   UNL     1      34.996 -16.186 -22.823  0.00  0.00    +0.118 C 
ATOM     29  C   UNL     1      34.784 -16.443 -24.243  0.00  0.00    +0.027 C 
ENDBRANCH  22  24
ENDBRANCH   6  17
TORSDOF 3
ENDMDL
MODEL 3
REMARK VINA RESULT:     -10.2      7.882     15.171
REMARK  Name = 24743471
REMARK  3 active torsions:
REMARK  status: ('A' for Active; 'I' for Inactive)
REMARK    1  A    between atoms: C_1  and  N_7
REMARK    2  A    between atoms: C_6  and  C_17
REMARK    3  A    between atoms: C_22  and  N_24
REMARK                            x       y       z     vdW  Elec       q    Type
REMARK                         _______ _______ _______ _____ _____    ______ ____
ROOT
ATOM      1  C   UNL     1      32.366  -8.658 -22.591  0.00  0.00    +0.048 C 
ATOM      2  C   UNL     1      31.683  -9.576 -21.793  0.00  0.00    +0.015 C 
ATOM      3  C   UNL     1      33.426  -9.083 -23.393  0.00  0.00    +0.015 C 
ATOM      4  C   UNL     1      32.061 -10.919 -21.796  0.00  0.00    +0.001 C 
ATOM      5  C   UNL     1      33.803 -10.426 -23.396  0.00  0.00    +0.001 C 
ATOM      6  C   UNL     1      33.120 -11.344 -22.597  0.00  0.00    +0.000 C 
ENDROOT
BRANCH   1   7
ATOM      7  N   UNL     1      31.993  -7.328 -22.590  0.00  0.00    -0.311 N 
ATOM      8  N   UNL     1      33.249  -4.783 -24.624  0.00  0.00    +0.387 N 
ATOM      9  C   UNL     1      32.028  -4.952 -22.678  0.00  0.00    -0.003 C 
ATOM     10  C   UNL     1      32.918  -6.204 -22.755  0.00  0.00    +0.050 C 
ATOM     11  C   UNL     1      30.729  -5.420 -22.046  0.00  0.00    +0.021 C 
ATOM     12  C   UNL     1      31.912  -4.476 -24.119  0.00  0.00    -0.076 C 
ATOM     13  C   UNL     1      33.532  -6.145 -24.159  0.00  0.00    -0.057 C 
ATOM     14  C   UNL     1      30.607  -6.880 -22.471  0.00  0.00    +0.091 C 
ATOM     15  C   UNL     1      33.340  -4.659 -26.071  0.00  0.00    -0.101 C 
ATOM     16  H   UNL     1      33.941  -4.119 -24.276  0.00  0.00    -0.080 HD
ENDBRANCH   1   7
BRANCH   6  17
ATOM     17  C   UNL     1      33.512 -12.737 -22.600  0.00  0.00    +0.000 C 
ATOM     18  C   UNL     1      33.241 -13.539 -21.491  0.00  0.00    +0.001 C 
ATOM     19  C   UNL     1      34.161 -13.276 -23.710  0.00  0.00    +0.001 C 
ATOM     20  C   UNL     1      33.619 -14.882 -21.494  0.00  0.00    +0.017 C 
ATOM     21  C   UNL     1      34.538 -14.619 -23.713  0.00  0.00    +0.017 C 
ATOM     22  C   UNL     1      34.268 -15.422 -22.604  0.00  0.00    +0.077 C 
BRANCH  22  24
ATOM     23  O   UNL     1      34.764 -17.215 -24.925  0.00  0.00    -0.268 OA
ATOM     24  N   UNL     1      34.659 -16.812 -22.607  0.00  0.00    -0.155 N 
ATOM     25  N   UNL     1      34.851 -17.325 -21.345  0.00  0.00    -0.170 NA
ATOM     26  C   UNL     1      34.845 -17.589 -23.756  0.00  0.00    +0.272 C 
ATOM     27  C   UNL     1      35.198 -19.016 -23.545  0.00  0.00    +0.062 C 
ATOM     28  C   UNL     1      35.177 -18.566 -21.232  0.00  0.00    +0.118 C 
ATOM     29  C   UNL     1      35.365 -19.513 -22.325  0.00  0.00    +0.027 C 
ENDBRANCH  22  24
ENDBRANCH   6  17
TORSDOF 3
ENDMDL
MODEL 4
REMARK VINA RESULT:      -9.5      6.806     11.457
REMARK  Name = 24743471
REMARK  3 active torsions:
REMARK  status: ('A' for Active; 'I' for Inactive)
REMARK    1  A    between atoms: C_1  and  N_7
REMARK    2  A    between atoms: C_6  and  C_17
REMARK    3  A    between atoms: C_22  and  N_24
REMARK                            x       y       z     vdW  Elec       q    Type
REMARK                         _______ _______ _______ _____ _____    ______ ____
ROOT
ATOM      1  C   UNL     1      34.359 -15.791 -23.000  0.00  0.00    +0.048 C 
ATOM      2  C   UNL     1      33.829 -15.082 -24.078  0.00  0.00    +0.015 C 
ATOM      3  C   UNL     1      34.452 -15.187 -21.746  0.00  0.00    +0.015 C 
ATOM      4  C   UNL     1      33.393 -13.769 -23.902  0.00  0.00    +0.001 C 
ATOM      5  C   UNL     1      34.015 -13.874 -21.570  0.00  0.00    +0.001 C 
ATOM      6  C   UNL     1      33.486 -13.166 -22.649  0.00  0.00    +0.000 C 
ENDROOT
BRANCH   1   7
ATOM      7  N   UNL     1      34.791 -17.092 -23.172  0.00  0.00    -0.311 N 
ATOM      8  N   UNL     1      34.663 -19.684 -20.836  0.00  0.00    +0.387 N 
ATOM      9  C   UNL     1      35.748 -19.240 -22.820  0.00  0.00    -0.003 C 
ATOM     10  C   UNL     1      35.477 -17.884 -22.147  0.00  0.00    +0.050 C 
ATOM     11  C   UNL     1      35.590 -18.990 -24.309  0.00  0.00    +0.021 C 
ATOM     12  C   UNL     1      34.718 -20.182 -22.210  0.00  0.00    -0.076 C 
ATOM     13  C   UNL     1      34.569 -18.226 -20.960  0.00  0.00    -0.057 C 
ATOM     14  C   UNL     1      34.570 -17.859 -24.396  0.00  0.00    +0.091 C 
ATOM     15  C   UNL     1      33.555 -20.251 -20.082  0.00  0.00    -0.101 C 
ATOM     16  H   UNL     1      35.490 -19.960 -20.305  0.00  0.00    -0.080 HD
ENDBRANCH   1   7
BRANCH   6  17
ATOM     17  C   UNL     1      33.033 -11.803 -22.466  0.00  0.00    +0.000 C 
ATOM     18  C   UNL     1      32.046 -11.518 -21.522  0.00  0.00    +0.001 C 
ATOM     19  C   UNL     1      33.582 -10.776 -23.233  0.00  0.00    +0.001 C 
ATOM     20  C   UNL     1      31.609 -10.205 -21.346  0.00  0.00    +0.017 C 
ATOM     21  C   UNL     1      33.146  -9.463 -23.056  0.00  0.00    +0.017 C 
ATOM     22  C   UNL     1      32.158  -9.178 -22.113  0.00  0.00    +0.077 C 
BRANCH  22  24
ATOM     23  O   UNL     1      32.630  -7.349 -19.814  0.00  0.00    -0.268 OA
ATOM     24  N   UNL     1      31.706  -7.819 -21.929  0.00  0.00    -0.155 N 
ATOM     25  N   UNL     1      30.996  -7.333 -23.002  0.00  0.00    -0.170 NA
ATOM     26  C   UNL     1      31.956  -7.038 -20.795  0.00  0.00    +0.272 C 
ATOM     27  C   UNL     1      31.359  -5.679 -20.777  0.00  0.00    +0.062 C 
ATOM     28  C   UNL     1      30.523  -6.136 -22.933  0.00  0.00    +0.118 C 
ATOM     29  C   UNL     1      30.659  -5.219 -21.808  0.00  0.00    +0.027 C 
ENDBRANCH  22  24
ENDBRANCH   6  17
TORSDOF 3
ENDMDL
MODEL 5
REMARK VINA RESULT:      -9.4      6.829     11.459
REMARK  Name = 24743471
REMARK  3 active torsions:
REMARK  status: ('A' for Active; 'I' for Inactive)
REMARK    1  A    between atoms: C_1  and  N_7
REMARK    2  A    between atoms: C_6  and  C_17
REMARK    3  A    between atoms: C_22  and  N_24
REMARK                            x       y       z     vdW  Elec       q    Type
REMARK                         _______ _______ _______ _____ _____    ______ ____
ROOT
ATOM      1  C   UNL     1      34.346 -15.765 -22.987  0.00  0.00    +0.048 C 
ATOM      2  C   UNL     1      34.436 -15.166 -21.731  0.00  0.00    +0.015 C 
ATOM      3  C   UNL     1      33.816 -15.053 -24.063  0.00  0.00    +0.015 C 
ATOM      4  C   UNL     1      33.995 -13.855 -21.550  0.00  0.00    +0.001 C 
ATOM      5  C   UNL     1      33.376 -13.742 -23.882  0.00  0.00    +0.001 C 
ATOM      6  C   UNL     1      33.465 -13.144 -22.626  0.00  0.00    +0.000 C 
ENDROOT
BRANCH   1   7
ATOM      7  N   UNL     1      34.783 -17.063 -23.168  0.00  0.00    -0.311 N 
ATOM      8  N   UNL     1      34.688 -19.665 -20.841  0.00  0.00    +0.387 N 
ATOM      9  C   UNL     1      35.753 -19.208 -22.832  0.00  0.00    -0.003 C 
ATOM     10  C   UNL     1      35.481 -17.855 -22.151  0.00  0.00    +0.050 C 
ATOM     11  C   UNL     1      35.582 -18.953 -24.319  0.00  0.00    +0.021 C 
ATOM     12  C   UNL     1      34.734 -20.157 -22.216  0.00  0.00    -0.076 C 
ATOM     13  C   UNL     1      34.585 -18.206 -20.958  0.00  0.00    -0.057 C 
ATOM     14  C   UNL     1      34.556 -17.827 -24.393  0.00  0.00    +0.091 C 
ATOM     15  C   UNL     1      33.589 -20.240 -20.080  0.00  0.00    -0.101 C 
ATOM     16  H   UNL     1      35.520 -19.939 -20.318  0.00  0.00    -0.080 HD
ENDBRANCH   1   7
BRANCH   6  17
ATOM     17  C   UNL     1      33.008 -11.783 -22.439  0.00  0.00    +0.000 C 
ATOM     18  C   UNL     1      33.554 -10.753 -23.206  0.00  0.00    +0.001 C 
ATOM     19  C   UNL     1      32.023 -11.502 -21.492  0.00  0.00    +0.001 C 
ATOM     20  C   UNL     1      33.114  -9.442 -23.026  0.00  0.00    +0.017 C 
ATOM     21  C   UNL     1      31.583 -10.190 -21.313  0.00  0.00    +0.017 C 
ATOM     22  C   UNL     1      32.129  -9.161 -22.080  0.00  0.00    +0.077 C 
BRANCH  22  24
ATOM     23  O   UNL     1      32.593  -7.336 -19.776  0.00  0.00    -0.268 OA
ATOM     24  N   UNL     1      31.673  -7.803 -21.894  0.00  0.00    -0.155 N 
ATOM     25  N   UNL     1      30.963  -7.316 -22.966  0.00  0.00    -0.170 NA
ATOM     26  C   UNL     1      31.919  -7.024 -20.757  0.00  0.00    +0.272 C 
ATOM     27  C   UNL     1      31.320  -5.666 -20.737  0.00  0.00    +0.062 C 
ATOM     28  C   UNL     1      30.487  -6.121 -22.894  0.00  0.00    +0.118 C 
ATOM     29  C   UNL     1      30.619  -5.206 -21.767  0.00  0.00    +0.027 C 
ENDBRANCH  22  24
ENDBRANCH   6  17
TORSDOF 3
ENDMDL
MODEL 6
REMARK VINA RESULT:      -9.3      7.612     15.061
REMARK  Name = 24743471
REMARK  3 active torsions:
REMARK  status: ('A' for Active; 'I' for Inactive)
REMARK    1  A    between atoms: C_1  and  N_7
REMARK    2  A    between atoms: C_6  and  C_17
REMARK    3  A    between atoms: C_22  and  N_24
REMARK                            x       y       z     vdW  Elec       q    Type
REMARK                         _______ _______ _______ _____ _____    ______ ____
ROOT
ATOM      1  C   UNL     1      33.486  -8.789 -23.598  0.00  0.00    +0.048 C 
ATOM      2  C   UNL     1      34.558  -9.408 -24.241  0.00  0.00    +0.015 C 
ATOM      3  C   UNL     1      32.622  -9.541 -22.802  0.00  0.00    +0.015 C 
ATOM      4  C   UNL     1      34.766 -10.779 -24.088  0.00  0.00    +0.001 C 
ATOM      5  C   UNL     1      32.831 -10.912 -22.648  0.00  0.00    +0.001 C 
ATOM      6  C   UNL     1      33.903 -11.530 -23.292  0.00  0.00    +0.000 C 
ENDROOT
BRANCH   1   7
ATOM      7  N   UNL     1      33.279  -7.432 -23.748  0.00  0.00    -0.311 N 
ATOM      8  N   UNL     1      30.717  -5.520 -22.343  0.00  0.00    +0.387 N 
ATOM      9  C   UNL     1      32.266  -5.299 -24.035  0.00  0.00    -0.003 C 
ATOM     10  C   UNL     1      31.964  -6.802 -23.900  0.00  0.00    +0.050 C 
ATOM     11  C   UNL     1      33.741  -5.214 -24.384  0.00  0.00    +0.021 C 
ATOM     12  C   UNL     1      31.886  -4.711 -22.683  0.00  0.00    -0.076 C 
ATOM     13  C   UNL     1      31.111  -6.904 -22.630  0.00  0.00    -0.057 C 
ATOM     14  C   UNL     1      34.357  -6.445 -23.725  0.00  0.00    +0.091 C 
ATOM     15  C   UNL     1      30.294  -5.337 -20.963  0.00  0.00    -0.101 C 
ATOM     16  H   UNL     1      29.900  -5.245 -22.891  0.00  0.00    -0.080 HD
ENDBRANCH   1   7
BRANCH   6  17
ATOM     17  C   UNL     1      34.118 -12.952 -23.133  0.00  0.00    +0.000 C 
ATOM     18  C   UNL     1      34.093 -13.790 -24.249  0.00  0.00    +0.001 C 
ATOM     19  C   UNL     1      34.350 -13.485 -21.865  0.00  0.00    +0.001 C 
ATOM     20  C   UNL     1      34.301 -15.161 -24.096  0.00  0.00    +0.017 C 
ATOM     21  C   UNL     1      34.558 -14.856 -21.713  0.00  0.00    +0.017 C 
ATOM     22  C   UNL     1      34.532 -15.694 -22.828  0.00  0.00    +0.077 C 
BRANCH  22  24
ATOM     23  O   UNL     1      34.713 -17.798 -24.924  0.00  0.00    -0.268 OA
ATOM     24  N   UNL     1      34.747 -17.113 -22.670  0.00  0.00    -0.155 N 
ATOM     25  N   UNL     1      34.923 -17.494 -21.360  0.00  0.00    -0.170 NA
ATOM     26  C   UNL     1      34.792 -18.038 -23.720  0.00  0.00    +0.272 C 
ATOM     27  C   UNL     1      34.972 -19.463 -23.345  0.00  0.00    +0.062 C 
ATOM     28  C   UNL     1      35.096 -18.745 -21.104  0.00  0.00    +0.118 C 
ATOM     29  C   UNL     1      35.123 -19.830 -22.078  0.00  0.00    +0.027 C 
ENDBRANCH  22  24
ENDBRANCH   6  17
TORSDOF 3
ENDMDL
MODEL 7
REMARK VINA RESULT:      -9.1      8.925     16.187
REMARK  Name = 24743471
REMARK  3 active torsions:
REMARK  status: ('A' for Active; 'I' for Inactive)
REMARK    1  A    between atoms: C_1  and  N_7
REMARK    2  A    between atoms: C_6  and  C_17
REMARK    3  A    between atoms: C_22  and  N_24
REMARK                            x       y       z     vdW  Elec       q    Type
REMARK                         _______ _______ _______ _____ _____    ______ ____
ROOT
ATOM      1  C   UNL     1      31.991  -7.376 -22.699  0.00  0.00    +0.048 C 
ATOM      2  C   UNL     1      31.157  -8.360 -22.169  0.00  0.00    +0.015 C 
ATOM      3  C   UNL     1      33.218  -7.730 -23.261  0.00  0.00    +0.015 C 
ATOM      4  C   UNL     1      31.549  -9.698 -22.200  0.00  0.00    +0.001 C 
ATOM      5  C   UNL     1      33.610  -9.069 -23.293  0.00  0.00    +0.001 C 
ATOM      6  C   UNL     1      32.775 -10.052 -22.762  0.00  0.00    +0.000 C 
ENDROOT
BRANCH   1   7
ATOM      7  N   UNL     1      31.604  -6.051 -22.669  0.00  0.00    -0.311 N 
ATOM      8  N   UNL     1      32.455  -3.552 -24.955  0.00  0.00    +0.387 N 
ATOM      9  C   UNL     1      31.588  -3.677 -22.824  0.00  0.00    -0.003 C 
ATOM     10  C   UNL     1      32.471  -4.922 -23.019  0.00  0.00    +0.050 C 
ATOM     11  C   UNL     1      30.423  -4.141 -21.966  0.00  0.00    +0.021 C 
ATOM     12  C   UNL     1      31.219  -3.244 -24.236  0.00  0.00    -0.076 C 
ATOM     13  C   UNL     1      32.833  -4.897 -24.509  0.00  0.00    -0.057 C 
ATOM     14  C   UNL     1      30.252  -5.613 -22.325  0.00  0.00    +0.091 C 
ATOM     15  C   UNL     1      32.295  -3.468 -26.398  0.00  0.00    -0.101 C 
ATOM     16  H   UNL     1      33.187  -2.871 -24.748  0.00  0.00    -0.080 HD
ENDBRANCH   1   7
BRANCH   6  17
ATOM     17  C   UNL     1      33.182 -11.440 -22.795  0.00  0.00    +0.000 C 
ATOM     18  C   UNL     1      32.673 -12.339 -21.857  0.00  0.00    +0.001 C 
ATOM     19  C   UNL     1      34.085 -11.880 -23.764  0.00  0.00    +0.001 C 
ATOM     20  C   UNL     1      33.065 -13.677 -21.889  0.00  0.00    +0.017 C 
ATOM     21  C   UNL     1      34.477 -13.218 -23.795  0.00  0.00    +0.017 C 
ATOM     22  C   UNL     1      33.967 -14.116 -22.857  0.00  0.00    +0.077 C 
BRANCH  22  24
ATOM     23  O   UNL     1      34.694 -15.901 -20.590  0.00  0.00    -0.268 OA
ATOM     24  N   UNL     1      34.373 -15.502 -22.890  0.00  0.00    -0.155 N 
ATOM     25  N   UNL     1      34.376 -16.038 -24.156  0.00  0.00    -0.170 NA
ATOM     26  C   UNL     1      34.724 -16.260 -21.767  0.00  0.00    +0.272 C 
ATOM     27  C   UNL     1      35.164 -17.656 -22.016  0.00  0.00    +0.062 C 
ATOM     28  C   UNL     1      34.748 -17.263 -24.302  0.00  0.00    +0.118 C 
ATOM     29  C   UNL     1      35.183 -18.165 -23.242  0.00  0.00    +0.027 C 
ENDBRANCH  22  24
ENDBRANCH   6  17
TORSDOF 3
ENDMDL
MODEL 8
REMARK VINA RESULT:      -9.1      6.783     14.081
REMARK  Name = 24743471
REMARK  3 active torsions:
REMARK  status: ('A' for Active; 'I' for Inactive)
REMARK    1  A    between atoms: C_1  and  N_7
REMARK    2  A    between atoms: C_6  and  C_17
REMARK    3  A    between atoms: C_22  and  N_24
REMARK                            x       y       z     vdW  Elec       q    Type
REMARK                         _______ _______ _______ _____ _____    ______ ____
ROOT
ATOM      1  C   UNL     1      32.600 -10.103 -22.537  0.00  0.00    +0.048 C 
ATOM      2  C   UNL     1      32.083 -10.808 -21.451  0.00  0.00    +0.015 C 
ATOM      3  C   UNL     1      33.524 -10.712 -23.388  0.00  0.00    +0.015 C 
ATOM      4  C   UNL     1      32.489 -12.122 -21.214  0.00  0.00    +0.001 C 
ATOM      5  C   UNL     1      33.930 -12.026 -23.151  0.00  0.00    +0.001 C 
ATOM      6  C   UNL     1      33.412 -12.730 -22.064  0.00  0.00    +0.000 C 
ENDROOT
BRANCH   1   7
ATOM      7  N   UNL     1      32.198  -8.803 -22.774  0.00  0.00    -0.311 N 
ATOM      8  N   UNL     1      34.194  -6.135 -23.816  0.00  0.00    +0.387 N 
ATOM      9  C   UNL     1      32.110  -6.429 -22.878  0.00  0.00    -0.003 C 
ATOM     10  C   UNL     1      32.978  -7.613 -22.418  0.00  0.00    +0.050 C 
ATOM     11  C   UNL     1      30.716  -7.000 -23.068  0.00  0.00    +0.021 C 
ATOM     12  C   UNL     1      32.785  -5.932 -24.150  0.00  0.00    -0.076 C 
ATOM     13  C   UNL     1      34.264  -7.483 -23.243  0.00  0.00    -0.057 C 
ATOM     14  C   UNL     1      30.954  -8.456 -23.457  0.00  0.00    +0.091 C 
ATOM     15  C   UNL     1      35.068  -5.974 -24.969  0.00  0.00    -0.101 C 
ATOM     16  H   UNL     1      34.526  -5.431 -23.155  0.00  0.00    -0.080 HD
ENDBRANCH   1   7
BRANCH   6  17
ATOM     17  C   UNL     1      33.834 -14.092 -21.818  0.00  0.00    +0.000 C 
ATOM     18  C   UNL     1      34.259 -14.891 -22.880  0.00  0.00    +0.001 C 
ATOM     19  C   UNL     1      33.814 -14.606 -20.522  0.00  0.00    +0.001 C 
ATOM     20  C   UNL     1      34.666 -16.205 -22.644  0.00  0.00    +0.017 C 
ATOM     21  C   UNL     1      34.221 -15.920 -20.286  0.00  0.00    +0.017 C 
ATOM     22  C   UNL     1      34.646 -16.719 -21.348  0.00  0.00    +0.077 C 
BRANCH  22  24
ATOM     23  O   UNL     1      37.366 -17.901 -21.587  0.00  0.00    -0.268 OA
ATOM     24  N   UNL     1      35.067 -18.079 -21.104  0.00  0.00    -0.155 N 
ATOM     25  N   UNL     1      34.048 -18.894 -20.670  0.00  0.00    -0.170 NA
ATOM     26  C   UNL     1      36.373 -18.554 -21.269  0.00  0.00    +0.272 C 
ATOM     27  C   UNL     1      36.593 -20.000 -21.016  0.00  0.00    +0.062 C 
ATOM     28  C   UNL     1      34.310 -20.135 -20.447  0.00  0.00    +0.118 C 
ATOM     29  C   UNL     1      35.602 -20.789 -20.613  0.00  0.00    +0.027 C 
ENDBRANCH  22  24
ENDBRANCH   6  17
TORSDOF 3
ENDMDL
MODEL 9
REMARK VINA RESULT:      -8.6      2.494     10.317
REMARK  Name = 24743471
REMARK  3 active torsions:
REMARK  status: ('A' for Active; 'I' for Inactive)
REMARK    1  A    between atoms: C_1  and  N_7
REMARK    2  A    between atoms: C_6  and  C_17
REMARK    3  A    between atoms: C_22  and  N_24
REMARK                            x       y       z     vdW  Elec       q    Type
REMARK                         _______ _______ _______ _____ _____    ______ ____
ROOT
ATOM      1  C   UNL     1      35.728 -19.682 -20.767  0.00  0.00    +0.048 C 
ATOM      2  C   UNL     1      34.717 -20.503 -20.268  0.00  0.00    +0.015 C 
ATOM      3  C   UNL     1      36.977 -19.656 -20.144  0.00  0.00    +0.015 C 
ATOM      4  C   UNL     1      34.954 -21.298 -19.147  0.00  0.00    +0.001 C 
ATOM      5  C   UNL     1      37.213 -20.452 -19.023  0.00  0.00    +0.001 C 
ATOM      6  C   UNL     1      36.201 -21.272 -18.525  0.00  0.00    +0.000 C 
ENDROOT
BRANCH   1   7
ATOM      7  N   UNL     1      35.496 -18.894 -21.878  0.00  0.00    -0.311 N 
ATOM      8  N   UNL     1      34.401 -15.579 -21.922  0.00  0.00    +0.387 N 
ATOM      9  C   UNL     1      34.560 -17.332 -23.408  0.00  0.00    -0.003 C 
ATOM     10  C   UNL     1      34.384 -17.948 -22.009  0.00  0.00    +0.050 C 
ATOM     11  C   UNL     1      35.497 -18.272 -24.146  0.00  0.00    +0.021 C 
ATOM     12  C   UNL     1      35.117 -15.939 -23.145  0.00  0.00    -0.076 C 
ATOM     13  C   UNL     1      34.508 -16.756 -21.053  0.00  0.00    -0.057 C 
ATOM     14  C   UNL     1      36.368 -18.876 -23.050  0.00  0.00    +0.091 C 
ATOM     15  C   UNL     1      34.935 -14.377 -21.299  0.00  0.00    -0.101 C 
ATOM     16  H   UNL     1      33.426 -15.345 -22.115  0.00  0.00    -0.080 HD
ENDBRANCH   1   7
BRANCH   6  17
ATOM     17  C   UNL     1      36.447 -22.097 -17.362  0.00  0.00    +0.000 C 
ATOM     18  C   UNL     1      37.731 -22.172 -16.819  0.00  0.00    +0.001 C 
ATOM     19  C   UNL     1      35.403 -22.818 -16.784  0.00  0.00    +0.001 C 
ATOM     20  C   UNL     1      37.969 -22.967 -15.698  0.00  0.00    +0.017 C 
ATOM     21  C   UNL     1      35.641 -23.613 -15.662  0.00  0.00    +0.017 C 
ATOM     22  C   UNL     1      36.924 -23.687 -15.120  0.00  0.00    +0.077 C 
BRANCH  22  24
ATOM     23  O   UNL     1      37.658 -22.849 -12.361  0.00  0.00    -0.268 OA
ATOM     24  N   UNL     1      37.170 -24.510 -13.959  0.00  0.00    -0.155 N 
ATOM     25  N   UNL     1      36.996 -25.854 -14.198  0.00  0.00    -0.170 NA
ATOM     26  C   UNL     1      37.539 -24.027 -12.698  0.00  0.00    +0.272 C 
ATOM     27  C   UNL     1      37.797 -25.040 -11.645  0.00  0.00    +0.062 C 
ATOM     28  C   UNL     1      37.216 -26.680 -13.234  0.00  0.00    +0.118 C 
ATOM     29  C   UNL     1      37.645 -26.338 -11.884  0.00  0.00    +0.027 C 
ENDBRANCH  22  24
ENDBRANCH   6  17
TORSDOF 3
ENDMDL
