MODEL 1
REMARK VINA RESULT:     -12.1      0.000      0.000
REMARK  Name = 198752
REMARK  6 active torsions:
REMARK  status: ('A' for Active; 'I' for Inactive)
REMARK    1  A    between atoms: C_1  and  C_3
REMARK    2  A    between atoms: C_1  and  C_16
REMARK    3  A    between atoms: N_2  and  C_9
REMARK    4  A    between atoms: C_9  and  C_10
REMARK    5  A    between atoms: C_16  and  C_18
REMARK    6  A    between atoms: C_18  and  C_20
REMARK                            x       y       z     vdW  Elec       q    Type
REMARK                         _______ _______ _______ _____ _____    ______ ____
ROOT
ATOM      1  C   UNL     1      36.437 -21.641 -18.603  0.00  0.00    +0.008 C 
ENDROOT
BRANCH   1   3
ATOM      2  N   UNL     1      35.548 -18.528 -21.462  0.00  0.00    +0.390 N 
ATOM      3  C   UNL     1      36.280 -20.925 -19.941  0.00  0.00    -0.004 C 
ATOM      4  C   UNL     1      37.183 -19.689 -20.014  0.00  0.00    -0.023 C 
ATOM      5  C   UNL     1      34.823 -20.516 -20.179  0.00  0.00    -0.023 C 
ATOM      6  C   UNL     1      36.958 -18.911 -21.312  0.00  0.00    -0.077 C 
ATOM      7  C   UNL     1      34.676 -19.710 -21.471  0.00  0.00    -0.077 C 
ATOM      8  H   UNL     1      35.290 -17.954 -20.659  0.00  0.00    -0.079 HD
BRANCH   2   9
ATOM      9  C   UNL     1      35.356 -17.741 -22.680  0.00  0.00    -0.050 C 
BRANCH   9  10
ATOM     10  C   UNL     1      34.920 -16.333 -22.375  0.00  0.00    -0.043 C 
ATOM     11  C   UNL     1      34.882 -15.393 -23.396  0.00  0.00    -0.006 C 
ATOM     12  C   UNL     1      34.560 -15.993 -21.078  0.00  0.00    -0.006 C 
ATOM     13  C   UNL     1      34.478 -14.088 -23.113  0.00  0.00    -0.000 C 
ATOM     14  C   UNL     1      34.155 -14.690 -20.796  0.00  0.00    -0.000 C 
ATOM     15  C   UNL     1      34.115 -13.736 -21.814  0.00  0.00    -0.000 C 
ENDBRANCH   9  10
ENDBRANCH   2   9
ENDBRANCH   1   3
BRANCH   1  16
ATOM     16  C   UNL     1      35.116 -22.250 -18.133  0.00  0.00    +0.069 C 
BRANCH  16  18
ATOM     17  O   UNL     1      36.278 -22.941 -16.138  0.00  0.00    -0.291 OA
ATOM     18  C   UNL     1      35.170 -22.798 -16.695  0.00  0.00    +0.173 C 
BRANCH  18  20
ATOM     19  N   UNL     1      30.314 -22.844 -16.613  0.00  0.00    -0.333 N 
ATOM     20  C   UNL     1      33.939 -23.142 -16.003  0.00  0.00    +0.036 C 
ATOM     21  C   UNL     1      31.543 -23.813 -14.689  0.00  0.00    -0.009 C 
ATOM     22  C   UNL     1      30.319 -24.263 -13.917  0.00  0.00    +0.028 C 
ATOM     23  C   UNL     1      31.487 -23.194 -15.957  0.00  0.00    +0.041 C 
ATOM     24  C   UNL     1      29.260 -24.936 -14.790  0.00  0.00    +0.006 C 
ATOM     25  C   UNL     1      28.383 -23.960 -15.574  0.00  0.00    +0.022 C 
ATOM     26  C   UNL     1      32.704 -22.885 -16.600  0.00  0.00    +0.017 C 
ATOM     27  C   UNL     1      29.051 -22.644 -15.938  0.00  0.00    +0.087 C 
ATOM     28  C   UNL     1      33.986 -23.716 -14.742  0.00  0.00    +0.003 C 
ATOM     29  C   UNL     1      32.800 -24.046 -14.090  0.00  0.00    -0.003 C 
ATOM     30  H   UNL     1      30.344 -22.725 -17.590  0.00  0.00    +0.147 HD
ENDBRANCH  18  20
ENDBRANCH  16  18
ENDBRANCH   1  16
TORSDOF 6
ENDMDL
MODEL 2
REMARK VINA RESULT:     -12.0      5.172     12.456
REMARK  Name = 198752
REMARK  6 active torsions:
REMARK  status: ('A' for Active; 'I' for Inactive)
REMARK    1  A    between atoms: C_1  and  C_3
REMARK    2  A    between atoms: C_1  and  C_16
REMARK    3  A    between atoms: N_2  and  C_9
REMARK    4  A    between atoms: C_9  and  C_10
REMARK    5  A    between atoms: C_16  and  C_18
REMARK    6  A    between atoms: C_18  and  C_20
REMARK                            x       y       z     vdW  Elec       q    Type
REMARK                         _______ _______ _______ _____ _____    ______ ____
ROOT
ATOM      1  C   UNL     1      33.737 -14.316 -23.432  0.00  0.00    +0.008 C 
ENDROOT
BRANCH   1   3
ATOM      2  N   UNL     1      35.154 -18.097 -21.899  0.00  0.00    +0.390 N 
ATOM      3  C   UNL     1      34.697 -15.393 -22.938  0.00  0.00    -0.004 C 
ATOM      4  C   UNL     1      34.633 -16.639 -23.828  0.00  0.00    -0.023 C 
ATOM      5  C   UNL     1      34.393 -15.779 -21.486  0.00  0.00    -0.023 C 
ATOM      6  C   UNL     1      35.518 -17.761 -23.282  0.00  0.00    -0.077 C 
ATOM      7  C   UNL     1      35.286 -16.930 -21.017  0.00  0.00    -0.077 C 
ATOM      8  H   UNL     1      34.176 -18.387 -21.893  0.00  0.00    -0.079 HD
BRANCH   2   9
ATOM      9  C   UNL     1      35.973 -19.205 -21.408  0.00  0.00    -0.050 C 
BRANCH   9  10
ATOM     10  C   UNL     1      35.176 -20.156 -20.554  0.00  0.00    -0.043 C 
ATOM     11  C   UNL     1      33.790 -20.085 -20.565  0.00  0.00    -0.006 C 
ATOM     12  C   UNL     1      35.838 -21.090 -19.770  0.00  0.00    -0.006 C 
ATOM     13  C   UNL     1      33.052 -20.965 -19.774  0.00  0.00    -0.000 C 
ATOM     14  C   UNL     1      35.100 -21.970 -18.980  0.00  0.00    -0.000 C 
ATOM     15  C   UNL     1      33.706 -21.908 -18.981  0.00  0.00    -0.000 C 
ENDBRANCH   9  10
ENDBRANCH   2   9
ENDBRANCH   1   3
BRANCH   1  16
ATOM     16  C   UNL     1      34.175 -12.923 -22.978  0.00  0.00    +0.069 C 
BRANCH  16  18
ATOM     17  O   UNL     1      34.229 -12.229 -25.286  0.00  0.00    -0.291 OA
ATOM     18  C   UNL     1      34.116 -11.866 -24.096  0.00  0.00    +0.173 C 
BRANCH  18  20
ATOM     19  N   UNL     1      31.191  -8.306 -22.561  0.00  0.00    -0.333 N 
ATOM     20  C   UNL     1      33.930 -10.464 -23.760  0.00  0.00    +0.036 C 
ATOM     21  C   UNL     1      33.551  -7.758 -23.090  0.00  0.00    -0.009 C 
ATOM     22  C   UNL     1      33.473  -6.292 -22.708  0.00  0.00    +0.028 C 
ATOM     23  C   UNL     1      32.471  -8.659 -22.963  0.00  0.00    +0.041 C 
ATOM     24  C   UNL     1      32.721  -6.041 -21.402  0.00  0.00    +0.006 C 
ATOM     25  C   UNL     1      31.199  -6.066 -21.541  0.00  0.00    +0.022 C 
ATOM     26  C   UNL     1      32.696 -10.014 -23.290  0.00  0.00    +0.017 C 
ATOM     27  C   UNL     1      30.669  -6.960 -22.651  0.00  0.00    +0.087 C 
ATOM     28  C   UNL     1      34.974  -9.566 -23.917  0.00  0.00    +0.003 C 
ATOM     29  C   UNL     1      34.787  -8.226 -23.587  0.00  0.00    -0.003 C 
ATOM     30  H   UNL     1      30.606  -9.008 -22.195  0.00  0.00    +0.147 HD
ENDBRANCH  18  20
ENDBRANCH  16  18
ENDBRANCH   1  16
TORSDOF 6
ENDMDL
MODEL 3
REMARK VINA RESULT:     -11.9      2.869     10.320
REMARK  Name = 198752
REMARK  6 active torsions:
REMARK  status: ('A' for Active; 'I' for Inactive)
REMARK    1  A    between atoms: C_1  and  C_3
REMARK    2  A    between atoms: C_1  and  C_16
REMARK    3  A    between atoms: N_2  and  C_9
REMARK    4  A    between atoms: C_9  and  C_10
REMARK    5  A    between atoms: C_16  and  C_18
REMARK    6  A    between atoms: C_18  and  C_20
REMARK                            x       y       z     vdW  Elec       q    Type
REMARK                         _______ _______ _______ _____ _____    ______ ____
ROOT
ATOM      1  C   UNL     1      36.131 -21.300 -19.828  0.00  0.00    +0.008 C 
ENDROOT
BRANCH   1   3
ATOM      2  N   UNL     1      35.134 -23.519 -16.259  0.00  0.00    +0.390 N 
ATOM      3  C   UNL     1      35.590 -21.608 -18.434  0.00  0.00    -0.004 C 
ATOM      4  C   UNL     1      36.712 -22.073 -17.499  0.00  0.00    -0.023 C 
ATOM      5  C   UNL     1      34.490 -22.672 -18.493  0.00  0.00    -0.023 C 
ATOM      6  C   UNL     1      36.162 -22.478 -16.130  0.00  0.00    -0.077 C 
ATOM      7  C   UNL     1      34.014 -23.058 -17.091  0.00  0.00    -0.077 C 
ATOM      8  H   UNL     1      35.557 -24.325 -16.720  0.00  0.00    -0.079 HD
BRANCH   2   9
ATOM      9  C   UNL     1      34.655 -23.933 -14.940  0.00  0.00    -0.050 C 
BRANCH   9  10
ATOM     10  C   UNL     1      35.629 -24.853 -14.254  0.00  0.00    -0.043 C 
ATOM     11  C   UNL     1      36.011 -24.590 -12.945  0.00  0.00    -0.006 C 
ATOM     12  C   UNL     1      36.131 -25.953 -14.937  0.00  0.00    -0.006 C 
ATOM     13  C   UNL     1      36.914 -25.442 -12.309  0.00  0.00    -0.000 C 
ATOM     14  C   UNL     1      37.032 -26.805 -14.301  0.00  0.00    -0.000 C 
ATOM     15  C   UNL     1      37.425 -26.549 -12.986  0.00  0.00    -0.000 C 
ENDBRANCH   9  10
ENDBRANCH   2   9
ENDBRANCH   1   3
BRANCH   1  16
ATOM     16  C   UNL     1      35.313 -20.209 -20.518  0.00  0.00    +0.069 C 
BRANCH  16  18
ATOM     17  O   UNL     1      37.330 -18.889 -20.520  0.00  0.00    -0.291 OA
ATOM     18  C   UNL     1      36.143 -18.968 -20.899  0.00  0.00    +0.173 C 
BRANCH  18  20
ATOM     19  N   UNL     1      33.750 -14.746 -21.070  0.00  0.00    -0.333 N 
ATOM     20  C   UNL     1      35.542 -17.908 -21.692  0.00  0.00    +0.036 C 
ATOM     21  C   UNL     1      34.386 -15.837 -23.205  0.00  0.00    -0.009 C 
ATOM     22  C   UNL     1      33.840 -14.755 -24.116  0.00  0.00    +0.028 C 
ATOM     23  C   UNL     1      34.354 -15.764 -21.795  0.00  0.00    +0.041 C 
ATOM     24  C   UNL     1      34.175 -13.339 -23.649  0.00  0.00    +0.006 C 
ATOM     25  C   UNL     1      33.275 -12.820 -22.528  0.00  0.00    +0.022 C 
ATOM     26  C   UNL     1      34.958 -16.808 -21.062  0.00  0.00    +0.017 C 
ATOM     27  C   UNL     1      32.713 -13.892 -21.606  0.00  0.00    +0.087 C 
ATOM     28  C   UNL     1      35.536 -17.991 -23.075  0.00  0.00    +0.003 C 
ATOM     29  C   UNL     1      34.962 -16.966 -23.825  0.00  0.00    -0.003 C 
ATOM     30  H   UNL     1      34.041 -14.597 -20.141  0.00  0.00    +0.147 HD
ENDBRANCH  18  20
ENDBRANCH  16  18
ENDBRANCH   1  16
TORSDOF 6
ENDMDL
MODEL 4
REMARK VINA RESULT:     -11.8      2.922      4.719
REMARK  Name = 198752
REMARK  6 active torsions:
REMARK  status: ('A' for Active; 'I' for Inactive)
REMARK    1  A    between atoms: C_1  and  C_3
REMARK    2  A    between atoms: C_1  and  C_16
REMARK    3  A    between atoms: N_2  and  C_9
REMARK    4  A    between atoms: C_9  and  C_10
REMARK    5  A    between atoms: C_16  and  C_18
REMARK    6  A    between atoms: C_18  and  C_20
REMARK                            x       y       z     vdW  Elec       q    Type
REMARK                         _______ _______ _______ _____ _____    ______ ____
ROOT
ATOM      1  C   UNL     1      32.890 -22.341 -18.143  0.00  0.00    +0.008 C 
ENDROOT
BRANCH   1   3
ATOM      2  N   UNL     1      35.244 -19.645 -20.560  0.00  0.00    +0.390 N 
ATOM      3  C   UNL     1      33.677 -21.797 -19.332  0.00  0.00    -0.004 C 
ATOM      4  C   UNL     1      35.133 -21.515 -18.945  0.00  0.00    -0.023 C 
ATOM      5  C   UNL     1      33.032 -20.520 -19.882  0.00  0.00    -0.023 C 
ATOM      6  C   UNL     1      35.902 -20.876 -20.102  0.00  0.00    -0.077 C 
ATOM      7  C   UNL     1      33.871 -19.913 -21.008  0.00  0.00    -0.077 C 
ATOM      8  H   UNL     1      35.197 -19.001 -19.771  0.00  0.00    -0.079 HD
BRANCH   2   9
ATOM      9  C   UNL     1      36.018 -19.017 -21.632  0.00  0.00    -0.050 C 
BRANCH   9  10
ATOM     10  C   UNL     1      35.417 -17.707 -22.063  0.00  0.00    -0.043 C 
ATOM     11  C   UNL     1      35.092 -16.756 -21.105  0.00  0.00    -0.006 C 
ATOM     12  C   UNL     1      35.197 -17.465 -23.412  0.00  0.00    -0.006 C 
ATOM     13  C   UNL     1      34.534 -15.542 -21.505  0.00  0.00    -0.000 C 
ATOM     14  C   UNL     1      34.640 -16.251 -23.812  0.00  0.00    -0.000 C 
ATOM     15  C   UNL     1      34.308 -15.289 -22.858  0.00  0.00    -0.000 C 
ENDBRANCH   9  10
ENDBRANCH   2   9
ENDBRANCH   1   3
BRANCH   1  16
ATOM     16  C   UNL     1      33.722 -23.328 -17.324  0.00  0.00    +0.069 C 
BRANCH  16  18
ATOM     17  O   UNL     1      32.171 -23.007 -15.506  0.00  0.00    -0.291 OA
ATOM     18  C   UNL     1      33.309 -23.394 -15.841  0.00  0.00    +0.173 C 
BRANCH  18  20
ATOM     19  N   UNL     1      37.618 -25.391 -14.822  0.00  0.00    -0.333 N 
ATOM     20  C   UNL     1      34.243 -23.904 -14.851  0.00  0.00    +0.036 C 
ATOM     21  C   UNL     1      36.073 -24.881 -12.949  0.00  0.00    -0.009 C 
ATOM     22  C   UNL     1      37.000 -25.334 -11.839  0.00  0.00    +0.028 C 
ATOM     23  C   UNL     1      36.425 -24.891 -14.317  0.00  0.00    +0.041 C 
ATOM     24  C   UNL     1      38.443 -24.866 -12.019  0.00  0.00    +0.006 C 
ATOM     25  C   UNL     1      39.253 -25.702 -13.009  0.00  0.00    +0.022 C 
ATOM     26  C   UNL     1      35.495 -24.378 -15.246  0.00  0.00    +0.017 C 
ATOM     27  C   UNL     1      38.441 -26.351 -14.120  0.00  0.00    +0.087 C 
ATOM     28  C   UNL     1      33.891 -23.932 -13.511  0.00  0.00    +0.003 C 
ATOM     29  C   UNL     1      34.795 -24.417 -12.569  0.00  0.00    -0.003 C 
ATOM     30  H   UNL     1      37.919 -25.077 -15.705  0.00  0.00    +0.147 HD
ENDBRANCH  18  20
ENDBRANCH  16  18
ENDBRANCH   1  16
TORSDOF 6
ENDMDL
MODEL 5
REMARK VINA RESULT:     -11.8      4.740     12.367
REMARK  Name = 198752
REMARK  6 active torsions:
REMARK  status: ('A' for Active; 'I' for Inactive)
REMARK    1  A    between atoms: C_1  and  C_3
REMARK    2  A    between atoms: C_1  and  C_16
REMARK    3  A    between atoms: N_2  and  C_9
REMARK    4  A    between atoms: C_9  and  C_10
REMARK    5  A    between atoms: C_16  and  C_18
REMARK    6  A    between atoms: C_18  and  C_20
REMARK                            x       y       z     vdW  Elec       q    Type
REMARK                         _______ _______ _______ _____ _____    ______ ____
ROOT
ATOM      1  C   UNL     1      33.859 -14.762 -23.771  0.00  0.00    +0.008 C 
ENDROOT
BRANCH   1   3
ATOM      2  N   UNL     1      35.220 -18.357 -21.802  0.00  0.00    +0.390 N 
ATOM      3  C   UNL     1      34.800 -15.777 -23.129  0.00  0.00    -0.004 C 
ATOM      4  C   UNL     1      34.776 -17.107 -23.890  0.00  0.00    -0.023 C 
ATOM      5  C   UNL     1      34.437 -16.015 -21.660  0.00  0.00    -0.023 C 
ATOM      6  C   UNL     1      35.641 -18.161 -23.195  0.00  0.00    -0.077 C 
ATOM      7  C   UNL     1      35.312 -17.105 -21.039  0.00  0.00    -0.077 C 
ATOM      8  H   UNL     1      34.243 -18.651 -21.806  0.00  0.00    -0.079 HD
BRANCH   2   9
ATOM      9  C   UNL     1      36.021 -19.404 -21.166  0.00  0.00    -0.050 C 
BRANCH   9  10
ATOM     10  C   UNL     1      35.173 -20.336 -20.342  0.00  0.00    -0.043 C 
ATOM     11  C   UNL     1      33.790 -20.235 -20.404  0.00  0.00    -0.006 C 
ATOM     12  C   UNL     1      35.785 -21.283 -19.533  0.00  0.00    -0.006 C 
ATOM     13  C   UNL     1      33.004 -21.099 -19.640  0.00  0.00    -0.000 C 
ATOM     14  C   UNL     1      35.000 -22.146 -18.770  0.00  0.00    -0.000 C 
ATOM     15  C   UNL     1      33.609 -22.054 -18.823  0.00  0.00    -0.000 C 
ENDBRANCH   9  10
ENDBRANCH   2   9
ENDBRANCH   1   3
BRANCH   1  16
ATOM     16  C   UNL     1      34.221 -13.331 -23.372  0.00  0.00    +0.069 C 
BRANCH  16  18
ATOM     17  O   UNL     1      32.171 -13.226 -22.109  0.00  0.00    -0.291 OA
ATOM     18  C   UNL     1      33.069 -12.576 -22.682  0.00  0.00    +0.173 C 
BRANCH  18  20
ATOM     19  N   UNL     1      35.168  -8.387 -23.961  0.00  0.00    -0.333 N 
ATOM     20  C   UNL     1      33.038 -11.123 -22.705  0.00  0.00    +0.036 C 
ATOM     21  C   UNL     1      32.991  -8.310 -22.775  0.00  0.00    -0.009 C 
ATOM     22  C   UNL     1      32.838  -6.802 -22.801  0.00  0.00    +0.028 C 
ATOM     23  C   UNL     1      34.074  -8.999 -23.365  0.00  0.00    +0.041 C 
ATOM     24  C   UNL     1      33.197  -6.175 -24.148  0.00  0.00    +0.006 C 
ATOM     25  C   UNL     1      34.698  -6.008 -24.381  0.00  0.00    +0.022 C 
ATOM     26  C   UNL     1      34.062 -10.410 -23.331  0.00  0.00    +0.017 C 
ATOM     27  C   UNL     1      35.577  -7.029 -23.676  0.00  0.00    +0.087 C 
ATOM     28  C   UNL     1      31.998 -10.439 -22.097  0.00  0.00    +0.003 C 
ATOM     29  C   UNL     1      31.975  -9.047 -22.129  0.00  0.00    -0.003 C 
ATOM     30  H   UNL     1      35.696  -8.904 -24.612  0.00  0.00    +0.147 HD
ENDBRANCH  18  20
ENDBRANCH  16  18
ENDBRANCH   1  16
TORSDOF 6
ENDMDL
MODEL 6
REMARK VINA RESULT:     -11.7      1.520      2.139
REMARK  Name = 198752
REMARK  6 active torsions:
REMARK  status: ('A' for Active; 'I' for Inactive)
REMARK    1  A    between atoms: C_1  and  C_3
REMARK    2  A    between atoms: C_1  and  C_16
REMARK    3  A    between atoms: N_2  and  C_9
REMARK    4  A    between atoms: C_9  and  C_10
REMARK    5  A    between atoms: C_16  and  C_18
REMARK    6  A    between atoms: C_18  and  C_20
REMARK                            x       y       z     vdW  Elec       q    Type
REMARK                         _______ _______ _______ _____ _____    ______ ____
ROOT
ATOM      1  C   UNL     1      35.980 -21.039 -19.335  0.00  0.00    +0.008 C 
ENDROOT
BRANCH   1   3
ATOM      2  N   UNL     1      35.523 -17.928 -22.296  0.00  0.00    +0.390 N 
ATOM      3  C   UNL     1      35.970 -20.341 -20.691  0.00  0.00    -0.004 C 
ATOM      4  C   UNL     1      36.963 -19.174 -20.717  0.00  0.00    -0.023 C 
ATOM      5  C   UNL     1      34.567 -19.834 -21.040  0.00  0.00    -0.023 C 
ATOM      6  C   UNL     1      36.887 -18.407 -22.039  0.00  0.00    -0.077 C 
ATOM      7  C   UNL     1      34.570 -19.045 -22.351  0.00  0.00    -0.077 C 
ATOM      8  H   UNL     1      35.251 -17.322 -21.523  0.00  0.00    -0.079 HD
BRANCH   2   9
ATOM      9  C   UNL     1      35.476 -17.154 -23.536  0.00  0.00    -0.050 C 
BRANCH   9  10
ATOM     10  C   UNL     1      34.657 -15.899 -23.383  0.00  0.00    -0.043 C 
ATOM     11  C   UNL     1      34.515 -15.326 -22.127  0.00  0.00    -0.006 C 
ATOM     12  C   UNL     1      34.058 -15.332 -24.499  0.00  0.00    -0.006 C 
ATOM     13  C   UNL     1      33.756 -14.164 -21.985  0.00  0.00    -0.000 C 
ATOM     14  C   UNL     1      33.301 -14.171 -24.358  0.00  0.00    -0.000 C 
ATOM     15  C   UNL     1      33.149 -13.587 -23.100  0.00  0.00    -0.000 C 
ENDBRANCH   9  10
ENDBRANCH   2   9
ENDBRANCH   1   3
BRANCH   1  16
ATOM     16  C   UNL     1      35.314 -22.413 -19.406  0.00  0.00    +0.069 C 
BRANCH  16  18
ATOM     17  O   UNL     1      32.928 -22.107 -19.560  0.00  0.00    -0.291 OA
ATOM     18  C   UNL     1      33.887 -22.434 -18.829  0.00  0.00    +0.173 C 
BRANCH  18  20
ATOM     19  N   UNL     1      30.787 -23.505 -15.247  0.00  0.00    -0.333 N 
ATOM     20  C   UNL     1      33.668 -22.830 -17.448  0.00  0.00    +0.036 C 
ATOM     21  C   UNL     1      33.221 -23.612 -14.782  0.00  0.00    -0.009 C 
ATOM     22  C   UNL     1      33.097 -24.085 -13.347  0.00  0.00    +0.028 C 
ATOM     23  C   UNL     1      32.115 -23.397 -15.635  0.00  0.00    +0.041 C 
ATOM     24  C   UNL     1      32.055 -25.186 -13.155  0.00  0.00    +0.006 C 
ATOM     25  C   UNL     1      30.615 -24.680 -13.091  0.00  0.00    +0.022 C 
ATOM     26  C   UNL     1      32.370 -23.023 -16.972  0.00  0.00    +0.017 C 
ATOM     27  C   UNL     1      30.345 -23.404 -13.874  0.00  0.00    +0.087 C 
ATOM     28  C   UNL     1      34.746 -23.007 -16.595  0.00  0.00    +0.003 C 
ATOM     29  C   UNL     1      34.525 -23.393 -15.275  0.00  0.00    -0.003 C 
ATOM     30  H   UNL     1      30.108 -23.658 -15.944  0.00  0.00    +0.147 HD
ENDBRANCH  18  20
ENDBRANCH  16  18
ENDBRANCH   1  16
TORSDOF 6
ENDMDL
MODEL 7
REMARK VINA RESULT:     -11.5      6.858     11.384
REMARK  Name = 198752
REMARK  6 active torsions:
REMARK  status: ('A' for Active; 'I' for Inactive)
REMARK    1  A    between atoms: C_1  and  C_3
REMARK    2  A    between atoms: C_1  and  C_16
REMARK    3  A    between atoms: N_2  and  C_9
REMARK    4  A    between atoms: C_9  and  C_10
REMARK    5  A    between atoms: C_16  and  C_18
REMARK    6  A    between atoms: C_18  and  C_20
REMARK                            x       y       z     vdW  Elec       q    Type
REMARK                         _______ _______ _______ _____ _____    ______ ____
ROOT
ATOM      1  C   UNL     1      31.942 -10.667 -20.126  0.00  0.00    +0.008 C 
ENDROOT
BRANCH   1   3
ATOM      2  N   UNL     1      32.396  -6.969 -22.311  0.00  0.00    +0.390 N 
ATOM      3  C   UNL     1      31.593  -9.323 -20.759  0.00  0.00    -0.004 C 
ATOM      4  C   UNL     1      31.780  -9.365 -22.279  0.00  0.00    -0.023 C 
ATOM      5  C   UNL     1      32.445  -8.197 -20.164  0.00  0.00    -0.023 C 
ATOM      6  C   UNL     1      31.529  -7.993 -22.909  0.00  0.00    -0.077 C 
ATOM      7  C   UNL     1      32.172  -6.864 -20.863  0.00  0.00    -0.077 C 
ATOM      8  H   UNL     1      33.365  -7.252 -22.459  0.00  0.00    -0.079 HD
BRANCH   2   9
ATOM      9  C   UNL     1      32.182  -5.675 -22.958  0.00  0.00    -0.050 C 
BRANCH   9  10
ATOM     10  C   UNL     1      33.138  -5.453 -24.099  0.00  0.00    -0.043 C 
ATOM     11  C   UNL     1      32.787  -4.587 -25.125  0.00  0.00    -0.006 C 
ATOM     12  C   UNL     1      34.357  -6.116 -24.110  0.00  0.00    -0.006 C 
ATOM     13  C   UNL     1      33.673  -4.382 -26.183  0.00  0.00    -0.000 C 
ATOM     14  C   UNL     1      35.243  -5.911 -25.166  0.00  0.00    -0.000 C 
ATOM     15  C   UNL     1      34.900  -5.044 -26.204  0.00  0.00    -0.000 C 
ENDBRANCH   9  10
ENDBRANCH   2   9
ENDBRANCH   1   3
BRANCH   1  16
ATOM     16  C   UNL     1      31.997 -11.782 -21.172  0.00  0.00    +0.069 C 
BRANCH  16  18
ATOM     17  O   UNL     1      32.125 -13.418 -19.406  0.00  0.00    -0.291 OA
ATOM     18  C   UNL     1      32.409 -13.147 -20.591  0.00  0.00    +0.173 C 
BRANCH  18  20
ATOM     19  N   UNL     1      35.083 -17.188 -20.931  0.00  0.00    -0.333 N 
ATOM     20  C   UNL     1      33.122 -14.104 -21.422  0.00  0.00    +0.036 C 
ATOM     21  C   UNL     1      34.493 -15.976 -23.013  0.00  0.00    -0.009 C 
ATOM     22  C   UNL     1      35.158 -16.948 -23.968  0.00  0.00    +0.028 C 
ATOM     23  C   UNL     1      34.453 -16.156 -21.613  0.00  0.00    +0.041 C 
ATOM     24  C   UNL     1      34.893 -18.415 -23.627  0.00  0.00    +0.006 C 
ATOM     25  C   UNL     1      35.762 -18.962 -22.496  0.00  0.00    +0.022 C 
ATOM     26  C   UNL     1      33.742 -15.211 -20.842  0.00  0.00    +0.017 C 
ATOM     27  C   UNL     1      36.201 -17.932 -21.466  0.00  0.00    +0.087 C 
ATOM     28  C   UNL     1      33.197 -13.914 -22.793  0.00  0.00    +0.003 C 
ATOM     29  C   UNL     1      33.878 -14.840 -23.581  0.00  0.00    -0.003 C 
ATOM     30  H   UNL     1      34.752 -17.425 -20.034  0.00  0.00    +0.147 HD
ENDBRANCH  18  20
ENDBRANCH  16  18
ENDBRANCH   1  16
TORSDOF 6
ENDMDL
MODEL 8
REMARK VINA RESULT:     -11.5      2.494     10.097
REMARK  Name = 198752
REMARK  6 active torsions:
REMARK  status: ('A' for Active; 'I' for Inactive)
REMARK    1  A    between atoms: C_1  and  C_3
REMARK    2  A    between atoms: C_1  and  C_16
REMARK    3  A    between atoms: N_2  and  C_9
REMARK    4  A    between atoms: C_9  and  C_10
REMARK    5  A    between atoms: C_16  and  C_18
REMARK    6  A    between atoms: C_18  and  C_20
REMARK                            x       y       z     vdW  Elec       q    Type
REMARK                         _______ _______ _______ _____ _____    ______ ____
ROOT
ATOM      1  C   UNL     1      36.080 -18.727 -20.954  0.00  0.00    +0.008 C 
ENDROOT
BRANCH   1   3
ATOM      2  N   UNL     1      34.194 -21.932 -18.757  0.00  0.00    +0.390 N 
ATOM      3  C   UNL     1      35.480 -20.095 -20.646  0.00  0.00    -0.004 C 
ATOM      4  C   UNL     1      34.003 -19.973 -20.256  0.00  0.00    -0.023 C 
ATOM      5  C   UNL     1      36.254 -20.798 -19.527  0.00  0.00    -0.023 C 
ATOM      6  C   UNL     1      33.421 -21.329 -19.850  0.00  0.00    -0.077 C 
ATOM      7  C   UNL     1      35.597 -22.126 -19.145  0.00  0.00    -0.077 C 
ATOM      8  H   UNL     1      34.173 -21.289 -17.965  0.00  0.00    -0.079 HD
BRANCH   2   9
ATOM      9  C   UNL     1      33.596 -23.202 -18.345  0.00  0.00    -0.050 C 
BRANCH   9  10
ATOM     10  C   UNL     1      33.166 -23.177 -16.902  0.00  0.00    -0.043 C 
ATOM     11  C   UNL     1      31.840 -22.910 -16.590  0.00  0.00    -0.006 C 
ATOM     12  C   UNL     1      34.100 -23.421 -15.905  0.00  0.00    -0.006 C 
ATOM     13  C   UNL     1      31.442 -22.886 -15.253  0.00  0.00    -0.000 C 
ATOM     14  C   UNL     1      33.701 -23.398 -14.569  0.00  0.00    -0.000 C 
ATOM     15  C   UNL     1      32.372 -23.130 -14.243  0.00  0.00    -0.000 C 
ENDBRANCH   9  10
ENDBRANCH   2   9
ENDBRANCH   1   3
BRANCH   1  16
ATOM     16  C   UNL     1      36.496 -18.613 -22.420  0.00  0.00    +0.069 C 
BRANCH  16  18
ATOM     17  O   UNL     1      34.766 -19.502 -23.843  0.00  0.00    -0.291 OA
ATOM     18  C   UNL     1      35.305 -18.473 -23.387  0.00  0.00    +0.173 C 
BRANCH  18  20
ATOM     19  N   UNL     1      33.592 -14.136 -22.029  0.00  0.00    -0.333 N 
ATOM     20  C   UNL     1      34.822 -17.153 -23.757  0.00  0.00    +0.036 C 
ATOM     21  C   UNL     1      33.899 -14.587 -24.449  0.00  0.00    -0.009 C 
ATOM     22  C   UNL     1      33.466 -13.216 -24.931  0.00  0.00    +0.028 C 
ATOM     23  C   UNL     1      33.978 -14.949 -23.086  0.00  0.00    +0.041 C 
ATOM     24  C   UNL     1      34.049 -12.067 -24.108  0.00  0.00    +0.006 C 
ATOM     25  C   UNL     1      33.322 -11.811 -22.789  0.00  0.00    +0.022 C 
ATOM     26  C   UNL     1      34.462 -16.236 -22.768  0.00  0.00    +0.017 C 
ATOM     27  C   UNL     1      32.666 -13.034 -22.166  0.00  0.00    +0.087 C 
ATOM     28  C   UNL     1      34.707 -16.803 -25.093  0.00  0.00    +0.003 C 
ATOM     29  C   UNL     1      34.248 -15.533 -25.436  0.00  0.00    -0.003 C 
ATOM     30  H   UNL     1      33.968 -14.320 -21.137  0.00  0.00    +0.147 HD
ENDBRANCH  18  20
ENDBRANCH  16  18
ENDBRANCH   1  16
TORSDOF 6
ENDMDL
MODEL 9
REMARK VINA RESULT:     -11.4      5.423     12.447
REMARK  Name = 198752
REMARK  6 active torsions:
REMARK  status: ('A' for Active; 'I' for Inactive)
REMARK    1  A    between atoms: C_1  and  C_3
REMARK    2  A    between atoms: C_1  and  C_16
REMARK    3  A    between atoms: N_2  and  C_9
REMARK    4  A    between atoms: C_9  and  C_10
REMARK    5  A    between atoms: C_16  and  C_18
REMARK    6  A    between atoms: C_18  and  C_20
REMARK                            x       y       z     vdW  Elec       q    Type
REMARK                         _______ _______ _______ _____ _____    ______ ____
ROOT
ATOM      1  C   UNL     1      32.631 -13.142 -22.022  0.00  0.00    +0.008 C 
ENDROOT
BRANCH   1   3
ATOM      2  N   UNL     1      34.819 -16.865 -22.100  0.00  0.00    +0.390 N 
ATOM      3  C   UNL     1      33.806 -14.115 -22.009  0.00  0.00    -0.004 C 
ATOM      4  C   UNL     1      33.861 -14.929 -23.306  0.00  0.00    -0.023 C 
ATOM      5  C   UNL     1      33.723 -15.063 -20.807  0.00  0.00    -0.023 C 
ATOM      6  C   UNL     1      34.976 -15.976 -23.259  0.00  0.00    -0.077 C 
ATOM      7  C   UNL     1      34.842 -16.106 -20.843  0.00  0.00    -0.077 C 
ATOM      8  H   UNL     1      33.911 -17.322 -22.175  0.00  0.00    -0.079 HD
BRANCH   2   9
ATOM      9  C   UNL     1      35.861 -17.892 -22.097  0.00  0.00    -0.050 C 
BRANCH   9  10
ATOM     10  C   UNL     1      35.489 -19.065 -21.230  0.00  0.00    -0.043 C 
ATOM     11  C   UNL     1      36.486 -19.770 -20.569  0.00  0.00    -0.006 C 
ATOM     12  C   UNL     1      34.155 -19.426 -21.101  0.00  0.00    -0.006 C 
ATOM     13  C   UNL     1      36.141 -20.857 -19.766  0.00  0.00    -0.000 C 
ATOM     14  C   UNL     1      33.810 -20.512 -20.298  0.00  0.00    -0.000 C 
ATOM     15  C   UNL     1      34.804 -21.228 -19.630  0.00  0.00    -0.000 C 
ENDBRANCH   9  10
ENDBRANCH   2   9
ENDBRANCH   1   3
BRANCH   1  16
ATOM     16  C   UNL     1      32.374 -12.553 -20.634  0.00  0.00    +0.069 C 
BRANCH  16  18
ATOM     17  O   UNL     1      30.093 -11.795 -20.456  0.00  0.00    -0.291 OA
ATOM     18  C   UNL     1      31.285 -11.464 -20.622  0.00  0.00    +0.173 C 
BRANCH  18  20
ATOM     19  N   UNL     1      32.033  -7.711 -23.612  0.00  0.00    -0.333 N 
ATOM     20  C   UNL     1      31.652 -10.069 -20.803  0.00  0.00    +0.036 C 
ATOM     21  C   UNL     1      32.345  -7.368 -21.175  0.00  0.00    -0.009 C 
ATOM     22  C   UNL     1      32.682  -5.892 -21.255  0.00  0.00    +0.028 C 
ATOM     23  C   UNL     1      32.011  -8.158 -22.298  0.00  0.00    +0.041 C 
ATOM     24  C   UNL     1      31.775  -5.109 -22.205  0.00  0.00    +0.006 C 
ATOM     25  C   UNL     1      32.144  -5.253 -23.682  0.00  0.00    +0.022 C 
ATOM     26  C   UNL     1      31.650  -9.504 -22.079  0.00  0.00    +0.017 C 
ATOM     27  C   UNL     1      32.805  -6.571 -24.055  0.00  0.00    +0.087 C 
ATOM     28  C   UNL     1      32.017  -9.298 -19.711  0.00  0.00    +0.003 C 
ATOM     29  C   UNL     1      32.361  -7.961 -19.895  0.00  0.00    -0.003 C 
ATOM     30  H   UNL     1      31.495  -8.196 -24.279  0.00  0.00    +0.147 HD
ENDBRANCH  18  20
ENDBRANCH  16  18
ENDBRANCH   1  16
TORSDOF 6
ENDMDL
