MODEL 1
REMARK VINA RESULT:     -11.6      0.000      0.000
REMARK  Name = 46207733
REMARK  4 active torsions:
REMARK  status: ('A' for Active; 'I' for Inactive)
REMARK    1  A    between atoms: N_2  and  C_16
REMARK    2  A    between atoms: C_10  and  C_24
REMARK    3  A    between atoms: C_17  and  O_22
REMARK    4  A    between atoms: C_24  and  C_26
REMARK                            x       y       z     vdW  Elec       q    Type
REMARK                         _______ _______ _______ _____ _____    ______ ____
ROOT
ATOM      1  O   UNL     1      36.574 -22.151 -18.156  0.00  0.00    -0.274 OA
ATOM      2  N   UNL     1      34.740 -21.354 -19.348  0.00  0.00    -0.257 N 
ATOM      3  N   UNL     1      32.532 -21.709 -18.553  0.00  0.00    -0.252 NA
ATOM      4  C   UNL     1      35.361 -22.013 -18.286  0.00  0.00    +0.236 C 
ATOM      5  C   UNL     1      33.366 -21.241 -19.420  0.00  0.00    +0.222 C 
ATOM      6  C   UNL     1      34.435 -22.565 -17.269  0.00  0.00    +0.138 C 
ATOM      7  C   UNL     1      33.051 -22.396 -17.436  0.00  0.00    +0.068 C 
ATOM      8  C   UNL     1      32.162 -22.924 -16.463  0.00  0.00    +0.014 C 
ATOM      9  C   UNL     1      34.947 -23.245 -16.164  0.00  0.00    -0.015 C 
ATOM     10  C   UNL     1      34.078 -23.764 -15.209  0.00  0.00    -0.021 C 
ATOM     11  C   UNL     1      32.691 -23.614 -15.343  0.00  0.00    -0.003 C 
ATOM     12  C   UNL     1      30.759 -22.796 -16.559  0.00  0.00    +0.001 C 
ATOM     13  C   UNL     1      31.823 -24.142 -14.372  0.00  0.00    -0.000 C 
ATOM     14  C   UNL     1      29.911 -23.327 -15.585  0.00  0.00    +0.000 C 
ATOM     15  C   UNL     1      30.442 -24.000 -14.493  0.00  0.00    -0.000 C 
ENDROOT
BRANCH   2  16
ATOM     16  C   UNL     1      35.553 -20.779 -20.397  0.00  0.00    +0.104 C 
ATOM     17  C   UNL     1      36.421 -19.641 -19.843  0.00  0.00    +0.129 C 
ATOM     18  C   UNL     1      34.663 -20.301 -21.548  0.00  0.00    +0.022 C 
ATOM     19  C   UNL     1      37.206 -18.938 -20.951  0.00  0.00    +0.031 C 
ATOM     20  C   UNL     1      35.469 -19.610 -22.644  0.00  0.00    +0.002 C 
ATOM     21  C   UNL     1      36.303 -18.464 -22.082  0.00  0.00    +0.003 C 
BRANCH  17  22
ATOM     22  O   UNL     1      37.346 -20.181 -18.901  0.00  0.00    -0.383 OA
ATOM     23  H   UNL     1      37.274 -21.149 -18.895  0.00  0.00    +0.210 HD
ENDBRANCH  17  22
ENDBRANCH   2  16
BRANCH  10  24
ATOM     24  C   UNL     1      34.694 -24.482 -14.048  0.00  0.00    +0.054 C 
BRANCH  24  26
ATOM     25  N   UNL     1      38.453 -23.977 -14.068  0.00  0.00    -0.248 NA
ATOM     26  C   UNL     1      36.171 -24.761 -14.219  0.00  0.00    +0.001 C 
ATOM     27  C   UNL     1      36.618 -26.000 -14.667  0.00  0.00    -0.001 C 
ATOM     28  C   UNL     1      37.120 -23.793 -13.936  0.00  0.00    +0.094 C 
ATOM     29  C   UNL     1      37.982 -26.228 -14.816  0.00  0.00    +0.014 C 
ATOM     30  C   UNL     1      38.850 -25.194 -14.505  0.00  0.00    +0.059 C 
ATOM     31  C   UNL     1      40.321 -25.402 -14.654  0.00  0.00    +0.052 C 
ENDBRANCH  24  26
ENDBRANCH  10  24
TORSDOF 4
ENDMDL
MODEL 2
REMARK VINA RESULT:     -11.4      2.638      7.085
REMARK  Name = 46207733
REMARK  4 active torsions:
REMARK  status: ('A' for Active; 'I' for Inactive)
REMARK    1  A    between atoms: N_2  and  C_16
REMARK    2  A    between atoms: C_10  and  C_24
REMARK    3  A    between atoms: C_17  and  O_22
REMARK    4  A    between atoms: C_24  and  C_26
REMARK                            x       y       z     vdW  Elec       q    Type
REMARK                         _______ _______ _______ _____ _____    ______ ____
ROOT
ATOM      1  O   UNL     1      31.926 -22.905 -16.393  0.00  0.00    -0.274 OA
ATOM      2  N   UNL     1      31.263 -23.880 -14.385  0.00  0.00    -0.257 N 
ATOM      3  N   UNL     1      32.872 -24.516 -12.760  0.00  0.00    -0.252 NA
ATOM      4  C   UNL     1      32.198 -23.392 -15.300  0.00  0.00    +0.236 C 
ATOM      5  C   UNL     1      31.654 -24.412 -13.173  0.00  0.00    +0.222 C 
ATOM      6  C   UNL     1      33.610 -23.494 -14.861  0.00  0.00    +0.138 C 
ATOM      7  C   UNL     1      33.901 -24.053 -13.606  0.00  0.00    +0.068 C 
ATOM      8  C   UNL     1      35.253 -24.152 -13.183  0.00  0.00    +0.014 C 
ATOM      9  C   UNL     1      34.629 -23.036 -15.696  0.00  0.00    -0.015 C 
ATOM     10  C   UNL     1      35.955 -23.133 -15.285  0.00  0.00    -0.021 C 
ATOM     11  C   UNL     1      36.283 -23.685 -14.039  0.00  0.00    -0.003 C 
ATOM     12  C   UNL     1      35.627 -24.701 -11.937  0.00  0.00    +0.001 C 
ATOM     13  C   UNL     1      37.625 -23.777 -13.634  0.00  0.00    -0.000 C 
ATOM     14  C   UNL     1      36.966 -24.785 -11.550  0.00  0.00    +0.000 C 
ATOM     15  C   UNL     1      37.964 -24.324 -12.398  0.00  0.00    -0.000 C 
ENDROOT
BRANCH   2  16
ATOM     16  C   UNL     1      29.857 -23.829 -14.716  0.00  0.00    +0.104 C 
ATOM     17  C   UNL     1      29.573 -24.629 -15.994  0.00  0.00    +0.129 C 
ATOM     18  C   UNL     1      29.402 -22.372 -14.850  0.00  0.00    +0.022 C 
ATOM     19  C   UNL     1      28.114 -24.498 -16.432  0.00  0.00    +0.031 C 
ATOM     20  C   UNL     1      27.943 -22.266 -15.281  0.00  0.00    +0.002 C 
ATOM     21  C   UNL     1      27.685 -23.044 -16.568  0.00  0.00    +0.003 C 
BRANCH  17  22
ATOM     22  O   UNL     1      29.854 -26.006 -15.748  0.00  0.00    -0.383 OA
ATOM     23  H   UNL     1      29.101 -26.546 -16.037  0.00  0.00    +0.210 HD
ENDBRANCH  17  22
ENDBRANCH   2  16
BRANCH  10  24
ATOM     24  C   UNL     1      36.999 -22.623 -16.230  0.00  0.00    +0.054 C 
BRANCH  24  26
ATOM     25  N   UNL     1      36.672 -20.444 -19.318  0.00  0.00    -0.248 NA
ATOM     26  C   UNL     1      36.431 -22.010 -17.492  0.00  0.00    +0.001 C 
ATOM     27  C   UNL     1      35.196 -22.413 -17.989  0.00  0.00    -0.001 C 
ATOM     28  C   UNL     1      37.123 -21.032 -18.186  0.00  0.00    +0.094 C 
ATOM     29  C   UNL     1      34.698 -21.831 -19.151  0.00  0.00    +0.014 C 
ATOM     30  C   UNL     1      35.468 -20.861 -19.772  0.00  0.00    +0.059 C 
ATOM     31  C   UNL     1      34.965 -20.215 -21.021  0.00  0.00    +0.052 C 
ENDBRANCH  24  26
ENDBRANCH  10  24
TORSDOF 4
ENDMDL
MODEL 3
REMARK VINA RESULT:     -11.4      1.863      6.809
REMARK  Name = 46207733
REMARK  4 active torsions:
REMARK  status: ('A' for Active; 'I' for Inactive)
REMARK    1  A    between atoms: N_2  and  C_16
REMARK    2  A    between atoms: C_10  and  C_24
REMARK    3  A    between atoms: C_17  and  O_22
REMARK    4  A    between atoms: C_24  and  C_26
REMARK                            x       y       z     vdW  Elec       q    Type
REMARK                         _______ _______ _______ _____ _____    ______ ____
ROOT
ATOM      1  O   UNL     1      36.562 -23.229 -16.128  0.00  0.00    -0.274 OA
ATOM      2  N   UNL     1      35.826 -23.916 -14.029  0.00  0.00    -0.257 N 
ATOM      3  N   UNL     1      33.510 -23.950 -13.511  0.00  0.00    -0.252 NA
ATOM      4  C   UNL     1      35.653 -23.448 -15.333  0.00  0.00    +0.236 C 
ATOM      5  C   UNL     1      34.748 -24.138 -13.197  0.00  0.00    +0.222 C 
ATOM      6  C   UNL     1      34.244 -23.220 -15.731  0.00  0.00    +0.138 C 
ATOM      7  C   UNL     1      33.218 -23.477 -14.807  0.00  0.00    +0.068 C 
ATOM      8  C   UNL     1      31.868 -23.258 -15.186  0.00  0.00    +0.014 C 
ATOM      9  C   UNL     1      33.954 -22.752 -17.013  0.00  0.00    -0.015 C 
ATOM     10  C   UNL     1      32.631 -22.536 -17.386  0.00  0.00    -0.021 C 
ATOM     11  C   UNL     1      31.581 -22.782 -16.490  0.00  0.00    -0.003 C 
ATOM     12  C   UNL     1      30.781 -23.494 -14.314  0.00  0.00    +0.001 C 
ATOM     13  C   UNL     1      30.249 -22.561 -16.878  0.00  0.00    -0.000 C 
ATOM     14  C   UNL     1      29.463 -23.268 -14.716  0.00  0.00    +0.000 C 
ATOM     15  C   UNL     1      29.198 -22.802 -15.997  0.00  0.00    -0.000 C 
ENDROOT
BRANCH   2  16
ATOM     16  C   UNL     1      37.162 -24.171 -13.540  0.00  0.00    +0.104 C 
ATOM     17  C   UNL     1      37.562 -25.629 -13.799  0.00  0.00    +0.129 C 
ATOM     18  C   UNL     1      37.254 -23.817 -12.053  0.00  0.00    +0.022 C 
ATOM     19  C   UNL     1      38.926 -25.959 -13.191  0.00  0.00    +0.031 C 
ATOM     20  C   UNL     1      38.624 -24.147 -11.470  0.00  0.00    +0.002 C 
ATOM     21  C   UNL     1      38.993 -25.607 -11.711  0.00  0.00    +0.003 C 
BRANCH  17  22
ATOM     22  O   UNL     1      37.627 -25.848 -15.208  0.00  0.00    -0.383 OA
ATOM     23  H   UNL     1      36.735 -26.014 -15.551  0.00  0.00    +0.210 HD
ENDBRANCH  17  22
ENDBRANCH   2  16
BRANCH  10  24
ATOM     24  C   UNL     1      32.391 -22.033 -18.777  0.00  0.00    +0.054 C 
BRANCH  24  26
ATOM     25  N   UNL     1      34.444 -19.564 -20.795  0.00  0.00    -0.248 NA
ATOM     26  C   UNL     1      33.584 -21.330 -19.384  0.00  0.00    +0.001 C 
ATOM     27  C   UNL     1      34.880 -21.763 -19.123  0.00  0.00    -0.001 C 
ATOM     28  C   UNL     1      33.421 -20.236 -20.219  0.00  0.00    +0.094 C 
ATOM     29  C   UNL     1      35.958 -21.097 -19.696  0.00  0.00    +0.014 C 
ATOM     30  C   UNL     1      35.689 -20.013 -20.517  0.00  0.00    +0.059 C 
ATOM     31  C   UNL     1      36.822 -19.274 -21.150  0.00  0.00    +0.052 C 
ENDBRANCH  24  26
ENDBRANCH  10  24
TORSDOF 4
ENDMDL
MODEL 4
REMARK VINA RESULT:     -11.4      1.860      5.458
REMARK  Name = 46207733
REMARK  4 active torsions:
REMARK  status: ('A' for Active; 'I' for Inactive)
REMARK    1  A    between atoms: N_2  and  C_16
REMARK    2  A    between atoms: C_10  and  C_24
REMARK    3  A    between atoms: C_17  and  O_22
REMARK    4  A    between atoms: C_24  and  C_26
REMARK                            x       y       z     vdW  Elec       q    Type
REMARK                         _______ _______ _______ _____ _____    ______ ____
ROOT
ATOM      1  O   UNL     1      32.780 -22.420 -18.583  0.00  0.00    -0.274 OA
ATOM      2  N   UNL     1      35.041 -21.889 -18.427  0.00  0.00    -0.257 N 
ATOM      3  N   UNL     1      36.268 -22.382 -16.456  0.00  0.00    -0.252 NA
ATOM      4  C   UNL     1      33.833 -22.403 -17.953  0.00  0.00    +0.236 C 
ATOM      5  C   UNL     1      36.184 -21.908 -17.654  0.00  0.00    +0.222 C 
ATOM      6  C   UNL     1      33.889 -22.956 -16.579  0.00  0.00    +0.138 C 
ATOM      7  C   UNL     1      35.104 -22.927 -15.875  0.00  0.00    +0.068 C 
ATOM      8  C   UNL     1      35.159 -23.457 -14.559  0.00  0.00    +0.014 C 
ATOM      9  C   UNL     1      32.738 -23.496 -16.003  0.00  0.00    -0.015 C 
ATOM     10  C   UNL     1      32.790 -24.014 -14.714  0.00  0.00    -0.021 C 
ATOM     11  C   UNL     1      33.986 -24.003 -13.981  0.00  0.00    -0.003 C 
ATOM     12  C   UNL     1      36.342 -23.464 -13.786  0.00  0.00    +0.001 C 
ATOM     13  C   UNL     1      34.026 -24.530 -12.679  0.00  0.00    -0.000 C 
ATOM     14  C   UNL     1      36.364 -23.992 -12.494  0.00  0.00    +0.000 C 
ATOM     15  C   UNL     1      35.207 -24.524 -11.941  0.00  0.00    -0.000 C 
ENDROOT
BRANCH   2  16
ATOM     16  C   UNL     1      35.096 -21.324 -19.757  0.00  0.00    +0.104 C 
ATOM     17  C   UNL     1      36.360 -20.470 -19.929  0.00  0.00    +0.129 C 
ATOM     18  C   UNL     1      33.826 -20.514 -20.036  0.00  0.00    +0.022 C 
ATOM     19  C   UNL     1      36.388 -19.767 -21.287  0.00  0.00    +0.031 C 
ATOM     20  C   UNL     1      33.874 -19.828 -21.397  0.00  0.00    +0.002 C 
ATOM     21  C   UNL     1      35.121 -18.961 -21.540  0.00  0.00    +0.003 C 
BRANCH  17  22
ATOM     22  O   UNL     1      37.505 -21.316 -19.830  0.00  0.00    -0.383 OA
ATOM     23  H   UNL     1      37.425 -22.045 -20.464  0.00  0.00    +0.210 HD
ENDBRANCH  17  22
ENDBRANCH   2  16
BRANCH  10  24
ATOM     24  C   UNL     1      31.519 -24.578 -14.156  0.00  0.00    +0.054 C 
BRANCH  24  26
ATOM     25  N   UNL     1      28.754 -22.113 -14.969  0.00  0.00    -0.248 NA
ATOM     26  C   UNL     1      30.270 -23.986 -14.770  0.00  0.00    +0.001 C 
ATOM     27  C   UNL     1      29.497 -24.717 -15.667  0.00  0.00    -0.001 C 
ATOM     28  C   UNL     1      29.859 -22.701 -14.457  0.00  0.00    +0.094 C 
ATOM     29  C   UNL     1      28.353 -24.147 -16.215  0.00  0.00    +0.014 C 
ATOM     30  C   UNL     1      28.028 -22.853 -15.838  0.00  0.00    +0.059 C 
ATOM     31  C   UNL     1      26.807 -22.210 -16.406  0.00  0.00    +0.052 C 
ENDBRANCH  24  26
ENDBRANCH  10  24
TORSDOF 4
ENDMDL
MODEL 5
REMARK VINA RESULT:     -11.0     10.955     16.386
REMARK  Name = 46207733
REMARK  4 active torsions:
REMARK  status: ('A' for Active; 'I' for Inactive)
REMARK    1  A    between atoms: N_2  and  C_16
REMARK    2  A    between atoms: C_10  and  C_24
REMARK    3  A    between atoms: C_17  and  O_22
REMARK    4  A    between atoms: C_24  and  C_26
REMARK                            x       y       z     vdW  Elec       q    Type
REMARK                         _______ _______ _______ _____ _____    ______ ____
ROOT
ATOM      1  O   UNL     1      34.934 -11.747 -24.687  0.00  0.00    -0.274 OA
ATOM      2  N   UNL     1      33.164 -12.450 -23.347  0.00  0.00    -0.257 N 
ATOM      3  N   UNL     1      32.017 -10.911 -21.952  0.00  0.00    -0.252 NA
ATOM      4  C   UNL     1      34.054 -11.508 -23.865  0.00  0.00    +0.236 C 
ATOM      5  C   UNL     1      32.201 -12.098 -22.424  0.00  0.00    +0.222 C 
ATOM      6  C   UNL     1      33.875 -10.131 -23.346  0.00  0.00    +0.138 C 
ATOM      7  C   UNL     1      32.863  -9.878 -22.406  0.00  0.00    +0.068 C 
ATOM      8  C   UNL     1      32.689  -8.560 -21.907  0.00  0.00    +0.014 C 
ATOM      9  C   UNL     1      34.711  -9.108 -23.794  0.00  0.00    -0.015 C 
ATOM     10  C   UNL     1      34.543  -7.816 -23.306  0.00  0.00    -0.021 C 
ATOM     11  C   UNL     1      33.543  -7.526 -22.367  0.00  0.00    -0.003 C 
ATOM     12  C   UNL     1      31.695  -8.224 -20.961  0.00  0.00    +0.001 C 
ATOM     13  C   UNL     1      33.383  -6.217 -21.882  0.00  0.00    -0.000 C 
ATOM     14  C   UNL     1      31.550  -6.919 -20.489  0.00  0.00    +0.000 C 
ATOM     15  C   UNL     1      32.393  -5.916 -20.949  0.00  0.00    -0.000 C 
ENDROOT
BRANCH   2  16
ATOM     16  C   UNL     1      33.254 -13.825 -23.788  0.00  0.00    +0.104 C 
ATOM     17  C   UNL     1      34.503 -14.498 -23.203  0.00  0.00    +0.129 C 
ATOM     18  C   UNL     1      33.243 -13.887 -25.318  0.00  0.00    +0.022 C 
ATOM     19  C   UNL     1      34.686 -15.917 -23.743  0.00  0.00    +0.031 C 
ATOM     20  C   UNL     1      33.420 -15.312 -25.833  0.00  0.00    +0.002 C 
ATOM     21  C   UNL     1      34.681 -15.956 -25.265  0.00  0.00    +0.003 C 
BRANCH  17  22
ATOM     22  O   UNL     1      34.371 -14.563 -21.784  0.00  0.00    -0.383 OA
ATOM     23  H   UNL     1      33.798 -15.309 -21.546  0.00  0.00    +0.210 HD
ENDBRANCH  17  22
ENDBRANCH   2  16
BRANCH  10  24
ATOM     24  C   UNL     1      35.474  -6.766 -23.829  0.00  0.00    +0.054 C 
BRANCH  24  26
ATOM     25  N   UNL     1      35.193  -4.695 -26.994  0.00  0.00    -0.248 NA
ATOM     26  C   UNL     1      34.879  -5.921 -24.934  0.00  0.00    +0.001 C 
ATOM     27  C   UNL     1      33.529  -5.588 -24.932  0.00  0.00    -0.001 C 
ATOM     28  C   UNL     1      35.661  -5.455 -25.978  0.00  0.00    +0.094 C 
ATOM     29  C   UNL     1      33.010  -4.809 -25.960  0.00  0.00    +0.014 C 
ATOM     30  C   UNL     1      33.875  -4.392 -26.959  0.00  0.00    +0.059 C 
ATOM     31  C   UNL     1      33.353  -3.554 -28.079  0.00  0.00    +0.052 C 
ENDBRANCH  24  26
ENDBRANCH  10  24
TORSDOF 4
ENDMDL
MODEL 6
REMARK VINA RESULT:     -10.6      1.868      5.384
REMARK  Name = 46207733
REMARK  4 active torsions:
REMARK  status: ('A' for Active; 'I' for Inactive)
REMARK    1  A    between atoms: N_2  and  C_16
REMARK    2  A    between atoms: C_10  and  C_24
REMARK    3  A    between atoms: C_17  and  O_22
REMARK    4  A    between atoms: C_24  and  C_26
REMARK                            x       y       z     vdW  Elec       q    Type
REMARK                         _______ _______ _______ _____ _____    ______ ____
ROOT
ATOM      1  O   UNL     1      33.205 -22.696 -18.553  0.00  0.00    -0.274 OA
ATOM      2  N   UNL     1      35.368 -21.854 -18.368  0.00  0.00    -0.257 N 
ATOM      3  N   UNL     1      36.606 -22.127 -16.362  0.00  0.00    -0.252 NA
ATOM      4  C   UNL     1      34.232 -22.518 -17.903  0.00  0.00    +0.236 C 
ATOM      5  C   UNL     1      36.485 -21.697 -17.573  0.00  0.00    +0.222 C 
ATOM      6  C   UNL     1      34.332 -23.027 -16.515  0.00  0.00    +0.138 C 
ATOM      7  C   UNL     1      35.516 -22.814 -15.789  0.00  0.00    +0.068 C 
ATOM      8  C   UNL     1      35.614 -23.300 -14.459  0.00  0.00    +0.014 C 
ATOM      9  C   UNL     1      33.254 -23.707 -15.947  0.00  0.00    -0.015 C 
ATOM     10  C   UNL     1      33.348 -24.183 -14.644  0.00  0.00    -0.021 C 
ATOM     11  C   UNL     1      34.514 -23.990 -13.889  0.00  0.00    -0.003 C 
ATOM     12  C   UNL     1      36.769 -23.127 -13.664  0.00  0.00    +0.001 C 
ATOM     13  C   UNL     1      34.597 -24.476 -12.573  0.00  0.00    -0.000 C 
ATOM     14  C   UNL     1      36.834 -23.616 -12.358  0.00  0.00    +0.000 C 
ATOM     15  C   UNL     1      35.749 -24.289 -11.813  0.00  0.00    -0.000 C 
ENDROOT
BRANCH   2  16
ATOM     16  C   UNL     1      35.374 -21.317 -19.711  0.00  0.00    +0.104 C 
ATOM     17  C   UNL     1      36.562 -20.366 -19.906  0.00  0.00    +0.129 C 
ATOM     18  C   UNL     1      34.041 -20.623 -20.005  0.00  0.00    +0.022 C 
ATOM     19  C   UNL     1      36.530 -19.694 -21.280  0.00  0.00    +0.031 C 
ATOM     20  C   UNL     1      34.030 -19.968 -21.382  0.00  0.00    +0.002 C 
ATOM     21  C   UNL     1      35.200 -19.004 -21.549  0.00  0.00    +0.003 C 
BRANCH  17  22
ATOM     22  O   UNL     1      37.774 -21.110 -19.791  0.00  0.00    -0.383 OA
ATOM     23  H   UNL     1      38.307 -20.750 -19.064  0.00  0.00    +0.210 HD
ENDBRANCH  17  22
ENDBRANCH   2  16
BRANCH  10  24
ATOM     24  C   UNL     1      32.155 -24.904 -14.096  0.00  0.00    +0.054 C 
BRANCH  24  26
ATOM     25  N   UNL     1      28.563 -24.516 -15.250  0.00  0.00    -0.248 NA
ATOM     26  C   UNL     1      30.835 -24.263 -14.463  0.00  0.00    +0.001 C 
ATOM     27  C   UNL     1      30.657 -22.887 -14.367  0.00  0.00    -0.001 C 
ATOM     28  C   UNL     1      29.767 -25.026 -14.906  0.00  0.00    +0.094 C 
ATOM     29  C   UNL     1      29.432 -22.325 -14.712  0.00  0.00    +0.014 C 
ATOM     30  C   UNL     1      28.426 -23.175 -15.143  0.00  0.00    +0.059 C 
ATOM     31  C   UNL     1      27.099 -22.606 -15.523  0.00  0.00    +0.052 C 
ENDBRANCH  24  26
ENDBRANCH  10  24
TORSDOF 4
ENDMDL
MODEL 7
REMARK VINA RESULT:     -10.4      5.994     11.638
REMARK  Name = 46207733
REMARK  4 active torsions:
REMARK  status: ('A' for Active; 'I' for Inactive)
REMARK    1  A    between atoms: N_2  and  C_16
REMARK    2  A    between atoms: C_10  and  C_24
REMARK    3  A    between atoms: C_17  and  O_22
REMARK    4  A    between atoms: C_24  and  C_26
REMARK                            x       y       z     vdW  Elec       q    Type
REMARK                         _______ _______ _______ _____ _____    ______ ____
ROOT
ATOM      1  O   UNL     1      34.921 -16.026 -20.198  0.00  0.00    -0.274 OA
ATOM      2  N   UNL     1      34.961 -17.774 -21.735  0.00  0.00    -0.257 N 
ATOM      3  N   UNL     1      34.559 -17.369 -24.039  0.00  0.00    -0.252 NA
ATOM      4  C   UNL     1      34.813 -16.441 -21.348  0.00  0.00    +0.236 C 
ATOM      5  C   UNL     1      34.825 -18.159 -23.053  0.00  0.00    +0.222 C 
ATOM      6  C   UNL     1      34.505 -15.502 -22.453  0.00  0.00    +0.138 C 
ATOM      7  C   UNL     1      34.387 -15.997 -23.762  0.00  0.00    +0.068 C 
ATOM      8  C   UNL     1      34.092 -15.100 -24.822  0.00  0.00    +0.014 C 
ATOM      9  C   UNL     1      34.336 -14.145 -22.181  0.00  0.00    -0.015 C 
ATOM     10  C   UNL     1      34.046 -13.264 -23.217  0.00  0.00    -0.021 C 
ATOM     11  C   UNL     1      33.921 -13.721 -24.537  0.00  0.00    -0.003 C 
ATOM     12  C   UNL     1      33.958 -15.518 -26.165  0.00  0.00    +0.001 C 
ATOM     13  C   UNL     1      33.629 -12.822 -25.576  0.00  0.00    -0.000 C 
ATOM     14  C   UNL     1      33.666 -14.611 -27.185  0.00  0.00    +0.000 C 
ATOM     15  C   UNL     1      33.501 -13.264 -26.891  0.00  0.00    -0.000 C 
ENDROOT
BRANCH   2  16
ATOM     16  C   UNL     1      35.262 -18.772 -20.734  0.00  0.00    +0.104 C 
ATOM     17  C   UNL     1      36.628 -19.415 -21.006  0.00  0.00    +0.129 C 
ATOM     18  C   UNL     1      34.145 -19.820 -20.684  0.00  0.00    +0.022 C 
ATOM     19  C   UNL     1      36.923 -20.555 -20.029  0.00  0.00    +0.031 C 
ATOM     20  C   UNL     1      34.457 -20.941 -19.699  0.00  0.00    +0.002 C 
ATOM     21  C   UNL     1      35.805 -21.589 -20.002  0.00  0.00    +0.003 C 
BRANCH  17  22
ATOM     22  O   UNL     1      37.643 -18.422 -20.866  0.00  0.00    -0.383 OA
ATOM     23  H   UNL     1      37.893 -18.344 -19.932  0.00  0.00    +0.210 HD
ENDBRANCH  17  22
ENDBRANCH   2  16
BRANCH  10  24
ATOM     24  C   UNL     1      33.877 -11.820 -22.855  0.00  0.00    +0.054 C 
BRANCH  24  26
ATOM     25  N   UNL     1      31.359 -10.059 -20.632  0.00  0.00    -0.248 NA
ATOM     26  C   UNL     1      32.858 -11.582 -21.762  0.00  0.00    +0.001 C 
ATOM     27  C   UNL     1      32.480 -12.607 -20.901  0.00  0.00    -0.001 C 
ATOM     28  C   UNL     1      32.273 -10.338 -21.588  0.00  0.00    +0.094 C 
ATOM     29  C   UNL     1      31.541 -12.359 -19.905  0.00  0.00    +0.014 C 
ATOM     30  C   UNL     1      31.015 -11.080 -19.814  0.00  0.00    +0.059 C 
ATOM     31  C   UNL     1      30.005 -10.777 -18.756  0.00  0.00    +0.052 C 
ENDBRANCH  24  26
ENDBRANCH  10  24
TORSDOF 4
ENDMDL
MODEL 8
REMARK VINA RESULT:     -10.4      6.353     12.272
REMARK  Name = 46207733
REMARK  4 active torsions:
REMARK  status: ('A' for Active; 'I' for Inactive)
REMARK    1  A    between atoms: N_2  and  C_16
REMARK    2  A    between atoms: C_10  and  C_24
REMARK    3  A    between atoms: C_17  and  O_22
REMARK    4  A    between atoms: C_24  and  C_26
REMARK                            x       y       z     vdW  Elec       q    Type
REMARK                         _______ _______ _______ _____ _____    ______ ____
ROOT
ATOM      1  O   UNL     1      34.257 -16.221 -20.076  0.00  0.00    -0.274 OA
ATOM      2  N   UNL     1      35.045 -17.684 -21.706  0.00  0.00    -0.257 N 
ATOM      3  N   UNL     1      34.921 -17.114 -24.006  0.00  0.00    -0.252 NA
ATOM      4  C   UNL     1      34.460 -16.500 -21.253  0.00  0.00    +0.236 C 
ATOM      5  C   UNL     1      35.240 -17.921 -23.051  0.00  0.00    +0.222 C 
ATOM      6  C   UNL     1      34.079 -15.546 -22.322  0.00  0.00    +0.138 C 
ATOM      7  C   UNL     1      34.321 -15.884 -23.663  0.00  0.00    +0.068 C 
ATOM      8  C   UNL     1      33.957 -14.972 -24.688  0.00  0.00    +0.014 C 
ATOM      9  C   UNL     1      33.486 -14.329 -21.984  0.00  0.00    -0.015 C 
ATOM     10  C   UNL     1      33.127 -13.434 -22.987  0.00  0.00    -0.021 C 
ATOM     11  C   UNL     1      33.354 -13.738 -24.337  0.00  0.00    -0.003 C 
ATOM     12  C   UNL     1      34.167 -15.238 -26.060  0.00  0.00    +0.001 C 
ATOM     13  C   UNL     1      32.987 -12.826 -25.341  0.00  0.00    -0.000 C 
ATOM     14  C   UNL     1      33.796 -14.321 -27.045  0.00  0.00    +0.000 C 
ATOM     15  C   UNL     1      33.207 -13.116 -26.685  0.00  0.00    -0.000 C 
ENDROOT
BRANCH   2  16
ATOM     16  C   UNL     1      35.453 -18.684 -20.744  0.00  0.00    +0.104 C 
ATOM     17  C   UNL     1      36.832 -19.250 -21.108  0.00  0.00    +0.129 C 
ATOM     18  C   UNL     1      34.396 -19.788 -20.654  0.00  0.00    +0.022 C 
ATOM     19  C   UNL     1      37.240 -20.391 -20.174  0.00  0.00    +0.031 C 
ATOM     20  C   UNL     1      34.820 -20.910 -19.712  0.00  0.00    +0.002 C 
ATOM     21  C   UNL     1      36.179 -21.481 -20.104  0.00  0.00    +0.003 C 
BRANCH  17  22
ATOM     22  O   UNL     1      37.802 -18.208 -21.004  0.00  0.00    -0.383 OA
ATOM     23  H   UNL     1      38.326 -18.333 -20.198  0.00  0.00    +0.210 HD
ENDBRANCH  17  22
ENDBRANCH   2  16
BRANCH  10  24
ATOM     24  C   UNL     1      32.495 -12.147 -22.555  0.00  0.00    +0.054 C 
BRANCH  24  26
ATOM     25  N   UNL     1      33.493  -8.510 -22.954  0.00  0.00    -0.248 NA
ATOM     26  C   UNL     1      33.281 -10.918 -22.955  0.00  0.00    +0.001 C 
ATOM     27  C   UNL     1      34.471 -11.031 -23.667  0.00  0.00    -0.001 C 
ATOM     28  C   UNL     1      32.839  -9.648 -22.625  0.00  0.00    +0.094 C 
ATOM     29  C   UNL     1      35.172  -9.883 -24.023  0.00  0.00    +0.014 C 
ATOM     30  C   UNL     1      34.646  -8.658 -23.645  0.00  0.00    +0.059 C 
ATOM     31  C   UNL     1      35.372  -7.405 -24.010  0.00  0.00    +0.052 C 
ENDBRANCH  24  26
ENDBRANCH  10  24
TORSDOF 4
ENDMDL
MODEL 9
REMARK VINA RESULT:     -10.2      2.346      8.040
REMARK  Name = 46207733
REMARK  4 active torsions:
REMARK  status: ('A' for Active; 'I' for Inactive)
REMARK    1  A    between atoms: N_2  and  C_16
REMARK    2  A    between atoms: C_10  and  C_24
REMARK    3  A    between atoms: C_17  and  O_22
REMARK    4  A    between atoms: C_24  and  C_26
REMARK                            x       y       z     vdW  Elec       q    Type
REMARK                         _______ _______ _______ _____ _____    ______ ____
ROOT
ATOM      1  O   UNL     1      38.555 -22.448 -16.338  0.00  0.00    -0.274 OA
ATOM      2  N   UNL     1      36.573 -23.323 -15.487  0.00  0.00    -0.257 N 
ATOM      3  N   UNL     1      34.509 -22.945 -16.595  0.00  0.00    -0.252 NA
ATOM      4  C   UNL     1      37.339 -22.603 -16.405  0.00  0.00    +0.236 C 
ATOM      5  C   UNL     1      35.207 -23.451 -15.635  0.00  0.00    +0.222 C 
ATOM      6  C   UNL     1      36.572 -22.006 -17.523  0.00  0.00    +0.138 C 
ATOM      7  C   UNL     1      35.182 -22.195 -17.582  0.00  0.00    +0.068 C 
ATOM      8  C   UNL     1      34.445 -21.624 -18.652  0.00  0.00    +0.014 C 
ATOM      9  C   UNL     1      37.237 -21.264 -18.500  0.00  0.00    -0.015 C 
ATOM     10  C   UNL     1      36.517 -20.702 -19.549  0.00  0.00    -0.021 C 
ATOM     11  C   UNL     1      35.128 -20.871 -19.640  0.00  0.00    -0.003 C 
ATOM     12  C   UNL     1      33.046 -21.769 -18.782  0.00  0.00    +0.001 C 
ATOM     13  C   UNL     1      34.411 -20.299 -20.705  0.00  0.00    -0.000 C 
ATOM     14  C   UNL     1      32.349 -21.193 -19.846  0.00  0.00    +0.000 C 
ATOM     15  C   UNL     1      33.031 -20.458 -20.806  0.00  0.00    -0.000 C 
ENDROOT
BRANCH   2  16
ATOM     16  C   UNL     1      37.224 -23.947 -14.357  0.00  0.00    +0.104 C 
ATOM     17  C   UNL     1      36.915 -25.449 -14.317  0.00  0.00    +0.129 C 
ATOM     18  C   UNL     1      36.805 -23.250 -13.059  0.00  0.00    +0.022 C 
ATOM     19  C   UNL     1      37.496 -26.114 -13.068  0.00  0.00    +0.031 C 
ATOM     20  C   UNL     1      37.401 -23.925 -11.829  0.00  0.00    +0.002 C 
ATOM     21  C   UNL     1      37.060 -25.411 -11.789  0.00  0.00    +0.003 C 
BRANCH  17  22
ATOM     22  O   UNL     1      37.483 -26.069 -15.469  0.00  0.00    -0.383 OA
ATOM     23  H   UNL     1      38.392 -26.345 -15.273  0.00  0.00    +0.210 HD
ENDBRANCH  17  22
ENDBRANCH   2  16
BRANCH  10  24
ATOM     24  C   UNL     1      37.293 -19.918 -20.563  0.00  0.00    +0.054 C 
BRANCH  24  26
ATOM     25  N   UNL     1      35.233 -16.772 -21.059  0.00  0.00    -0.248 NA
ATOM     26  C   UNL     1      36.485 -18.832 -21.240  0.00  0.00    +0.001 C 
ATOM     27  C   UNL     1      36.244 -18.868 -22.609  0.00  0.00    -0.001 C 
ATOM     28  C   UNL     1      35.963 -17.772 -20.516  0.00  0.00    +0.094 C 
ATOM     29  C   UNL     1      35.497 -17.857 -23.204  0.00  0.00    +0.014 C 
ATOM     30  C   UNL     1      35.020 -16.840 -22.393  0.00  0.00    +0.059 C 
ATOM     31  C   UNL     1      34.214 -15.737 -22.997  0.00  0.00    +0.052 C 
ENDBRANCH  24  26
ENDBRANCH  10  24
TORSDOF 4
ENDMDL
