MODEL 1
REMARK VINA RESULT:     -12.4      0.000      0.000
REMARK  Name = 9808844
REMARK  5 active torsions:
REMARK  status: ('A' for Active; 'I' for Inactive)
REMARK    1  A    between atoms: N_2  and  C_13
REMARK    2  A    between atoms: C_8  and  O_19
REMARK    3  A    between atoms: O_19  and  C_20
REMARK    4  A    between atoms: C_20  and  C_22
REMARK    5  A    between atoms: C_25  and  C_29
REMARK                            x       y       z     vdW  Elec       q    Type
REMARK                         _______ _______ _______ _____ _____    ______ ____
ROOT
ATOM      1  O   UNL     1      35.425 -22.927 -16.950  0.00  0.00    -0.446 OA
ATOM      2  N   UNL     1      35.784 -19.858 -20.484  0.00  0.00    -0.296 N 
ATOM      3  N   UNL     1      33.697 -20.921 -20.010  0.00  0.00    -0.130 NA
ATOM      4  N   UNL     1      32.898 -21.790 -19.276  0.00  0.00    -0.106 NA
ATOM      5  C   UNL     1      35.556 -21.456 -18.659  0.00  0.00    +0.076 A 
ATOM      6  C   UNL     1      34.729 -22.315 -17.948  0.00  0.00    +0.202 A 
ATOM      7  C   UNL     1      35.006 -20.745 -19.720  0.00  0.00    +0.157 A 
ATOM      8  C   UNL     1      33.394 -22.496 -18.241  0.00  0.00    +0.279 A 
ATOM      9  C   UNL     1      36.834 -21.558 -18.049  0.00  0.00    +0.047 C 
ATOM     10  C   UNL     1      36.700 -22.461 -17.019  0.00  0.00    +0.180 C 
ATOM     11  H   UNL     1      36.722 -19.803 -20.192  0.00  0.00    +0.154 HD
ENDROOT
BRANCH   2  13
ATOM     12 CL   UNL     1      34.541 -16.381 -25.113  0.00  0.00    -0.082 Cl
ATOM     13  C   UNL     1      35.487 -19.029 -21.588  0.00  0.00    +0.049 C 
ATOM     14  C   UNL     1      35.124 -19.597 -22.808  0.00  0.00    +0.016 C 
ATOM     15  C   UNL     1      35.558 -17.642 -21.457  0.00  0.00    +0.016 C 
ATOM     16  C   UNL     1      34.831 -18.779 -23.898  0.00  0.00    +0.013 C 
ATOM     17  C   UNL     1      35.265 -16.824 -22.547  0.00  0.00    +0.013 C 
ATOM     18  C   UNL     1      34.901 -17.392 -23.767  0.00  0.00    +0.058 C 
ENDBRANCH   2  13
BRANCH   8  19
ATOM     19  O   UNL     1      32.571 -23.341 -17.545  0.00  0.00    -0.452 OA
BRANCH  19  20
ATOM     20  C   UNL     1      31.770 -22.758 -16.524  0.00  0.00    +0.234 C 
BRANCH  20  22
ATOM     21  N   UNL     1      32.259 -25.008 -12.909  0.00  0.00    -0.239 NA
ATOM     22  C   UNL     1      31.942 -23.546 -15.258  0.00  0.00    +0.024 C 
ATOM     23  C   UNL     1      33.142 -23.488 -14.568  0.00  0.00    +0.023 C 
ATOM     24  C   UNL     1      30.898 -24.327 -14.787  0.00  0.00    +0.020 C 
ATOM     25  C   UNL     1      33.249 -24.233 -13.405  0.00  0.00    +0.134 C 
ATOM     26  C   UNL     1      31.107 -25.035 -13.614  0.00  0.00    +0.099 C 
BRANCH  25  29
ATOM     27  O   UNL     1      34.602 -24.922 -11.617  0.00  0.00    -0.268 OA
ATOM     28  N   UNL     1      35.514 -23.395 -13.104  0.00  0.00    -0.298 N 
ATOM     29  C   UNL     1      34.481 -24.215 -12.635  0.00  0.00    +0.264 C 
ATOM     30  C   UNL     1      36.805 -23.287 -12.463  0.00  0.00    +0.111 C 
ATOM     31  H   UNL     1      35.353 -22.862 -13.916  0.00  0.00    +0.150 HD
ENDBRANCH  25  29
ENDBRANCH  20  22
ENDBRANCH  19  20
ENDBRANCH   8  19
TORSDOF 5
ENDMDL
MODEL 2
REMARK VINA RESULT:     -11.7      7.544     12.043
REMARK  Name = 9808844
REMARK  5 active torsions:
REMARK  status: ('A' for Active; 'I' for Inactive)
REMARK    1  A    between atoms: N_2  and  C_13
REMARK    2  A    between atoms: C_8  and  O_19
REMARK    3  A    between atoms: O_19  and  C_20
REMARK    4  A    between atoms: C_20  and  C_22
REMARK    5  A    between atoms: C_25  and  C_29
REMARK                            x       y       z     vdW  Elec       q    Type
REMARK                         _______ _______ _______ _____ _____    ______ ____
ROOT
ATOM      1  O   UNL     1      33.525 -13.892 -24.963  0.00  0.00    -0.446 OA
ATOM      2  N   UNL     1      35.096 -17.759 -22.815  0.00  0.00    -0.296 N 
ATOM      3  N   UNL     1      34.463 -15.838 -21.542  0.00  0.00    -0.130 NA
ATOM      4  N   UNL     1      33.987 -14.537 -21.433  0.00  0.00    -0.106 NA
ATOM      5  C   UNL     1      34.275 -15.733 -23.891  0.00  0.00    +0.076 A 
ATOM      6  C   UNL     1      33.803 -14.436 -23.746  0.00  0.00    +0.202 A 
ATOM      7  C   UNL     1      34.611 -16.442 -22.743  0.00  0.00    +0.157 A 
ATOM      8  C   UNL     1      33.652 -13.819 -22.523  0.00  0.00    +0.279 A 
ATOM      9  C   UNL     1      34.281 -15.986 -25.288  0.00  0.00    +0.047 C 
ATOM     10  C   UNL     1      33.817 -14.840 -25.892  0.00  0.00    +0.180 C 
ATOM     11  H   UNL     1      35.165 -18.104 -23.734  0.00  0.00    +0.154 HD
ENDROOT
BRANCH   2  13
ATOM     12 CL   UNL     1      36.796 -21.650 -18.688  0.00  0.00    -0.082 Cl
ATOM     13  C   UNL     1      35.501 -18.687 -21.831  0.00  0.00    +0.049 C 
ATOM     14  C   UNL     1      36.813 -18.674 -21.360  0.00  0.00    +0.016 C 
ATOM     15  C   UNL     1      34.588 -19.615 -21.330  0.00  0.00    +0.016 C 
ATOM     16  C   UNL     1      37.214 -19.590 -20.388  0.00  0.00    +0.013 C 
ATOM     17  C   UNL     1      34.989 -20.532 -20.358  0.00  0.00    +0.013 C 
ATOM     18  C   UNL     1      36.301 -20.519 -19.887  0.00  0.00    +0.058 C 
ENDBRANCH   2  13
BRANCH   8  19
ATOM     19  O   UNL     1      33.187 -12.539 -22.369  0.00  0.00    -0.452 OA
BRANCH  19  20
ATOM     20  C   UNL     1      31.896 -12.391 -21.790  0.00  0.00    +0.234 C 
BRANCH  20  22
ATOM     21  N   UNL     1      31.908  -8.973 -19.203  0.00  0.00    -0.239 NA
ATOM     22  C   UNL     1      31.901 -11.193 -20.884  0.00  0.00    +0.024 C 
ATOM     23  C   UNL     1      31.914  -9.920 -21.427  0.00  0.00    +0.023 C 
ATOM     24  C   UNL     1      31.892 -11.371 -19.509  0.00  0.00    +0.020 C 
ATOM     25  C   UNL     1      31.916  -8.848 -20.548  0.00  0.00    +0.134 C 
ATOM     26  C   UNL     1      31.897 -10.235 -18.717  0.00  0.00    +0.099 C 
BRANCH  25  29
ATOM     27  O   UNL     1      32.544  -6.591 -20.446  0.00  0.00    -0.268 OA
ATOM     28  N   UNL     1      31.244  -7.245 -22.251  0.00  0.00    -0.298 N 
ATOM     29  C   UNL     1      31.929  -7.486 -21.053  0.00  0.00    +0.264 C 
ATOM     30  C   UNL     1      31.185  -5.950 -22.891  0.00  0.00    +0.111 C 
ATOM     31  H   UNL     1      30.778  -7.998 -22.680  0.00  0.00    +0.150 HD
ENDBRANCH  25  29
ENDBRANCH  20  22
ENDBRANCH  19  20
ENDBRANCH   8  19
TORSDOF 5
ENDMDL
MODEL 3
REMARK VINA RESULT:     -11.6      2.314      3.813
REMARK  Name = 9808844
REMARK  5 active torsions:
REMARK  status: ('A' for Active; 'I' for Inactive)
REMARK    1  A    between atoms: N_2  and  C_13
REMARK    2  A    between atoms: C_8  and  O_19
REMARK    3  A    between atoms: O_19  and  C_20
REMARK    4  A    between atoms: C_20  and  C_22
REMARK    5  A    between atoms: C_25  and  C_29
REMARK                            x       y       z     vdW  Elec       q    Type
REMARK                         _______ _______ _______ _____ _____    ______ ____
ROOT
ATOM      1  O   UNL     1      35.580 -22.376 -17.979  0.00  0.00    -0.446 OA
ATOM      2  N   UNL     1      35.669 -19.137 -21.376  0.00  0.00    -0.296 N 
ATOM      3  N   UNL     1      33.603 -20.137 -20.708  0.00  0.00    -0.130 NA
ATOM      4  N   UNL     1      32.855 -21.010 -19.928  0.00  0.00    -0.106 NA
ATOM      5  C   UNL     1      35.580 -20.821 -19.617  0.00  0.00    +0.076 A 
ATOM      6  C   UNL     1      34.802 -21.682 -18.855  0.00  0.00    +0.202 A 
ATOM      7  C   UNL     1      34.945 -20.031 -20.569  0.00  0.00    +0.157 A 
ATOM      8  C   UNL     1      33.435 -21.791 -18.996  0.00  0.00    +0.279 A 
ATOM      9  C   UNL     1      36.914 -21.010 -19.170  0.00  0.00    +0.047 C 
ATOM     10  C   UNL     1      36.859 -21.961 -18.177  0.00  0.00    +0.180 C 
ATOM     11  H   UNL     1      36.636 -19.138 -21.195  0.00  0.00    +0.154 HD
ENDROOT
BRANCH   2  13
ATOM     12 CL   UNL     1      34.059 -15.365 -25.646  0.00  0.00    -0.082 Cl
ATOM     13  C   UNL     1      35.285 -18.238 -22.394  0.00  0.00    +0.049 C 
ATOM     14  C   UNL     1      35.232 -16.869 -22.131  0.00  0.00    +0.016 C 
ATOM     15  C   UNL     1      34.959 -18.718 -23.662  0.00  0.00    +0.016 C 
ATOM     16  C   UNL     1      34.853 -15.981 -23.137  0.00  0.00    +0.013 C 
ATOM     17  C   UNL     1      34.580 -17.830 -24.668  0.00  0.00    +0.013 C 
ATOM     18  C   UNL     1      34.528 -16.461 -24.405  0.00  0.00    +0.058 C 
ENDBRANCH   2  13
BRANCH   8  19
ATOM     19  O   UNL     1      32.659 -22.638 -18.249  0.00  0.00    -0.452 OA
BRANCH  19  20
ATOM     20  C   UNL     1      33.120 -22.939 -16.937  0.00  0.00    +0.234 C 
BRANCH  20  22
ATOM     21  N   UNL     1      29.754 -23.861 -14.448  0.00  0.00    -0.239 NA
ATOM     22  C   UNL     1      31.941 -23.262 -16.066  0.00  0.00    +0.024 C 
ATOM     23  C   UNL     1      30.657 -23.046 -16.537  0.00  0.00    +0.023 C 
ATOM     24  C   UNL     1      32.145 -23.773 -14.793  0.00  0.00    +0.020 C 
ATOM     25  C   UNL     1      29.603 -23.361 -15.695  0.00  0.00    +0.134 C 
ATOM     26  C   UNL     1      31.024 -24.055 -14.029  0.00  0.00    +0.099 C 
BRANCH  25  29
ATOM     27  O   UNL     1      27.798 -23.732 -17.146  0.00  0.00    -0.268 OA
ATOM     28  N   UNL     1      27.432 -22.319 -15.344  0.00  0.00    -0.298 N 
ATOM     29  C   UNL     1      28.232 -23.159 -16.129  0.00  0.00    +0.264 C 
ATOM     30  C   UNL     1      26.043 -22.039 -15.632  0.00  0.00    +0.111 C 
ATOM     31  H   UNL     1      27.837 -21.898 -14.553  0.00  0.00    +0.150 HD
ENDBRANCH  25  29
ENDBRANCH  20  22
ENDBRANCH  19  20
ENDBRANCH   8  19
TORSDOF 5
ENDMDL
MODEL 4
REMARK VINA RESULT:     -11.3      1.277      1.537
REMARK  Name = 9808844
REMARK  5 active torsions:
REMARK  status: ('A' for Active; 'I' for Inactive)
REMARK    1  A    between atoms: N_2  and  C_13
REMARK    2  A    between atoms: C_8  and  O_19
REMARK    3  A    between atoms: O_19  and  C_20
REMARK    4  A    between atoms: C_20  and  C_22
REMARK    5  A    between atoms: C_25  and  C_29
REMARK                            x       y       z     vdW  Elec       q    Type
REMARK                         _______ _______ _______ _____ _____    ______ ____
ROOT
ATOM      1  O   UNL     1      35.609 -22.220 -18.242  0.00  0.00    -0.446 OA
ATOM      2  N   UNL     1      35.621 -18.865 -21.526  0.00  0.00    -0.296 N 
ATOM      3  N   UNL     1      33.563 -19.822 -20.779  0.00  0.00    -0.130 NA
ATOM      4  N   UNL     1      32.830 -20.699 -19.988  0.00  0.00    -0.106 NA
ATOM      5  C   UNL     1      35.572 -20.608 -19.823  0.00  0.00    +0.076 A 
ATOM      6  C   UNL     1      34.808 -21.471 -19.049  0.00  0.00    +0.202 A 
ATOM      7  C   UNL     1      34.912 -19.764 -20.711  0.00  0.00    +0.157 A 
ATOM      8  C   UNL     1      33.433 -21.531 -19.117  0.00  0.00    +0.279 A 
ATOM      9  C   UNL     1      36.921 -20.855 -19.457  0.00  0.00    +0.047 C 
ATOM     10  C   UNL     1      36.888 -21.839 -18.496  0.00  0.00    +0.180 C 
ATOM     11  H   UNL     1      36.597 -18.903 -21.399  0.00  0.00    +0.154 HD
ENDROOT
BRANCH   2  13
ATOM     12 CL   UNL     1      33.910 -14.892 -25.569  0.00  0.00    -0.082 Cl
ATOM     13  C   UNL     1      35.213 -17.918 -22.490  0.00  0.00    +0.049 C 
ATOM     14  C   UNL     1      35.054 -18.303 -23.820  0.00  0.00    +0.016 C 
ATOM     15  C   UNL     1      34.969 -16.598 -22.110  0.00  0.00    +0.016 C 
ATOM     16  C   UNL     1      34.651 -17.367 -24.773  0.00  0.00    +0.013 C 
ATOM     17  C   UNL     1      34.566 -15.663 -23.062  0.00  0.00    +0.013 C 
ATOM     18  C   UNL     1      34.407 -16.047 -24.393  0.00  0.00    +0.058 C 
ENDBRANCH   2  13
BRANCH   8  19
ATOM     19  O   UNL     1      32.671 -22.379 -18.358  0.00  0.00    -0.452 OA
BRANCH  19  20
ATOM     20  C   UNL     1      33.351 -23.455 -17.721  0.00  0.00    +0.234 C 
BRANCH  20  22
ATOM     21  N   UNL     1      32.397 -23.432 -13.543  0.00  0.00    -0.239 NA
ATOM     22  C   UNL     1      33.018 -23.448 -16.258  0.00  0.00    +0.024 C 
ATOM     23  C   UNL     1      33.962 -23.863 -15.334  0.00  0.00    +0.023 C 
ATOM     24  C   UNL     1      31.765 -23.025 -15.840  0.00  0.00    +0.020 C 
ATOM     25  C   UNL     1      33.604 -23.837 -13.995  0.00  0.00    +0.134 C 
ATOM     26  C   UNL     1      31.506 -23.036 -14.479  0.00  0.00    +0.099 C 
BRANCH  25  29
ATOM     27  O   UNL     1      34.396 -23.916 -11.789  0.00  0.00    -0.268 OA
ATOM     28  N   UNL     1      35.607 -25.078 -13.389  0.00  0.00    -0.298 N 
ATOM     29  C   UNL     1      34.549 -24.259 -12.976  0.00  0.00    +0.264 C 
ATOM     30  C   UNL     1      36.613 -25.599 -12.491  0.00  0.00    +0.111 C 
ATOM     31  H   UNL     1      35.669 -25.313 -14.342  0.00  0.00    +0.150 HD
ENDBRANCH  25  29
ENDBRANCH  20  22
ENDBRANCH  19  20
ENDBRANCH   8  19
TORSDOF 5
ENDMDL
MODEL 5
REMARK VINA RESULT:     -11.2      7.926     11.579
REMARK  Name = 9808844
REMARK  5 active torsions:
REMARK  status: ('A' for Active; 'I' for Inactive)
REMARK    1  A    between atoms: N_2  and  C_13
REMARK    2  A    between atoms: C_8  and  O_19
REMARK    3  A    between atoms: O_19  and  C_20
REMARK    4  A    between atoms: C_20  and  C_22
REMARK    5  A    between atoms: C_25  and  C_29
REMARK                            x       y       z     vdW  Elec       q    Type
REMARK                         _______ _______ _______ _____ _____    ______ ____
ROOT
ATOM      1  O   UNL     1      31.361 -11.895 -19.574  0.00  0.00    -0.446 OA
ATOM      2  N   UNL     1      32.713  -8.130 -22.030  0.00  0.00    -0.296 N 
ATOM      3  N   UNL     1      33.055 -10.330 -22.898  0.00  0.00    -0.130 NA
ATOM      4  N   UNL     1      32.960 -11.714 -22.813  0.00  0.00    -0.106 NA
ATOM      5  C   UNL     1      32.025 -10.109 -20.786  0.00  0.00    +0.076 A 
ATOM      6  C   UNL     1      31.947 -11.494 -20.736  0.00  0.00    +0.202 A 
ATOM      7  C   UNL     1      32.601  -9.526 -21.910  0.00  0.00    +0.157 A 
ATOM      8  C   UNL     1      32.410 -12.316 -21.741  0.00  0.00    +0.279 A 
ATOM      9  C   UNL     1      31.448  -9.646 -19.575  0.00  0.00    +0.047 C 
ATOM     10  C   UNL     1      31.061 -10.767 -18.877  0.00  0.00    +0.180 C 
ATOM     11  H   UNL     1      32.353  -7.637 -21.257  0.00  0.00    +0.154 HD
ENDROOT
BRANCH   2  13
ATOM     12 CL   UNL     1      34.922  -4.619 -26.256  0.00  0.00    -0.082 Cl
ATOM     13  C   UNL     1      33.240  -7.293 -23.037  0.00  0.00    +0.049 C 
ATOM     14  C   UNL     1      34.620  -7.189 -23.205  0.00  0.00    +0.016 C 
ATOM     15  C   UNL     1      32.379  -6.572 -23.864  0.00  0.00    +0.016 C 
ATOM     16  C   UNL     1      35.140  -6.362 -24.201  0.00  0.00    +0.013 C 
ATOM     17  C   UNL     1      32.899  -5.745 -24.860  0.00  0.00    +0.013 C 
ATOM     18  C   UNL     1      34.280  -5.641 -25.028  0.00  0.00    +0.058 C 
ENDBRANCH   2  13
BRANCH   8  19
ATOM     19  O   UNL     1      32.337 -13.683 -21.700  0.00  0.00    -0.452 OA
BRANCH  19  20
ATOM     20  C   UNL     1      33.311 -14.352 -20.906  0.00  0.00    +0.234 C 
BRANCH  20  22
ATOM     21  N   UNL     1      35.366 -17.218 -23.343  0.00  0.00    -0.239 NA
ATOM     22  C   UNL     1      34.031 -15.356 -21.759  0.00  0.00    +0.024 C 
ATOM     23  C   UNL     1      34.646 -16.447 -21.168  0.00  0.00    +0.023 C 
ATOM     24  C   UNL     1      34.076 -15.184 -23.134  0.00  0.00    +0.020 C 
ATOM     25  C   UNL     1      35.297 -17.345 -21.999  0.00  0.00    +0.134 C 
ATOM     26  C   UNL     1      34.753 -16.138 -23.877  0.00  0.00    +0.099 C 
BRANCH  25  29
ATOM     27  O   UNL     1      37.190 -18.660 -21.569  0.00  0.00    -0.268 OA
ATOM     28  N   UNL     1      35.163 -19.427 -20.747  0.00  0.00    -0.298 N 
ATOM     29  C   UNL     1      35.961 -18.510 -21.442  0.00  0.00    +0.264 C 
ATOM     30  C   UNL     1      35.679 -20.621 -20.117  0.00  0.00    +0.111 C 
ATOM     31  H   UNL     1      34.197 -19.248 -20.684  0.00  0.00    +0.150 HD
ENDBRANCH  25  29
ENDBRANCH  20  22
ENDBRANCH  19  20
ENDBRANCH   8  19
TORSDOF 5
ENDMDL
MODEL 6
REMARK VINA RESULT:     -11.2      2.393      4.003
REMARK  Name = 9808844
REMARK  5 active torsions:
REMARK  status: ('A' for Active; 'I' for Inactive)
REMARK    1  A    between atoms: N_2  and  C_13
REMARK    2  A    between atoms: C_8  and  O_19
REMARK    3  A    between atoms: O_19  and  C_20
REMARK    4  A    between atoms: C_20  and  C_22
REMARK    5  A    between atoms: C_25  and  C_29
REMARK                            x       y       z     vdW  Elec       q    Type
REMARK                         _______ _______ _______ _____ _____    ______ ____
ROOT
ATOM      1  O   UNL     1      36.353 -23.320 -15.502  0.00  0.00    -0.446 OA
ATOM      2  N   UNL     1      36.513 -20.627 -19.345  0.00  0.00    -0.296 N 
ATOM      3  N   UNL     1      34.483 -21.720 -18.714  0.00  0.00    -0.130 NA
ATOM      4  N   UNL     1      33.737 -22.538 -17.875  0.00  0.00    -0.106 NA
ATOM      5  C   UNL     1      36.389 -22.033 -17.358  0.00  0.00    +0.076 A 
ATOM      6  C   UNL     1      35.613 -22.845 -16.542  0.00  0.00    +0.202 A 
ATOM      7  C   UNL     1      35.789 -21.460 -18.474  0.00  0.00    +0.157 A 
ATOM      8  C   UNL     1      34.282 -23.111 -16.784  0.00  0.00    +0.279 A 
ATOM      9  C   UNL     1      37.681 -22.018 -16.770  0.00  0.00    +0.047 C 
ATOM     10  C   UNL     1      37.605 -22.812 -15.648  0.00  0.00    +0.180 C 
ATOM     11  H   UNL     1      37.453 -20.504 -19.080  0.00  0.00    +0.154 HD
ENDROOT
BRANCH   2  13
ATOM     12 CL   UNL     1      35.035 -17.710 -24.280  0.00  0.00    -0.082 Cl
ATOM     13  C   UNL     1      36.161 -19.932 -20.521  0.00  0.00    +0.049 C 
ATOM     14  C   UNL     1      37.059 -19.033 -21.095  0.00  0.00    +0.016 C 
ATOM     15  C   UNL     1      34.914 -20.145 -21.110  0.00  0.00    +0.016 C 
ATOM     16  C   UNL     1      36.711 -18.346 -22.257  0.00  0.00    +0.013 C 
ATOM     17  C   UNL     1      34.566 -19.458 -22.272  0.00  0.00    +0.013 C 
ATOM     18  C   UNL     1      35.465 -18.559 -22.846  0.00  0.00    +0.058 C 
ENDBRANCH   2  13
BRANCH   8  19
ATOM     19  O   UNL     1      33.509 -23.912 -15.985  0.00  0.00    -0.452 OA
BRANCH  19  20
ATOM     20  C   UNL     1      32.767 -23.265 -14.957  0.00  0.00    +0.234 C 
BRANCH  20  22
ATOM     21  N   UNL     1      28.846 -24.987 -14.771  0.00  0.00    -0.239 NA
ATOM     22  C   UNL     1      31.394 -23.868 -14.893  0.00  0.00    +0.024 C 
ATOM     23  C   UNL     1      30.396 -23.399 -15.730  0.00  0.00    +0.023 C 
ATOM     24  C   UNL     1      31.133 -24.890 -13.993  0.00  0.00    +0.020 C 
ATOM     25  C   UNL     1      29.146 -23.989 -15.632  0.00  0.00    +0.134 C 
ATOM     26  C   UNL     1      29.850 -25.413 -13.972  0.00  0.00    +0.099 C 
BRANCH  25  29
ATOM     27  O   UNL     1      27.585 -24.297 -17.355  0.00  0.00    -0.268 OA
ATOM     28  N   UNL     1      27.557 -22.255 -16.256  0.00  0.00    -0.298 N 
ATOM     29  C   UNL     1      28.056 -23.544 -16.482  0.00  0.00    +0.264 C 
ATOM     30  C   UNL     1      26.461 -21.679 -17.002  0.00  0.00    +0.111 C 
ATOM     31  H   UNL     1      27.974 -21.712 -15.549  0.00  0.00    +0.150 HD
ENDBRANCH  25  29
ENDBRANCH  20  22
ENDBRANCH  19  20
ENDBRANCH   8  19
TORSDOF 5
ENDMDL
MODEL 7
REMARK VINA RESULT:     -11.0      7.835     13.095
REMARK  Name = 9808844
REMARK  5 active torsions:
REMARK  status: ('A' for Active; 'I' for Inactive)
REMARK    1  A    between atoms: N_2  and  C_13
REMARK    2  A    between atoms: C_8  and  O_19
REMARK    3  A    between atoms: O_19  and  C_20
REMARK    4  A    between atoms: C_20  and  C_22
REMARK    5  A    between atoms: C_25  and  C_29
REMARK                            x       y       z     vdW  Elec       q    Type
REMARK                         _______ _______ _______ _____ _____    ______ ____
ROOT
ATOM      1  O   UNL     1      33.488 -13.604 -25.415  0.00  0.00    -0.446 OA
ATOM      2  N   UNL     1      34.917 -17.480 -23.185  0.00  0.00    -0.296 N 
ATOM      3  N   UNL     1      34.730 -15.407 -22.012  0.00  0.00    -0.130 NA
ATOM      4  N   UNL     1      34.434 -14.050 -21.952  0.00  0.00    -0.106 NA
ATOM      5  C   UNL     1      34.179 -15.446 -24.306  0.00  0.00    +0.076 A 
ATOM      6  C   UNL     1      33.893 -14.091 -24.210  0.00  0.00    +0.202 A 
ATOM      7  C   UNL     1      34.610 -16.109 -23.161  0.00  0.00    +0.157 A 
ATOM      8  C   UNL     1      34.014 -13.374 -23.039  0.00  0.00    +0.279 A 
ATOM      9  C   UNL     1      33.929 -15.797 -25.659  0.00  0.00    +0.047 C 
ATOM     10  C   UNL     1      33.512 -14.646 -26.287  0.00  0.00    +0.180 C 
ATOM     11  H   UNL     1      34.797 -17.896 -24.069  0.00  0.00    +0.154 HD
ENDROOT
BRANCH   2  13
ATOM     12 CL   UNL     1      36.790 -21.255 -19.026  0.00  0.00    -0.082 Cl
ATOM     13  C   UNL     1      35.364 -18.380 -22.193  0.00  0.00    +0.049 C 
ATOM     14  C   UNL     1      36.694 -18.353 -21.776  0.00  0.00    +0.016 C 
ATOM     15  C   UNL     1      34.474 -19.295 -21.631  0.00  0.00    +0.016 C 
ATOM     16  C   UNL     1      37.135 -19.242 -20.796  0.00  0.00    +0.013 C 
ATOM     17  C   UNL     1      34.915 -20.184 -20.651  0.00  0.00    +0.013 C 
ATOM     18  C   UNL     1      36.245 -20.157 -20.234  0.00  0.00    +0.058 C 
ENDBRANCH   2  13
BRANCH   8  19
ATOM     19  O   UNL     1      33.735 -12.036 -22.934  0.00  0.00    -0.452 OA
BRANCH  19  20
ATOM     20  C   UNL     1      34.114 -11.215 -24.033  0.00  0.00    +0.234 C 
BRANCH  20  22
ATOM     21  N   UNL     1      34.260  -7.131 -22.742  0.00  0.00    -0.239 NA
ATOM     22  C   UNL     1      34.164  -9.785 -23.581  0.00  0.00    +0.024 C 
ATOM     23  C   UNL     1      33.130  -9.266 -22.820  0.00  0.00    +0.023 C 
ATOM     24  C   UNL     1      35.247  -8.991 -23.928  0.00  0.00    +0.020 C 
ATOM     25  C   UNL     1      33.224  -7.941 -22.428  0.00  0.00    +0.134 C 
ATOM     26  C   UNL     1      35.246  -7.678 -23.487  0.00  0.00    +0.099 C 
BRANCH  25  29
ATOM     27  O   UNL     1      31.886  -7.796 -20.507  0.00  0.00    -0.268 OA
ATOM     28  N   UNL     1      31.529  -6.215 -22.165  0.00  0.00    -0.298 N 
ATOM     29  C   UNL     1      32.173  -7.337 -21.628  0.00  0.00    +0.264 C 
ATOM     30  C   UNL     1      30.481  -5.491 -21.482  0.00  0.00    +0.111 C 
ATOM     31  H   UNL     1      31.805  -5.903 -23.056  0.00  0.00    +0.150 HD
ENDBRANCH  25  29
ENDBRANCH  20  22
ENDBRANCH  19  20
ENDBRANCH   8  19
TORSDOF 5
ENDMDL
MODEL 8
REMARK VINA RESULT:     -10.8      5.499      8.970
REMARK  Name = 9808844
REMARK  5 active torsions:
REMARK  status: ('A' for Active; 'I' for Inactive)
REMARK    1  A    between atoms: N_2  and  C_13
REMARK    2  A    between atoms: C_8  and  O_19
REMARK    3  A    between atoms: O_19  and  C_20
REMARK    4  A    between atoms: C_20  and  C_22
REMARK    5  A    between atoms: C_25  and  C_29
REMARK                            x       y       z     vdW  Elec       q    Type
REMARK                         _______ _______ _______ _____ _____    ______ ____
ROOT
ATOM      1  O   UNL     1      34.262 -16.034 -25.427  0.00  0.00    -0.446 OA
ATOM      2  N   UNL     1      32.679 -12.208 -23.213  0.00  0.00    -0.296 N 
ATOM      3  N   UNL     1      34.059 -13.787 -22.068  0.00  0.00    -0.130 NA
ATOM      4  N   UNL     1      34.803 -14.960 -22.014  0.00  0.00    -0.106 NA
ATOM      5  C   UNL     1      33.521 -14.206 -24.327  0.00  0.00    +0.076 A 
ATOM      6  C   UNL     1      34.272 -15.370 -24.238  0.00  0.00    +0.202 A 
ATOM      7  C   UNL     1      33.422 -13.401 -23.196  0.00  0.00    +0.157 A 
ATOM      8  C   UNL     1      34.922 -15.766 -23.088  0.00  0.00    +0.279 A 
ATOM      9  C   UNL     1      33.027 -14.167 -25.657  0.00  0.00    +0.047 C 
ATOM     10  C   UNL     1      33.506 -15.296 -26.281  0.00  0.00    +0.180 C 
ATOM     11  H   UNL     1      32.256 -12.020 -24.082  0.00  0.00    +0.154 HD
ENDROOT
BRANCH   2  13
ATOM     12 CL   UNL     1      31.589  -8.089 -19.103  0.00  0.00    -0.082 Cl
ATOM     13  C   UNL     1      32.420 -11.226 -22.234  0.00  0.00    +0.049 C 
ATOM     14  C   UNL     1      31.881 -11.596 -21.002  0.00  0.00    +0.016 C 
ATOM     15  C   UNL     1      32.702  -9.886 -22.498  0.00  0.00    +0.016 C 
ATOM     16  C   UNL     1      31.624 -10.626 -20.034  0.00  0.00    +0.013 C 
ATOM     17  C   UNL     1      32.446  -8.916 -21.529  0.00  0.00    +0.013 C 
ATOM     18  C   UNL     1      31.907  -9.286 -20.298  0.00  0.00    +0.058 C 
ENDBRANCH   2  13
BRANCH   8  19
ATOM     19  O   UNL     1      35.664 -16.913 -22.991  0.00  0.00    -0.452 OA
BRANCH  19  20
ATOM     20  C   UNL     1      34.950 -18.143 -23.038  0.00  0.00    +0.234 C 
BRANCH  20  22
ATOM     21  N   UNL     1      36.094 -20.550 -19.680  0.00  0.00    -0.239 NA
ATOM     22  C   UNL     1      35.350 -18.986 -21.862  0.00  0.00    +0.024 C 
ATOM     23  C   UNL     1      34.400 -19.756 -21.211  0.00  0.00    +0.023 C 
ATOM     24  C   UNL     1      36.669 -18.989 -21.434  0.00  0.00    +0.020 C 
ATOM     25  C   UNL     1      34.821 -20.516 -20.132  0.00  0.00    +0.134 C 
ATOM     26  C   UNL     1      36.988 -19.783 -20.345  0.00  0.00    +0.099 C 
BRANCH  25  29
ATOM     27  O   UNL     1      32.649 -21.185 -19.554  0.00  0.00    -0.268 OA
ATOM     28  N   UNL     1      34.405 -22.333 -18.567  0.00  0.00    -0.298 N 
ATOM     29  C   UNL     1      33.874 -21.346 -19.407  0.00  0.00    +0.264 C 
ATOM     30  C   UNL     1      33.594 -23.251 -17.799  0.00  0.00    +0.111 C 
ATOM     31  H   UNL     1      35.384 -22.407 -18.497  0.00  0.00    +0.150 HD
ENDBRANCH  25  29
ENDBRANCH  20  22
ENDBRANCH  19  20
ENDBRANCH   8  19
TORSDOF 5
ENDMDL
MODEL 9
REMARK VINA RESULT:     -10.7      6.934     10.499
REMARK  Name = 9808844
REMARK  5 active torsions:
REMARK  status: ('A' for Active; 'I' for Inactive)
REMARK    1  A    between atoms: N_2  and  C_13
REMARK    2  A    between atoms: C_8  and  O_19
REMARK    3  A    between atoms: O_19  and  C_20
REMARK    4  A    between atoms: C_20  and  C_22
REMARK    5  A    between atoms: C_25  and  C_29
REMARK                            x       y       z     vdW  Elec       q    Type
REMARK                         _______ _______ _______ _____ _____    ______ ____
ROOT
ATOM      1  O   UNL     1      32.630 -14.343 -21.055  0.00  0.00    -0.446 OA
ATOM      2  N   UNL     1      32.492  -9.787 -22.179  0.00  0.00    -0.296 N 
ATOM      3  N   UNL     1      33.590 -11.355 -23.609  0.00  0.00    -0.130 NA
ATOM      4  N   UNL     1      34.002 -12.641 -23.938  0.00  0.00    -0.106 NA
ATOM      5  C   UNL     1      32.585 -12.159 -21.632  0.00  0.00    +0.076 A 
ATOM      6  C   UNL     1      33.012 -13.430 -21.991  0.00  0.00    +0.202 A 
ATOM      7  C   UNL     1      32.892 -11.100 -22.479  0.00  0.00    +0.157 A 
ATOM      8  C   UNL     1      33.724 -13.692 -23.142  0.00  0.00    +0.279 A 
ATOM      9  C   UNL     1      31.900 -12.317 -20.399  0.00  0.00    +0.047 C 
ATOM     10  C   UNL     1      31.955 -13.658 -20.094  0.00  0.00    +0.180 C 
ATOM     11  H   UNL     1      31.991  -9.710 -21.335  0.00  0.00    +0.154 HD
ENDROOT
BRANCH   2  13
ATOM     12 CL   UNL     1      33.215  -4.622 -24.982  0.00  0.00    -0.082 Cl
ATOM     13  C   UNL     1      32.664  -8.555 -22.847  0.00  0.00    +0.049 C 
ATOM     14  C   UNL     1      31.551  -7.840 -23.287  0.00  0.00    +0.016 C 
ATOM     15  C   UNL     1      33.948  -8.055 -23.066  0.00  0.00    +0.016 C 
ATOM     16  C   UNL     1      31.721  -6.623 -23.948  0.00  0.00    +0.013 C 
ATOM     17  C   UNL     1      34.118  -6.839 -23.726  0.00  0.00    +0.013 C 
ATOM     18  C   UNL     1      33.005  -6.123 -24.167  0.00  0.00    +0.058 C 
ENDBRANCH   2  13
BRANCH   8  19
ATOM     19  O   UNL     1      34.150 -14.943 -23.504  0.00  0.00    -0.452 OA
BRANCH  19  20
ATOM     20  C   UNL     1      35.151 -15.539 -22.688  0.00  0.00    +0.234 C 
BRANCH  20  22
ATOM     21  N   UNL     1      34.840 -19.804 -22.990  0.00  0.00    -0.239 NA
ATOM     22  C   UNL     1      35.042 -17.033 -22.793  0.00  0.00    +0.024 C 
ATOM     23  C   UNL     1      35.080 -17.809 -21.646  0.00  0.00    +0.023 C 
ATOM     24  C   UNL     1      34.906 -17.626 -24.038  0.00  0.00    +0.020 C 
ATOM     25  C   UNL     1      34.974 -19.182 -21.797  0.00  0.00    +0.134 C 
ATOM     26  C   UNL     1      34.809 -19.008 -24.082  0.00  0.00    +0.099 C 
BRANCH  25  29
ATOM     27  O   UNL     1      36.072 -20.256 -20.025  0.00  0.00    -0.268 OA
ATOM     28  N   UNL     1      33.791 -20.618 -20.230  0.00  0.00    -0.298 N 
ATOM     29  C   UNL     1      35.006 -20.052 -20.635  0.00  0.00    +0.264 C 
ATOM     30  C   UNL     1      33.655 -21.484 -19.080  0.00  0.00    +0.111 C 
ATOM     31  H   UNL     1      32.985 -20.415 -20.756  0.00  0.00    +0.150 HD
ENDBRANCH  25  29
ENDBRANCH  20  22
ENDBRANCH  19  20
ENDBRANCH   8  19
TORSDOF 5
ENDMDL
