MODEL 1
REMARK VINA RESULT:     -11.7      0.000      0.000
REMARK  Name = 60795
REMARK  7 active torsions:
REMARK  status: ('A' for Active; 'I' for Inactive)
REMARK    1  A    between atoms: C_1  and  N_2
REMARK    2  A    between atoms: C_1  and  C_17
REMARK    3  A    between atoms: N_3  and  C_11
REMARK    4  A    between atoms: C_17  and  C_18
REMARK    5  A    between atoms: C_18  and  C_19
REMARK    6  A    between atoms: C_19  and  O_20
REMARK    7  A    between atoms: O_20  and  C_26
REMARK                            x       y       z     vdW  Elec       q    Type
REMARK                         _______ _______ _______ _____ _____    ______ ____
ROOT
ATOM      1  C   UNL     1      31.493 -10.126 -19.498  0.00  0.00    -0.077 C 
ENDROOT
BRANCH   1   2
ATOM      2  N   UNL     1      32.308  -9.445 -20.502  0.00  0.00    +0.389 N 
ATOM      3  N   UNL     1      32.887  -7.484 -22.498  0.00  0.00    -0.311 N 
ATOM      4  C   UNL     1      31.664  -9.513 -21.820  0.00  0.00    -0.055 C 
ATOM      5  C   UNL     1      32.525  -8.043 -20.125  0.00  0.00    -0.055 C 
ATOM      6  C   UNL     1      32.534  -8.854 -22.892  0.00  0.00    +0.068 C 
ATOM      7  C   UNL     1      33.423  -7.332 -21.142  0.00  0.00    +0.068 C 
ATOM      8  H   UNL     1      33.211  -9.915 -20.552  0.00  0.00    -0.080 HD
BRANCH   3  11
ATOM      9 CL   UNL     1      30.953  -5.257 -23.101  0.00  0.00    -0.080 Cl
ATOM     10 CL   UNL     1      31.949  -3.273 -25.420  0.00  0.00    -0.081 Cl
ATOM     11  C   UNL     1      33.275  -6.590 -23.501  0.00  0.00    +0.059 C 
ATOM     12  C   UNL     1      32.477  -5.495 -23.899  0.00  0.00    +0.081 C 
ATOM     13  C   UNL     1      34.512  -6.772 -24.154  0.00  0.00    +0.015 C 
ATOM     14  C   UNL     1      32.897  -4.624 -24.905  0.00  0.00    +0.069 C 
ATOM     15  C   UNL     1      34.932  -5.902 -25.159  0.00  0.00    +0.002 C 
ATOM     16  C   UNL     1      34.125  -4.828 -25.535  0.00  0.00    +0.012 C 
ENDBRANCH   3  11
ENDBRANCH   1   2
BRANCH   1  17
ATOM     17  C   UNL     1      30.968 -11.450 -20.049  0.00  0.00    -0.019 C 
BRANCH  17  18
ATOM     18  C   UNL     1      32.075 -12.503 -20.108  0.00  0.00    +0.045 C 
BRANCH  18  19
ATOM     19  C   UNL     1      32.225 -13.084 -21.507  0.00  0.00    +0.205 C 
BRANCH  19  20
ATOM     20  O   UNL     1      33.607 -13.224 -21.828  0.00  0.00    -0.475 OA
BRANCH  20  26
ATOM     21  O   UNL     1      36.052 -19.720 -20.316  0.00  0.00    -0.275 OA
ATOM     22  N   UNL     1      35.311 -17.606 -20.822  0.00  0.00    -0.284 N 
ATOM     23  C   UNL     1      34.880 -16.966 -23.128  0.00  0.00    -0.008 C 
ATOM     24  C   UNL     1      35.442 -18.283 -23.580  0.00  0.00    +0.037 C 
ATOM     25  C   UNL     1      34.871 -16.657 -21.761  0.00  0.00    +0.049 C 
ATOM     26  C   UNL     1      34.024 -14.449 -22.251  0.00  0.00    +0.140 C 
ATOM     27  C   UNL     1      35.209 -19.360 -22.532  0.00  0.00    +0.090 C 
ATOM     28  C   UNL     1      34.453 -15.397 -21.322  0.00  0.00    +0.051 C 
ATOM     29  C   UNL     1      34.460 -16.003 -24.051  0.00  0.00    +0.000 C 
ATOM     30  C   UNL     1      34.025 -14.751 -23.612  0.00  0.00    +0.037 C 
ATOM     31  C   UNL     1      35.599 -18.920 -21.134  0.00  0.00    +0.226 C 
ATOM     32  H   UNL     1      35.420 -17.316 -19.887  0.00  0.00    +0.155 HD
ENDBRANCH  20  26
ENDBRANCH  19  20
ENDBRANCH  18  19
ENDBRANCH  17  18
ENDBRANCH   1  17
TORSDOF 7
ENDMDL
MODEL 2
REMARK VINA RESULT:     -11.6      1.255      1.785
REMARK  Name = 60795
REMARK  7 active torsions:
REMARK  status: ('A' for Active; 'I' for Inactive)
REMARK    1  A    between atoms: C_1  and  N_2
REMARK    2  A    between atoms: C_1  and  C_17
REMARK    3  A    between atoms: N_3  and  C_11
REMARK    4  A    between atoms: C_17  and  C_18
REMARK    5  A    between atoms: C_18  and  C_19
REMARK    6  A    between atoms: C_19  and  O_20
REMARK    7  A    between atoms: O_20  and  C_26
REMARK                            x       y       z     vdW  Elec       q    Type
REMARK                         _______ _______ _______ _____ _____    ______ ____
ROOT
ATOM      1  C   UNL     1      31.916 -10.265 -19.525  0.00  0.00    -0.077 C 
ENDROOT
BRANCH   1   2
ATOM      2  N   UNL     1      31.739  -9.119 -20.416  0.00  0.00    +0.389 N 
ATOM      3  N   UNL     1      32.504  -7.226 -22.415  0.00  0.00    -0.311 N 
ATOM      4  C   UNL     1      32.722  -8.072 -20.110  0.00  0.00    -0.055 C 
ATOM      5  C   UNL     1      31.869  -9.532 -21.818  0.00  0.00    -0.055 C 
ATOM      6  C   UNL     1      32.510  -6.844 -20.997  0.00  0.00    +0.068 C 
ATOM      7  C   UNL     1      31.631  -8.351 -22.764  0.00  0.00    +0.068 C 
ATOM      8  H   UNL     1      30.802  -8.744 -20.269  0.00  0.00    -0.080 HD
BRANCH   3  11
ATOM      9 CL   UNL     1      35.028  -7.585 -24.015  0.00  0.00    -0.080 Cl
ATOM     10 CL   UNL     1      35.542  -5.253 -26.159  0.00  0.00    -0.081 Cl
ATOM     11  C   UNL     1      32.773  -6.236 -23.365  0.00  0.00    +0.059 C 
ATOM     12  C   UNL     1      33.917  -6.263 -24.192  0.00  0.00    +0.081 C 
ATOM     13  C   UNL     1      31.876  -5.158 -23.519  0.00  0.00    +0.015 C 
ATOM     14  C   UNL     1      34.153  -5.255 -25.129  0.00  0.00    +0.069 C 
ATOM     15  C   UNL     1      32.112  -4.152 -24.456  0.00  0.00    +0.002 C 
ATOM     16  C   UNL     1      33.250  -4.201 -25.261  0.00  0.00    +0.012 C 
ENDBRANCH   3  11
ENDBRANCH   1   2
BRANCH   1  17
ATOM     17  C   UNL     1      31.213 -11.494 -20.096  0.00  0.00    -0.019 C 
BRANCH  17  18
ATOM     18  C   UNL     1      32.179 -12.671 -20.232  0.00  0.00    +0.045 C 
BRANCH  18  19
ATOM     19  C   UNL     1      32.378 -13.069 -21.688  0.00  0.00    +0.205 C 
BRANCH  19  20
ATOM     20  O   UNL     1      33.765 -13.278 -21.947  0.00  0.00    -0.475 OA
BRANCH  20  26
ATOM     21  O   UNL     1      35.910 -19.837 -20.266  0.00  0.00    -0.275 OA
ATOM     22  N   UNL     1      35.267 -17.705 -20.826  0.00  0.00    -0.284 N 
ATOM     23  C   UNL     1      34.914 -17.090 -23.153  0.00  0.00    -0.008 C 
ATOM     24  C   UNL     1      35.433 -18.437 -23.568  0.00  0.00    +0.037 C 
ATOM     25  C   UNL     1      34.887 -16.756 -21.792  0.00  0.00    +0.049 C 
ATOM     26  C   UNL     1      34.142 -14.526 -22.339  0.00  0.00    +0.140 C 
ATOM     27  C   UNL     1      35.133 -19.485 -22.508  0.00  0.00    +0.090 C 
ATOM     28  C   UNL     1      34.511 -15.473 -21.385  0.00  0.00    +0.051 C 
ATOM     29  C   UNL     1      34.555 -16.128 -24.102  0.00  0.00    +0.000 C 
ATOM     30  C   UNL     1      34.161 -14.853 -23.694  0.00  0.00    +0.037 C 
ATOM     31  C   UNL     1      35.508 -19.035 -21.109  0.00  0.00    +0.226 C 
ATOM     32  H   UNL     1      35.367 -17.402 -19.894  0.00  0.00    +0.155 HD
ENDBRANCH  20  26
ENDBRANCH  19  20
ENDBRANCH  18  19
ENDBRANCH  17  18
ENDBRANCH   1  17
TORSDOF 7
ENDMDL
MODEL 3
REMARK VINA RESULT:     -11.2      6.840     11.035
REMARK  Name = 60795
REMARK  7 active torsions:
REMARK  status: ('A' for Active; 'I' for Inactive)
REMARK    1  A    between atoms: C_1  and  N_2
REMARK    2  A    between atoms: C_1  and  C_17
REMARK    3  A    between atoms: N_3  and  C_11
REMARK    4  A    between atoms: C_17  and  C_18
REMARK    5  A    between atoms: C_18  and  C_19
REMARK    6  A    between atoms: C_19  and  O_20
REMARK    7  A    between atoms: O_20  and  C_26
REMARK                            x       y       z     vdW  Elec       q    Type
REMARK                         _______ _______ _______ _____ _____    ______ ____
ROOT
ATOM      1  C   UNL     1      36.672 -21.410 -19.479  0.00  0.00    -0.077 C 
ENDROOT
BRANCH   1   2
ATOM      2  N   UNL     1      36.181 -20.115 -19.947  0.00  0.00    +0.389 N 
ATOM      3  N   UNL     1      35.368 -18.179 -21.884  0.00  0.00    -0.311 N 
ATOM      4  C   UNL     1      37.174 -19.471 -20.816  0.00  0.00    -0.055 C 
ATOM      5  C   UNL     1      34.914 -20.274 -20.670  0.00  0.00    -0.055 C 
ATOM      6  C   UNL     1      36.697 -18.089 -21.266  0.00  0.00    +0.068 C 
ATOM      7  C   UNL     1      34.360 -18.918 -21.117  0.00  0.00    +0.068 C 
ATOM      8  H   UNL     1      36.023 -19.522 -19.133  0.00  0.00    -0.080 HD
BRANCH   3  11
ATOM      9 CL   UNL     1      34.376 -15.671 -20.546  0.00  0.00    -0.080 Cl
ATOM     10 CL   UNL     1      33.483 -13.375 -22.604  0.00  0.00    -0.081 Cl
ATOM     11  C   UNL     1      34.968 -17.145 -22.738  0.00  0.00    +0.059 C 
ATOM     12  C   UNL     1      34.479 -15.909 -22.263  0.00  0.00    +0.081 C 
ATOM     13  C   UNL     1      35.050 -17.327 -24.135  0.00  0.00    +0.015 C 
ATOM     14  C   UNL     1      34.087 -14.902 -23.146  0.00  0.00    +0.069 C 
ATOM     15  C   UNL     1      34.660 -16.320 -25.017  0.00  0.00    +0.002 C 
ATOM     16  C   UNL     1      34.178 -15.107 -24.522  0.00  0.00    +0.012 C 
ENDBRANCH   3  11
ENDBRANCH   1   2
BRANCH   1  17
ATOM     17  C   UNL     1      36.026 -21.771 -18.143  0.00  0.00    -0.019 C 
BRANCH  17  18
ATOM     18  C   UNL     1      37.084 -22.041 -17.073  0.00  0.00    +0.045 C 
BRANCH  18  19
ATOM     19  C   UNL     1      36.451 -22.343 -15.721  0.00  0.00    +0.205 C 
BRANCH  19  20
ATOM     20  O   UNL     1      35.779 -23.600 -15.772  0.00  0.00    -0.475 OA
BRANCH  20  26
ATOM     21  O   UNL     1      28.851 -22.453 -16.842  0.00  0.00    -0.275 OA
ATOM     22  N   UNL     1      31.093 -22.779 -16.464  0.00  0.00    -0.284 N 
ATOM     23  C   UNL     1      31.868 -23.716 -14.357  0.00  0.00    -0.008 C 
ATOM     24  C   UNL     1      30.463 -23.649 -13.831  0.00  0.00    +0.037 C 
ATOM     25  C   UNL     1      32.141 -23.240 -15.647  0.00  0.00    +0.049 C 
ATOM     26  C   UNL     1      34.498 -23.637 -15.311  0.00  0.00    +0.140 C 
ATOM     27  C   UNL     1      29.454 -23.809 -14.958  0.00  0.00    +0.090 C 
ATOM     28  C   UNL     1      33.455 -23.190 -16.121  0.00  0.00    +0.051 C 
ATOM     29  C   UNL     1      32.924 -24.148 -13.549  0.00  0.00    +0.000 C 
ATOM     30  C   UNL     1      34.234 -24.118 -14.029  0.00  0.00    +0.037 C 
ATOM     31  C   UNL     1      29.755 -22.924 -16.152  0.00  0.00    +0.226 C 
ATOM     32  H   UNL     1      31.327 -22.328 -17.307  0.00  0.00    +0.155 HD
ENDBRANCH  20  26
ENDBRANCH  19  20
ENDBRANCH  18  19
ENDBRANCH  17  18
ENDBRANCH   1  17
TORSDOF 7
ENDMDL
MODEL 4
REMARK VINA RESULT:     -11.2      4.877     11.729
REMARK  Name = 60795
REMARK  7 active torsions:
REMARK  status: ('A' for Active; 'I' for Inactive)
REMARK    1  A    between atoms: C_1  and  N_2
REMARK    2  A    between atoms: C_1  and  C_17
REMARK    3  A    between atoms: N_3  and  C_11
REMARK    4  A    between atoms: C_17  and  C_18
REMARK    5  A    between atoms: C_18  and  C_19
REMARK    6  A    between atoms: C_19  and  O_20
REMARK    7  A    between atoms: O_20  and  C_26
REMARK                            x       y       z     vdW  Elec       q    Type
REMARK                         _______ _______ _______ _____ _____    ______ ____
ROOT
ATOM      1  C   UNL     1      34.699 -16.177 -24.271  0.00  0.00    -0.077 C 
ENDROOT
BRANCH   1   2
ATOM      2  N   UNL     1      35.272 -17.194 -23.391  0.00  0.00    +0.389 N 
ATOM      3  N   UNL     1      35.239 -19.213 -21.369  0.00  0.00    -0.311 N 
ATOM      4  C   UNL     1      35.067 -16.832 -21.983  0.00  0.00    -0.055 C 
ATOM      5  C   UNL     1      34.673 -18.506 -23.661  0.00  0.00    -0.055 C 
ATOM      6  C   UNL     1      35.713 -17.859 -21.051  0.00  0.00    +0.068 C 
ATOM      7  C   UNL     1      35.304 -19.591 -22.784  0.00  0.00    +0.068 C 
ATOM      8  H   UNL     1      36.274 -17.246 -23.575  0.00  0.00    -0.080 HD
BRANCH   3  11
ATOM      9 CL   UNL     1      32.646 -20.339 -20.335  0.00  0.00    -0.080 Cl
ATOM     10 CL   UNL     1      33.023 -22.586 -18.074  0.00  0.00    -0.081 Cl
ATOM     11  C   UNL     1      35.349 -20.198 -20.382  0.00  0.00    +0.059 C 
ATOM     12  C   UNL     1      34.225 -20.821 -19.797  0.00  0.00    +0.081 C 
ATOM     13  C   UNL     1      36.627 -20.598 -19.939  0.00  0.00    +0.015 C 
ATOM     14  C   UNL     1      34.374 -21.799 -18.813  0.00  0.00    +0.069 C 
ATOM     15  C   UNL     1      36.776 -21.576 -18.957  0.00  0.00    +0.002 C 
ATOM     16  C   UNL     1      35.649 -22.177 -18.394  0.00  0.00    +0.012 C 
ENDBRANCH   3  11
ENDBRANCH   1   2
BRANCH   1  17
ATOM     17  C   UNL     1      34.832 -14.792 -23.639  0.00  0.00    -0.019 C 
BRANCH  17  18
ATOM     18  C   UNL     1      33.473 -14.102 -23.527  0.00  0.00    +0.045 C 
BRANCH  18  19
ATOM     19  C   UNL     1      33.159 -13.706 -22.090  0.00  0.00    +0.205 C 
BRANCH  19  20
ATOM     20  O   UNL     1      31.919 -13.004 -22.042  0.00  0.00    -0.475 OA
BRANCH  20  26
ATOM     21  O   UNL     1      33.060  -6.025 -22.704  0.00  0.00    -0.275 OA
ATOM     22  N   UNL     1      32.737  -8.285 -22.462  0.00  0.00    -0.284 N 
ATOM     23  C   UNL     1      31.958  -9.204 -20.349  0.00  0.00    -0.008 C 
ATOM     24  C   UNL     1      32.082  -7.841 -19.731  0.00  0.00    +0.037 C 
ATOM     25  C   UNL     1      32.330  -9.386 -21.687  0.00  0.00    +0.049 C 
ATOM     26  C   UNL     1      31.933 -11.760 -21.490  0.00  0.00    +0.140 C 
ATOM     27  C   UNL     1      31.846  -6.753 -20.767  0.00  0.00    +0.090 C 
ATOM     28  C   UNL     1      32.327 -10.663 -22.256  0.00  0.00    +0.051 C 
ATOM     29  C   UNL     1      31.578 -10.312 -19.586  0.00  0.00    +0.000 C 
ATOM     30  C   UNL     1      31.556 -11.585 -20.159  0.00  0.00    +0.037 C 
ATOM     31  C   UNL     1      32.633  -6.973 -22.045  0.00  0.00    +0.226 C 
ATOM     32  H   UNL     1      33.119  -8.461 -23.352  0.00  0.00    +0.155 HD
ENDBRANCH  20  26
ENDBRANCH  19  20
ENDBRANCH  18  19
ENDBRANCH  17  18
ENDBRANCH   1  17
TORSDOF 7
ENDMDL
MODEL 5
REMARK VINA RESULT:     -11.2      8.261     14.636
REMARK  Name = 60795
REMARK  7 active torsions:
REMARK  status: ('A' for Active; 'I' for Inactive)
REMARK    1  A    between atoms: C_1  and  N_2
REMARK    2  A    between atoms: C_1  and  C_17
REMARK    3  A    between atoms: N_3  and  C_11
REMARK    4  A    between atoms: C_17  and  C_18
REMARK    5  A    between atoms: C_18  and  C_19
REMARK    6  A    between atoms: C_19  and  O_20
REMARK    7  A    between atoms: O_20  and  C_26
REMARK                            x       y       z     vdW  Elec       q    Type
REMARK                         _______ _______ _______ _____ _____    ______ ____
ROOT
ATOM      1  C   UNL     1      34.123 -22.106 -18.579  0.00  0.00    -0.077 C 
ENDROOT
BRANCH   1   2
ATOM      2  N   UNL     1      34.874 -22.919 -17.624  0.00  0.00    +0.389 N 
ATOM      3  N   UNL     1      35.939 -23.621 -15.067  0.00  0.00    -0.311 N 
ATOM      4  C   UNL     1      35.973 -22.141 -17.038  0.00  0.00    -0.055 C 
ATOM      5  C   UNL     1      33.990 -23.413 -16.561  0.00  0.00    -0.055 C 
ATOM      6  C   UNL     1      36.802 -22.997 -16.079  0.00  0.00    +0.068 C 
ATOM      7  C   UNL     1      34.753 -24.312 -15.584  0.00  0.00    +0.068 C 
ATOM      8  H   UNL     1      35.265 -23.716 -18.123  0.00  0.00    -0.080 HD
BRANCH   3  11
ATOM      9 CL   UNL     1      34.152 -23.644 -12.645  0.00  0.00    -0.080 Cl
ATOM     10 CL   UNL     1      35.614 -24.650  -9.970  0.00  0.00    -0.081 Cl
ATOM     11  C   UNL     1      36.529 -24.053 -13.875  0.00  0.00    +0.059 C 
ATOM     12  C   UNL     1      35.822 -24.119 -12.654  0.00  0.00    +0.081 C 
ATOM     13  C   UNL     1      37.884 -24.444 -13.871  0.00  0.00    +0.015 C 
ATOM     14  C   UNL     1      36.445 -24.554 -11.484  0.00  0.00    +0.069 C 
ATOM     15  C   UNL     1      38.506 -24.880 -12.702  0.00  0.00    +0.002 C 
ATOM     16  C   UNL     1      37.786 -24.935 -11.508  0.00  0.00    +0.012 C 
ENDBRANCH   3  11
ENDBRANCH   1   2
BRANCH   1  17
ATOM     17  C   UNL     1      35.079 -21.360 -19.509  0.00  0.00    -0.019 C 
BRANCH  17  18
ATOM     18  C   UNL     1      34.335 -20.326 -20.353  0.00  0.00    +0.045 C 
BRANCH  18  19
ATOM     19  C   UNL     1      35.269 -19.616 -21.324  0.00  0.00    +0.205 C 
BRANCH  19  20
ATOM     20  O   UNL     1      35.621 -18.334 -20.806  0.00  0.00    -0.475 OA
BRANCH  20  26
ATOM     21  O   UNL     1      34.023 -15.064 -26.906  0.00  0.00    -0.275 OA
ATOM     22  N   UNL     1      34.583 -16.089 -24.928  0.00  0.00    -0.284 N 
ATOM     23  C   UNL     1      34.122 -15.005 -22.800  0.00  0.00    -0.008 C 
ATOM     24  C   UNL     1      33.685 -13.775 -23.542  0.00  0.00    +0.037 C 
ATOM     25  C   UNL     1      34.595 -16.109 -23.522  0.00  0.00    +0.049 C 
ATOM     26  C   UNL     1      35.131 -17.246 -21.461  0.00  0.00    +0.140 C 
ATOM     27  C   UNL     1      33.096 -14.139 -24.897  0.00  0.00    +0.090 C 
ATOM     28  C   UNL     1      35.109 -17.224 -22.855  0.00  0.00    +0.051 C 
ATOM     29  C   UNL     1      34.162 -15.031 -21.403  0.00  0.00    +0.000 C 
ATOM     30  C   UNL     1      34.656 -16.154 -20.736  0.00  0.00    +0.037 C 
ATOM     31  C   UNL     1      33.964 -15.107 -25.677  0.00  0.00    +0.226 C 
ATOM     32  H   UNL     1      35.043 -16.817 -25.406  0.00  0.00    +0.155 HD
ENDBRANCH  20  26
ENDBRANCH  19  20
ENDBRANCH  18  19
ENDBRANCH  17  18
ENDBRANCH   1  17
TORSDOF 7
ENDMDL
MODEL 6
REMARK VINA RESULT:     -11.2      4.312      7.528
REMARK  Name = 60795
REMARK  7 active torsions:
REMARK  status: ('A' for Active; 'I' for Inactive)
REMARK    1  A    between atoms: C_1  and  N_2
REMARK    2  A    between atoms: C_1  and  C_17
REMARK    3  A    between atoms: N_3  and  C_11
REMARK    4  A    between atoms: C_17  and  C_18
REMARK    5  A    between atoms: C_18  and  C_19
REMARK    6  A    between atoms: C_19  and  O_20
REMARK    7  A    between atoms: O_20  and  C_26
REMARK                            x       y       z     vdW  Elec       q    Type
REMARK                         _______ _______ _______ _____ _____    ______ ____
ROOT
ATOM      1  C   UNL     1      34.957 -17.289 -24.020  0.00  0.00    -0.077 C 
ENDROOT
BRANCH   1   2
ATOM      2  N   UNL     1      34.829 -15.868 -23.700  0.00  0.00    +0.389 N 
ATOM      3  N   UNL     1      33.511 -13.515 -22.756  0.00  0.00    -0.311 N 
ATOM      4  C   UNL     1      33.745 -15.260 -24.481  0.00  0.00    -0.055 C 
ATOM      5  C   UNL     1      34.576 -15.683 -22.266  0.00  0.00    -0.055 C 
ATOM      6  C   UNL     1      33.639 -13.760 -24.199  0.00  0.00    +0.068 C 
ATOM      7  C   UNL     1      34.495 -14.196 -21.908  0.00  0.00    +0.068 C 
ATOM      8  H   UNL     1      35.707 -15.407 -23.941  0.00  0.00    -0.080 HD
BRANCH   3  11
ATOM      9 CL   UNL     1      31.937 -13.584 -20.192  0.00  0.00    -0.080 Cl
ATOM     10 CL   UNL     1      30.726 -10.735 -19.342  0.00  0.00    -0.081 Cl
ATOM     11  C   UNL     1      32.964 -12.297 -22.341  0.00  0.00    +0.059 C 
ATOM     12  C   UNL     1      32.199 -12.167 -21.161  0.00  0.00    +0.081 C 
ATOM     13  C   UNL     1      33.172 -11.140 -23.120  0.00  0.00    +0.015 C 
ATOM     14  C   UNL     1      31.667 -10.935 -20.779  0.00  0.00    +0.069 C 
ATOM     15  C   UNL     1      32.641  -9.908 -22.737  0.00  0.00    +0.002 C 
ATOM     16  C   UNL     1      31.888  -9.806 -21.567  0.00  0.00    +0.012 C 
ENDBRANCH   3  11
ENDBRANCH   1   2
BRANCH   1  17
ATOM     17  C   UNL     1      35.637 -18.032 -22.872  0.00  0.00    -0.019 C 
BRANCH  17  18
ATOM     18  C   UNL     1      34.941 -19.362 -22.584  0.00  0.00    +0.045 C 
BRANCH  18  19
ATOM     19  C   UNL     1      34.708 -19.563 -21.093  0.00  0.00    +0.205 C 
BRANCH  19  20
ATOM     20  O   UNL     1      35.589 -20.570 -20.597  0.00  0.00    -0.475 OA
BRANCH  20  26
ATOM     21  O   UNL     1      37.101 -23.784 -14.446  0.00  0.00    -0.275 OA
ATOM     22  N   UNL     1      36.607 -22.793 -16.458  0.00  0.00    -0.284 N 
ATOM     23  C   UNL     1      34.316 -22.722 -17.272  0.00  0.00    -0.008 C 
ATOM     24  C   UNL     1      33.898 -23.589 -16.119  0.00  0.00    +0.037 C 
ATOM     25  C   UNL     1      35.668 -22.387 -17.423  0.00  0.00    +0.049 C 
ATOM     26  C   UNL     1      35.174 -21.274 -19.508  0.00  0.00    +0.140 C 
ATOM     27  C   UNL     1      34.788 -23.348 -14.909  0.00  0.00    +0.090 C 
ATOM     28  C   UNL     1      36.100 -21.672 -18.544  0.00  0.00    +0.051 C 
ATOM     29  C   UNL     1      33.399 -22.330 -18.252  0.00  0.00    +0.000 C 
ATOM     30  C   UNL     1      33.826 -21.599 -19.362  0.00  0.00    +0.037 C 
ATOM     31  C   UNL     1      36.266 -23.367 -15.249  0.00  0.00    +0.226 C 
ATOM     32  H   UNL     1      37.563 -22.661 -16.657  0.00  0.00    +0.155 HD
ENDBRANCH  20  26
ENDBRANCH  19  20
ENDBRANCH  18  19
ENDBRANCH  17  18
ENDBRANCH   1  17
TORSDOF 7
ENDMDL
MODEL 7
REMARK VINA RESULT:     -11.1      5.000     11.868
REMARK  Name = 60795
REMARK  7 active torsions:
REMARK  status: ('A' for Active; 'I' for Inactive)
REMARK    1  A    between atoms: C_1  and  N_2
REMARK    2  A    between atoms: C_1  and  C_17
REMARK    3  A    between atoms: N_3  and  C_11
REMARK    4  A    between atoms: C_17  and  C_18
REMARK    5  A    between atoms: C_18  and  C_19
REMARK    6  A    between atoms: C_19  and  O_20
REMARK    7  A    between atoms: O_20  and  C_26
REMARK                            x       y       z     vdW  Elec       q    Type
REMARK                         _______ _______ _______ _____ _____    ______ ____
ROOT
ATOM      1  C   UNL     1      34.743 -16.155 -24.324  0.00  0.00    -0.077 C 
ENDROOT
BRANCH   1   2
ATOM      2  N   UNL     1      35.304 -17.186 -23.451  0.00  0.00    +0.389 N 
ATOM      3  N   UNL     1      35.256 -19.183 -21.409  0.00  0.00    -0.311 N 
ATOM      4  C   UNL     1      35.156 -16.803 -22.042  0.00  0.00    -0.055 C 
ATOM      5  C   UNL     1      34.648 -18.476 -23.690  0.00  0.00    -0.055 C 
ATOM      6  C   UNL     1      35.791 -17.846 -21.120  0.00  0.00    +0.068 C 
ATOM      7  C   UNL     1      35.264 -19.577 -22.822  0.00  0.00    +0.068 C 
ATOM      8  H   UNL     1      36.297 -17.277 -23.665  0.00  0.00    -0.080 HD
BRANCH   3  11
ATOM      9 CL   UNL     1      32.658 -20.335 -20.418  0.00  0.00    -0.080 Cl
ATOM     10 CL   UNL     1      33.018 -22.567 -18.141  0.00  0.00    -0.081 Cl
ATOM     11  C   UNL     1      35.359 -20.163 -20.416  0.00  0.00    +0.059 C 
ATOM     12  C   UNL     1      34.232 -20.796 -19.849  0.00  0.00    +0.081 C 
ATOM     13  C   UNL     1      36.633 -20.547 -19.948  0.00  0.00    +0.015 C 
ATOM     14  C   UNL     1      34.374 -21.769 -18.859  0.00  0.00    +0.069 C 
ATOM     15  C   UNL     1      36.775 -21.520 -18.959  0.00  0.00    +0.002 C 
ATOM     16  C   UNL     1      35.645 -22.131 -18.414  0.00  0.00    +0.012 C 
ENDBRANCH   3  11
ENDBRANCH   1   2
BRANCH   1  17
ATOM     17  C   UNL     1      34.729 -14.805 -23.610  0.00  0.00    -0.019 C 
BRANCH  17  18
ATOM     18  C   UNL     1      33.456 -14.022 -23.932  0.00  0.00    +0.045 C 
BRANCH  18  19
ATOM     19  C   UNL     1      33.464 -12.644 -23.285  0.00  0.00    +0.205 C 
BRANCH  19  20
ATOM     20  O   UNL     1      34.351 -11.782 -23.995  0.00  0.00    -0.475 OA
BRANCH  20  26
ATOM     21  O   UNL     1      30.426  -6.301 -21.755  0.00  0.00    -0.275 OA
ATOM     22  N   UNL     1      31.686  -8.058 -22.531  0.00  0.00    -0.284 N 
ATOM     23  C   UNL     1      33.949  -7.692 -23.343  0.00  0.00    -0.008 C 
ATOM     24  C   UNL     1      33.743  -6.212 -23.199  0.00  0.00    +0.037 C 
ATOM     25  C   UNL     1      32.895  -8.564 -23.040  0.00  0.00    +0.049 C 
ATOM     26  C   UNL     1      34.217 -10.443 -23.781  0.00  0.00    +0.140 C 
ATOM     27  C   UNL     1      32.771  -5.907 -22.069  0.00  0.00    +0.090 C 
ATOM     28  C   UNL     1      33.023  -9.937 -23.268  0.00  0.00    +0.051 C 
ATOM     29  C   UNL     1      35.137  -8.209 -23.870  0.00  0.00    +0.000 C 
ATOM     30  C   UNL     1      35.273  -9.583 -24.079  0.00  0.00    +0.037 C 
ATOM     31  C   UNL     1      31.510  -6.747 -22.131  0.00  0.00    +0.226 C 
ATOM     32  H   UNL     1      30.921  -8.673 -22.455  0.00  0.00    +0.155 HD
ENDBRANCH  20  26
ENDBRANCH  19  20
ENDBRANCH  18  19
ENDBRANCH  17  18
ENDBRANCH   1  17
TORSDOF 7
ENDMDL
MODEL 8
REMARK VINA RESULT:     -11.1      5.611      9.204
REMARK  Name = 60795
REMARK  7 active torsions:
REMARK  status: ('A' for Active; 'I' for Inactive)
REMARK    1  A    between atoms: C_1  and  N_2
REMARK    2  A    between atoms: C_1  and  C_17
REMARK    3  A    between atoms: N_3  and  C_11
REMARK    4  A    between atoms: C_17  and  C_18
REMARK    5  A    between atoms: C_18  and  C_19
REMARK    6  A    between atoms: C_19  and  O_20
REMARK    7  A    between atoms: O_20  and  C_26
REMARK                            x       y       z     vdW  Elec       q    Type
REMARK                         _______ _______ _______ _____ _____    ______ ____
ROOT
ATOM      1  C   UNL     1      35.726 -19.284 -22.044  0.00  0.00    -0.077 C 
ENDROOT
BRANCH   1   2
ATOM      2  N   UNL     1      35.637 -17.828 -22.136  0.00  0.00    +0.389 N 
ATOM      3  N   UNL     1      34.315 -15.302 -22.325  0.00  0.00    -0.311 N 
ATOM      4  C   UNL     1      34.970 -17.430 -23.382  0.00  0.00    -0.055 C 
ATOM      5  C   UNL     1      34.910 -17.282 -20.984  0.00  0.00    -0.055 C 
ATOM      6  C   UNL     1      34.922 -15.907 -23.517  0.00  0.00    +0.068 C 
ATOM      7  C   UNL     1      34.858 -15.753 -21.039  0.00  0.00    +0.068 C 
ATOM      8  H   UNL     1      36.585 -17.451 -22.135  0.00  0.00    -0.080 HD
BRANCH   3  11
ATOM      9 CL   UNL     1      32.203 -14.568 -20.309  0.00  0.00    -0.080 Cl
ATOM     10 CL   UNL     1      31.050 -11.594 -20.671  0.00  0.00    -0.081 Cl
ATOM     11  C   UNL     1      33.781 -14.014 -22.439  0.00  0.00    +0.059 C 
ATOM     12  C   UNL     1      32.782 -13.523 -21.570  0.00  0.00    +0.081 C 
ATOM     13  C   UNL     1      34.246 -13.157 -23.457  0.00  0.00    +0.015 C 
ATOM     14  C   UNL     1      32.272 -12.232 -21.715  0.00  0.00    +0.069 C 
ATOM     15  C   UNL     1      33.737 -11.866 -23.601  0.00  0.00    +0.002 C 
ATOM     16  C   UNL     1      32.750 -11.404 -22.730  0.00  0.00    +0.012 C 
ENDBRANCH   3  11
ENDBRANCH   1   2
BRANCH   1  17
ATOM     17  C   UNL     1      34.701 -19.817 -21.046  0.00  0.00    -0.019 C 
BRANCH  17  18
ATOM     18  C   UNL     1      35.322 -20.861 -20.118  0.00  0.00    +0.045 C 
BRANCH  18  19
ATOM     19  C   UNL     1      34.258 -21.660 -19.379  0.00  0.00    +0.205 C 
BRANCH  19  20
ATOM     20  O   UNL     1      34.858 -22.394 -18.313  0.00  0.00    -0.475 OA
BRANCH  20  26
ATOM     21  O   UNL     1      28.355 -23.178 -15.564  0.00  0.00    -0.275 OA
ATOM     22  N   UNL     1      30.463 -22.879 -16.424  0.00  0.00    -0.284 N 
ATOM     23  C   UNL     1      32.429 -23.381 -15.082  0.00  0.00    -0.008 C 
ATOM     24  C   UNL     1      31.536 -23.629 -13.901  0.00  0.00    +0.037 C 
ATOM     25  C   UNL     1      31.861 -22.974 -16.297  0.00  0.00    +0.049 C 
ATOM     26  C   UNL     1      34.061 -22.716 -17.257  0.00  0.00    +0.140 C 
ATOM     27  C   UNL     1      30.179 -24.150 -14.346  0.00  0.00    +0.090 C 
ATOM     28  C   UNL     1      32.674 -22.632 -17.381  0.00  0.00    +0.051 C 
ATOM     29  C   UNL     1      33.821 -23.448 -14.965  0.00  0.00    +0.000 C 
ATOM     30  C   UNL     1      34.634 -23.126 -16.053  0.00  0.00    +0.037 C 
ATOM     31  C   UNL     1      29.573 -23.333 -15.472  0.00  0.00    +0.226 C 
ATOM     32  H   UNL     1      30.100 -22.464 -17.240  0.00  0.00    +0.155 HD
ENDBRANCH  20  26
ENDBRANCH  19  20
ENDBRANCH  18  19
ENDBRANCH  17  18
ENDBRANCH   1  17
TORSDOF 7
ENDMDL
MODEL 9
REMARK VINA RESULT:     -11.0      8.090     14.355
REMARK  Name = 60795
REMARK  7 active torsions:
REMARK  status: ('A' for Active; 'I' for Inactive)
REMARK    1  A    between atoms: C_1  and  N_2
REMARK    2  A    between atoms: C_1  and  C_17
REMARK    3  A    between atoms: N_3  and  C_11
REMARK    4  A    between atoms: C_17  and  C_18
REMARK    5  A    between atoms: C_18  and  C_19
REMARK    6  A    between atoms: C_19  and  O_20
REMARK    7  A    between atoms: O_20  and  C_26
REMARK                            x       y       z     vdW  Elec       q    Type
REMARK                         _______ _______ _______ _____ _____    ______ ____
ROOT
ATOM      1  C   UNL     1      35.326 -21.465 -19.490  0.00  0.00    -0.077 C 
ENDROOT
BRANCH   1   2
ATOM      2  N   UNL     1      35.339 -21.697 -18.046  0.00  0.00    +0.389 N 
ATOM      3  N   UNL     1      35.804 -23.175 -15.646  0.00  0.00    -0.311 N 
ATOM      4  C   UNL     1      34.485 -22.840 -17.701  0.00  0.00    -0.055 C 
ATOM      5  C   UNL     1      36.708 -21.936 -17.575  0.00  0.00    -0.055 C 
ATOM      6  C   UNL     1      34.444 -23.058 -16.187  0.00  0.00    +0.068 C 
ATOM      7  C   UNL     1      36.743 -22.125 -16.055  0.00  0.00    +0.068 C 
ATOM      8  H   UNL     1      34.974 -20.863 -17.587  0.00  0.00    -0.080 HD
BRANCH   3  11
ATOM      9 CL   UNL     1      38.506 -24.405 -15.143  0.00  0.00    -0.080 Cl
ATOM     10 CL   UNL     1      38.764 -25.830 -12.279  0.00  0.00    -0.081 Cl
ATOM     11  C   UNL     1      35.969 -23.808 -14.409  0.00  0.00    +0.059 C 
ATOM     12  C   UNL     1      37.176 -24.432 -14.027  0.00  0.00    +0.081 C 
ATOM     13  C   UNL     1      34.896 -23.835 -13.494  0.00  0.00    +0.015 C 
ATOM     14  C   UNL     1      37.303 -25.055 -12.785  0.00  0.00    +0.069 C 
ATOM     15  C   UNL     1      35.023 -24.457 -12.252  0.00  0.00    +0.002 C 
ATOM     16  C   UNL     1      36.227 -25.067 -11.897  0.00  0.00    +0.012 C 
ENDBRANCH   3  11
ENDBRANCH   1   2
BRANCH   1  17
ATOM     17  C   UNL     1      33.976 -20.900 -19.925  0.00  0.00    -0.019 C 
BRANCH  17  18
ATOM     18  C   UNL     1      34.141 -19.868 -21.040  0.00  0.00    +0.045 C 
BRANCH  18  19
ATOM     19  C   UNL     1      35.592 -19.433 -21.194  0.00  0.00    +0.205 C 
BRANCH  19  20
ATOM     20  O   UNL     1      35.764 -18.124 -20.655  0.00  0.00    -0.475 OA
BRANCH  20  26
ATOM     21  O   UNL     1      34.096 -15.063 -26.844  0.00  0.00    -0.275 OA
ATOM     22  N   UNL     1      34.674 -16.016 -24.836  0.00  0.00    -0.284 N 
ATOM     23  C   UNL     1      34.023 -14.971 -22.739  0.00  0.00    -0.008 C 
ATOM     24  C   UNL     1      33.496 -13.795 -23.508  0.00  0.00    +0.037 C 
ATOM     25  C   UNL     1      34.632 -16.027 -23.431  0.00  0.00    +0.049 C 
ATOM     26  C   UNL     1      35.194 -17.093 -21.339  0.00  0.00    +0.140 C 
ATOM     27  C   UNL     1      33.001 -14.223 -24.882  0.00  0.00    +0.090 C 
ATOM     28  C   UNL     1      35.226 -17.082 -22.733  0.00  0.00    +0.051 C 
ATOM     29  C   UNL     1      34.009 -14.986 -21.340  0.00  0.00    +0.000 C 
ATOM     30  C   UNL     1      34.585 -16.050 -20.643  0.00  0.00    +0.037 C 
ATOM     31  C   UNL     1      33.992 -15.105 -25.618  0.00  0.00    +0.226 C 
ATOM     32  H   UNL     1      35.223 -16.697 -25.288  0.00  0.00    +0.155 HD
ENDBRANCH  20  26
ENDBRANCH  19  20
ENDBRANCH  18  19
ENDBRANCH  17  18
ENDBRANCH   1  17
TORSDOF 7
ENDMDL
