MODEL 1
REMARK VINA RESULT:     -12.4      0.000      0.000
REMARK  Name = 447735
REMARK  4 active torsions:
REMARK  status: ('A' for Active; 'I' for Inactive)
REMARK    1  A    between atoms: N_2  and  C_13
REMARK    2  A    between atoms: C_3  and  C_18
REMARK    3  A    between atoms: C_7  and  C_15
REMARK    4  A    between atoms: C_26  and  C_30
REMARK                            x       y       z     vdW  Elec       q    Type
REMARK                         _______ _______ _______ _____ _____    ______ ____
ROOT
ATOM      1  O   UNL     1      32.880 -21.063 -20.158  0.00  0.00    -0.270 OA
ATOM      2  N   UNL     1      35.044 -20.153 -20.291  0.00  0.00    -0.280 N 
ATOM      3  C   UNL     1      34.034 -20.964 -19.757  0.00  0.00    +0.249 C 
ATOM      4  H   UNL     1      35.918 -20.199 -19.841  0.00  0.00    +0.155 HD
ENDROOT
BRANCH   2  13
ATOM      5  N   UNL     1      34.898 -14.755 -23.102  0.00  0.00    -0.274 NA
ATOM      6  C   UNL     1      34.788 -17.056 -22.277  0.00  0.00    +0.010 C 
ATOM      7  C   UNL     1      34.660 -15.583 -22.139  0.00  0.00    +0.053 C 
ATOM      8  C   UNL     1      34.811 -17.568 -23.581  0.00  0.00    -0.019 C 
ATOM      9  C   UNL     1      34.692 -16.615 -24.732  0.00  0.00    +0.053 C 
ATOM     10  C   UNL     1      35.381 -15.305 -24.374  0.00  0.00    +0.130 C 
ATOM     11  C   UNL     1      34.869 -17.913 -21.178  0.00  0.00    +0.016 C 
ATOM     12  C   UNL     1      34.889 -18.951 -23.777  0.00  0.00    -0.003 C 
ATOM     13  C   UNL     1      34.963 -19.290 -21.385  0.00  0.00    +0.051 C 
ATOM     14  C   UNL     1      34.969 -19.807 -22.680  0.00  0.00    +0.014 C 
BRANCH   7  15
ATOM     15  C   UNL     1      34.223 -15.012 -20.812  0.00  0.00    +0.040 C 
ATOM     16  C   UNL     1      34.856 -13.643 -20.641  0.00  0.00    +0.006 C 
ATOM     17  C   UNL     1      32.707 -14.947 -20.771  0.00  0.00    +0.006 C 
ENDBRANCH   7  15
ENDBRANCH   2  13
BRANCH   3  18
ATOM     18  C   UNL     1      34.422 -21.759 -18.562  0.00  0.00    +0.054 C 
ATOM     19  C   UNL     1      36.097 -22.413 -16.965  0.00  0.00    +0.000 C 
ATOM     20  C   UNL     1      35.143 -23.243 -16.329  0.00  0.00    +0.000 C 
ATOM     21  C   UNL     1      35.716 -21.667 -18.093  0.00  0.00    +0.005 C 
ATOM     22  C   UNL     1      33.475 -22.558 -17.963  0.00  0.00    +0.005 C 
ATOM     23  C   UNL     1      33.836 -23.305 -16.840  0.00  0.00    +0.000 C 
ATOM     24  C   UNL     1      35.524 -23.988 -15.201  0.00  0.00    +0.003 C 
ATOM     25  C   UNL     1      37.403 -22.351 -16.453  0.00  0.00    +0.000 C 
ATOM     26  C   UNL     1      36.827 -23.915 -14.706  0.00  0.00    +0.031 C 
ATOM     27  C   UNL     1      37.764 -23.098 -15.331  0.00  0.00    +0.003 C 
BRANCH  26  30
ATOM     28  N   UNL     1      36.443 -25.776 -13.109  0.00  0.00    -0.343 N 
ATOM     29  N   UNL     1      38.291 -24.368 -12.855  0.00  0.00    -0.285 NA
ATOM     30  C   UNL     1      37.206 -24.691 -13.537  0.00  0.00    +0.117 C 
ATOM     31  H   UNL     1      36.719 -26.288 -12.314  0.00  0.00    +0.144 HD
ATOM     32  H   UNL     1      35.630 -26.031 -13.601  0.00  0.00    +0.144 HD
ATOM     33  H   UNL     1      38.549 -24.892 -12.063  0.00  0.00    +0.188 HD
ENDBRANCH  26  30
ENDBRANCH   3  18
TORSDOF 4
ENDMDL
MODEL 2
REMARK VINA RESULT:     -12.0      0.743      1.606
REMARK  Name = 447735
REMARK  4 active torsions:
REMARK  status: ('A' for Active; 'I' for Inactive)
REMARK    1  A    between atoms: N_2  and  C_13
REMARK    2  A    between atoms: C_3  and  C_18
REMARK    3  A    between atoms: C_7  and  C_15
REMARK    4  A    between atoms: C_26  and  C_30
REMARK                            x       y       z     vdW  Elec       q    Type
REMARK                         _______ _______ _______ _____ _____    ______ ____
ROOT
ATOM      1  O   UNL     1      33.702 -21.366 -19.885  0.00  0.00    -0.270 OA
ATOM      2  N   UNL     1      35.678 -20.111 -20.112  0.00  0.00    -0.280 N 
ATOM      3  C   UNL     1      34.832 -21.060 -19.521  0.00  0.00    +0.249 C 
ATOM      4  H   UNL     1      36.557 -19.993 -19.687  0.00  0.00    +0.155 HD
ENDROOT
BRANCH   2  13
ATOM      5  N   UNL     1      34.785 -14.899 -23.129  0.00  0.00    -0.274 NA
ATOM      6  C   UNL     1      34.964 -17.156 -22.200  0.00  0.00    +0.010 C 
ATOM      7  C   UNL     1      34.706 -15.696 -22.115  0.00  0.00    +0.053 C 
ATOM      8  C   UNL     1      34.933 -17.729 -23.478  0.00  0.00    -0.019 C 
ATOM      9  C   UNL     1      34.630 -16.851 -24.654  0.00  0.00    +0.053 C 
ATOM     10  C   UNL     1      35.216 -15.466 -24.412  0.00  0.00    +0.130 C 
ATOM     11  C   UNL     1      35.216 -17.945 -21.075  0.00  0.00    +0.016 C 
ATOM     12  C   UNL     1      35.128 -19.106 -23.621  0.00  0.00    -0.003 C 
ATOM     13  C   UNL     1      35.426 -19.316 -21.231  0.00  0.00    +0.051 C 
ATOM     14  C   UNL     1      35.379 -19.895 -22.499  0.00  0.00    +0.014 C 
BRANCH   7  15
ATOM     15  C   UNL     1      34.323 -15.102 -20.781  0.00  0.00    +0.040 C 
ATOM     16  C   UNL     1      34.781 -13.655 -20.745  0.00  0.00    +0.006 C 
ATOM     17  C   UNL     1      32.822 -15.229 -20.590  0.00  0.00    +0.006 C 
ENDBRANCH   7  15
ENDBRANCH   2  13
BRANCH   3  18
ATOM     18  C   UNL     1      35.376 -21.733 -18.312  0.00  0.00    +0.054 C 
ATOM     19  C   UNL     1      35.022 -23.117 -16.378  0.00  0.00    +0.000 C 
ATOM     20  C   UNL     1      36.394 -22.991 -16.057  0.00  0.00    +0.000 C 
ATOM     21  C   UNL     1      34.522 -22.475 -17.524  0.00  0.00    +0.005 C 
ATOM     22  C   UNL     1      36.714 -21.594 -18.023  0.00  0.00    +0.005 C 
ATOM     23  C   UNL     1      37.228 -22.225 -16.889  0.00  0.00    +0.000 C 
ATOM     24  C   UNL     1      36.893 -23.632 -14.911  0.00  0.00    +0.003 C 
ATOM     25  C   UNL     1      34.190 -23.882 -15.545  0.00  0.00    +0.000 C 
ATOM     26  C   UNL     1      36.051 -24.389 -14.095  0.00  0.00    +0.031 C 
ATOM     27  C   UNL     1      34.702 -24.513 -14.412  0.00  0.00    +0.003 C 
BRANCH  26  30
ATOM     28  N   UNL     1      37.932 -25.382 -12.816  0.00  0.00    -0.343 N 
ATOM     29  N   UNL     1      35.779 -25.344 -11.907  0.00  0.00    -0.285 NA
ATOM     30  C   UNL     1      36.583 -25.048 -12.914  0.00  0.00    +0.117 C 
ATOM     31  H   UNL     1      38.271 -25.829 -12.006  0.00  0.00    +0.144 HD
ATOM     32  H   UNL     1      38.547 -25.173 -13.556  0.00  0.00    +0.144 HD
ATOM     33  H   UNL     1      36.137 -25.791 -11.106  0.00  0.00    +0.188 HD
ENDBRANCH  26  30
ENDBRANCH   3  18
TORSDOF 4
ENDMDL
MODEL 3
REMARK VINA RESULT:     -11.7      6.513     10.878
REMARK  Name = 447735
REMARK  4 active torsions:
REMARK  status: ('A' for Active; 'I' for Inactive)
REMARK    1  A    between atoms: N_2  and  C_13
REMARK    2  A    between atoms: C_3  and  C_18
REMARK    3  A    between atoms: C_7  and  C_15
REMARK    4  A    between atoms: C_26  and  C_30
REMARK                            x       y       z     vdW  Elec       q    Type
REMARK                         _______ _______ _______ _____ _____    ______ ____
ROOT
ATOM      1  O   UNL     1      30.686 -11.132 -21.439  0.00  0.00    -0.270 OA
ATOM      2  N   UNL     1      32.749 -10.093 -21.884  0.00  0.00    -0.280 N 
ATOM      3  C   UNL     1      31.892 -11.178 -21.656  0.00  0.00    +0.249 C 
ATOM      4  H   UNL     1      33.694 -10.315 -22.042  0.00  0.00    +0.155 HD
ENDROOT
BRANCH   2  13
ATOM      5  N   UNL     1      32.299  -4.551 -24.363  0.00  0.00    -0.274 NA
ATOM      6  C   UNL     1      32.466  -6.602 -23.039  0.00  0.00    +0.010 C 
ATOM      7  C   UNL     1      32.846  -5.704 -24.159  0.00  0.00    +0.053 C 
ATOM      8  C   UNL     1      31.761  -6.022 -21.976  0.00  0.00    -0.019 C 
ATOM      9  C   UNL     1      31.455  -4.555 -22.030  0.00  0.00    +0.053 C 
ATOM     10  C   UNL     1      31.204  -4.146 -23.475  0.00  0.00    +0.130 C 
ATOM     11  C   UNL     1      32.794  -7.959 -23.014  0.00  0.00    +0.016 C 
ATOM     12  C   UNL     1      31.410  -6.805 -20.872  0.00  0.00    -0.003 C 
ATOM     13  C   UNL     1      32.424  -8.736 -21.915  0.00  0.00    +0.051 C 
ATOM     14  C   UNL     1      31.738  -8.160 -20.847  0.00  0.00    +0.014 C 
BRANCH   7  15
ATOM     15  C   UNL     1      33.930  -6.148 -25.111  0.00  0.00    +0.040 C 
ATOM     16  C   UNL     1      33.981  -5.175 -26.275  0.00  0.00    +0.006 C 
ATOM     17  C   UNL     1      35.251  -6.215 -24.366  0.00  0.00    +0.006 C 
ENDBRANCH   7  15
ENDBRANCH   2  13
BRANCH   3  18
ATOM     18  C   UNL     1      32.544 -12.515 -21.657  0.00  0.00    +0.054 C 
ATOM     19  C   UNL     1      33.682 -14.262 -22.855  0.00  0.00    +0.000 C 
ATOM     20  C   UNL     1      33.761 -15.009 -21.656  0.00  0.00    +0.000 C 
ATOM     21  C   UNL     1      33.063 -13.001 -22.838  0.00  0.00    +0.005 C 
ATOM     22  C   UNL     1      32.607 -13.221 -20.478  0.00  0.00    +0.005 C 
ATOM     23  C   UNL     1      33.219 -14.475 -20.475  0.00  0.00    +0.000 C 
ATOM     24  C   UNL     1      34.379 -16.271 -21.673  0.00  0.00    +0.003 C 
ATOM     25  C   UNL     1      34.224 -14.797 -24.034  0.00  0.00    +0.000 C 
ATOM     26  C   UNL     1      34.913 -16.786 -22.855  0.00  0.00    +0.031 C 
ATOM     27  C   UNL     1      34.835 -16.051 -24.033  0.00  0.00    +0.003 C 
BRANCH  26  30
ATOM     28  N   UNL     1      34.899 -19.218 -23.357  0.00  0.00    -0.343 N 
ATOM     29  N   UNL     1      36.772 -18.229 -22.369  0.00  0.00    -0.285 NA
ATOM     30  C   UNL     1      35.551 -18.093 -22.855  0.00  0.00    +0.117 C 
ATOM     31  H   UNL     1      35.350 -20.093 -23.347  0.00  0.00    +0.144 HD
ATOM     32  H   UNL     1      33.988 -19.138 -23.721  0.00  0.00    +0.144 HD
ATOM     33  H   UNL     1      37.206 -19.113 -22.367  0.00  0.00    +0.188 HD
ENDBRANCH  26  30
ENDBRANCH   3  18
TORSDOF 4
ENDMDL
MODEL 4
REMARK VINA RESULT:     -11.7      6.242     10.686
REMARK  Name = 447735
REMARK  4 active torsions:
REMARK  status: ('A' for Active; 'I' for Inactive)
REMARK    1  A    between atoms: N_2  and  C_13
REMARK    2  A    between atoms: C_3  and  C_18
REMARK    3  A    between atoms: C_7  and  C_15
REMARK    4  A    between atoms: C_26  and  C_30
REMARK                            x       y       z     vdW  Elec       q    Type
REMARK                         _______ _______ _______ _____ _____    ______ ____
ROOT
ATOM      1  O   UNL     1      31.249 -11.498 -21.428  0.00  0.00    -0.270 OA
ATOM      2  N   UNL     1      32.964 -10.294 -22.495  0.00  0.00    -0.280 N 
ATOM      3  C   UNL     1      32.298 -11.448 -22.060  0.00  0.00    +0.249 C 
ATOM      4  H   UNL     1      33.800 -10.441 -22.993  0.00  0.00    +0.155 HD
ENDROOT
BRANCH   2  13
ATOM      5  N   UNL     1      32.089  -4.495 -24.128  0.00  0.00    -0.274 NA
ATOM      6  C   UNL     1      32.448  -6.697 -23.123  0.00  0.00    +0.010 C 
ATOM      7  C   UNL     1      32.696  -5.636 -24.132  0.00  0.00    +0.053 C 
ATOM      8  C   UNL     1      31.815  -6.304 -21.936  0.00  0.00    -0.019 C 
ATOM      9  C   UNL     1      31.448  -4.861 -21.759  0.00  0.00    +0.053 C 
ATOM     10  C   UNL     1      31.059  -4.271 -23.108  0.00  0.00    +0.130 C 
ATOM     11  C   UNL     1      32.829  -8.027 -23.315  0.00  0.00    +0.016 C 
ATOM     12  C   UNL     1      31.590  -7.248 -20.929  0.00  0.00    -0.003 C 
ATOM     13  C   UNL     1      32.586  -8.965 -22.310  0.00  0.00    +0.051 C 
ATOM     14  C   UNL     1      31.971  -8.575 -21.120  0.00  0.00    +0.014 C 
BRANCH   7  15
ATOM     15  C   UNL     1      33.711  -5.891 -25.220  0.00  0.00    +0.040 C 
ATOM     16  C   UNL     1      33.617  -4.772 -26.242  0.00  0.00    +0.006 C 
ATOM     17  C   UNL     1      35.094  -5.982 -24.600  0.00  0.00    +0.006 C 
ENDBRANCH   7  15
ENDBRANCH   2  13
BRANCH   3  18
ATOM     18  C   UNL     1      32.969 -12.734 -22.389  0.00  0.00    +0.054 C 
ATOM     19  C   UNL     1      33.946 -14.805 -21.656  0.00  0.00    +0.000 C 
ATOM     20  C   UNL     1      34.220 -15.134 -23.005  0.00  0.00    +0.000 C 
ATOM     21  C   UNL     1      33.311 -13.587 -21.361  0.00  0.00    +0.005 C 
ATOM     22  C   UNL     1      33.224 -13.028 -23.708  0.00  0.00    +0.005 C 
ATOM     23  C   UNL     1      33.853 -14.234 -24.020  0.00  0.00    +0.000 C 
ATOM     24  C   UNL     1      34.855 -16.351 -23.300  0.00  0.00    +0.003 C 
ATOM     25  C   UNL     1      34.314 -15.704 -20.643  0.00  0.00    +0.000 C 
ATOM     26  C   UNL     1      35.213 -17.233 -22.279  0.00  0.00    +0.031 C 
ATOM     27  C   UNL     1      34.943 -16.910 -20.953  0.00  0.00    +0.003 C 
BRANCH  26  30
ATOM     28  N   UNL     1      37.219 -18.695 -22.328  0.00  0.00    -0.343 N 
ATOM     29  N   UNL     1      35.179 -19.466 -23.168  0.00  0.00    -0.285 NA
ATOM     30  C   UNL     1      35.868 -18.490 -22.601  0.00  0.00    +0.117 C 
ATOM     31  H   UNL     1      37.642 -19.554 -22.555  0.00  0.00    +0.144 HD
ATOM     32  H   UNL     1      37.751 -17.980 -21.909  0.00  0.00    +0.144 HD
ATOM     33  H   UNL     1      35.621 -20.318 -23.387  0.00  0.00    +0.188 HD
ENDBRANCH  26  30
ENDBRANCH   3  18
TORSDOF 4
ENDMDL
MODEL 5
REMARK VINA RESULT:     -11.5      1.694      2.970
REMARK  Name = 447735
REMARK  4 active torsions:
REMARK  status: ('A' for Active; 'I' for Inactive)
REMARK    1  A    between atoms: N_2  and  C_13
REMARK    2  A    between atoms: C_3  and  C_18
REMARK    3  A    between atoms: C_7  and  C_15
REMARK    4  A    between atoms: C_26  and  C_30
REMARK                            x       y       z     vdW  Elec       q    Type
REMARK                         _______ _______ _______ _____ _____    ______ ____
ROOT
ATOM      1  O   UNL     1      34.917 -19.945 -22.636  0.00  0.00    -0.270 OA
ATOM      2  N   UNL     1      34.898 -18.044 -21.253  0.00  0.00    -0.280 N 
ATOM      3  C   UNL     1      35.006 -19.412 -21.536  0.00  0.00    +0.249 C 
ATOM      4  H   UNL     1      34.997 -17.790 -20.307  0.00  0.00    +0.155 HD
ENDROOT
BRANCH   2  13
ATOM      5  N   UNL     1      33.557 -12.337 -22.893  0.00  0.00    -0.274 NA
ATOM      6  C   UNL     1      33.987 -14.725 -22.577  0.00  0.00    +0.010 C 
ATOM      7  C   UNL     1      33.477 -13.395 -22.156  0.00  0.00    +0.053 C 
ATOM      8  C   UNL     1      34.226 -14.905 -23.946  0.00  0.00    -0.019 C 
ATOM      9  C   UNL     1      33.942 -13.770 -24.883  0.00  0.00    +0.053 C 
ATOM     10  C   UNL     1      34.248 -12.452 -24.183  0.00  0.00    +0.130 C 
ATOM     11  C   UNL     1      34.213 -15.767 -21.675  0.00  0.00    +0.016 C 
ATOM     12  C   UNL     1      34.669 -16.148 -24.411  0.00  0.00    -0.003 C 
ATOM     13  C   UNL     1      34.670 -16.999 -22.147  0.00  0.00    +0.051 C 
ATOM     14  C   UNL     1      34.894 -17.189 -23.511  0.00  0.00    +0.014 C 
BRANCH   7  15
ATOM     15  C   UNL     1      32.822 -13.263 -20.803  0.00  0.00    +0.040 C 
ATOM     16  C   UNL     1      31.727 -12.215 -20.895  0.00  0.00    +0.006 C 
ATOM     17  C   UNL     1      32.282 -14.615 -20.375  0.00  0.00    +0.006 C 
ENDBRANCH   7  15
ENDBRANCH   2  13
BRANCH   3  18
ATOM     18  C   UNL     1      35.226 -20.292 -20.357  0.00  0.00    +0.054 C 
ATOM     19  C   UNL     1      34.329 -21.743 -18.662  0.00  0.00    +0.000 C 
ATOM     20  C   UNL     1      35.636 -21.934 -18.157  0.00  0.00    +0.000 C 
ATOM     21  C   UNL     1      34.138 -20.910 -19.777  0.00  0.00    +0.005 C 
ATOM     22  C   UNL     1      36.507 -20.459 -19.885  0.00  0.00    +0.005 C 
ATOM     23  C   UNL     1      36.716 -21.285 -18.780  0.00  0.00    +0.000 C 
ATOM     24  C   UNL     1      35.828 -22.767 -17.043  0.00  0.00    +0.003 C 
ATOM     25  C   UNL     1      33.251 -22.392 -18.039  0.00  0.00    +0.000 C 
ATOM     26  C   UNL     1      34.744 -23.404 -16.436  0.00  0.00    +0.031 C 
ATOM     27  C   UNL     1      33.458 -23.217 -16.933  0.00  0.00    +0.003 C 
BRANCH  26  30
ATOM     28  N   UNL     1      35.855 -25.330 -15.331  0.00  0.00    -0.343 N 
ATOM     29  N   UNL     1      34.292 -24.043 -14.164  0.00  0.00    -0.285 NA
ATOM     30  C   UNL     1      34.959 -24.264 -15.284  0.00  0.00    +0.117 C 
ATOM     31  H   UNL     1      35.985 -25.900 -14.538  0.00  0.00    +0.144 HD
ATOM     32  H   UNL     1      36.359 -25.513 -16.157  0.00  0.00    +0.144 HD
ATOM     33  H   UNL     1      34.435 -24.625 -13.382  0.00  0.00    +0.188 HD
ENDBRANCH  26  30
ENDBRANCH   3  18
TORSDOF 4
ENDMDL
MODEL 6
REMARK VINA RESULT:     -10.8      7.664     15.330
REMARK  Name = 447735
REMARK  4 active torsions:
REMARK  status: ('A' for Active; 'I' for Inactive)
REMARK    1  A    between atoms: N_2  and  C_13
REMARK    2  A    between atoms: C_3  and  C_18
REMARK    3  A    between atoms: C_7  and  C_15
REMARK    4  A    between atoms: C_26  and  C_30
REMARK                            x       y       z     vdW  Elec       q    Type
REMARK                         _______ _______ _______ _____ _____    ______ ____
ROOT
ATOM      1  O   UNL     1      32.742  -8.273 -20.497  0.00  0.00    -0.270 OA
ATOM      2  N   UNL     1      32.446  -9.691 -22.349  0.00  0.00    -0.280 N 
ATOM      3  C   UNL     1      32.599  -8.459 -21.700  0.00  0.00    +0.249 C 
ATOM      4  H   UNL     1      32.342  -9.654 -23.327  0.00  0.00    +0.155 HD
ENDROOT
BRANCH   2  13
ATOM      5  N   UNL     1      34.093 -15.519 -21.723  0.00  0.00    -0.274 NA
ATOM      6  C   UNL     1      33.119 -13.275 -21.796  0.00  0.00    +0.010 C 
ATOM      7  C   UNL     1      33.837 -14.436 -22.380  0.00  0.00    +0.053 C 
ATOM      8  C   UNL     1      32.388 -13.509 -20.624  0.00  0.00    -0.019 C 
ATOM      9  C   UNL     1      32.364 -14.896 -20.054  0.00  0.00    +0.053 C 
ATOM     10  C   UNL     1      33.708 -15.567 -20.308  0.00  0.00    +0.130 C 
ATOM     11  C   UNL     1      33.145 -12.003 -22.372  0.00  0.00    +0.016 C 
ATOM     12  C   UNL     1      31.658 -12.466 -20.046  0.00  0.00    -0.003 C 
ATOM     13  C   UNL     1      32.425 -10.964 -21.779  0.00  0.00    +0.051 C 
ATOM     14  C   UNL     1      31.682 -11.196 -20.622  0.00  0.00    +0.014 C 
BRANCH   7  15
ATOM     15  C   UNL     1      34.288 -14.363 -23.818  0.00  0.00    +0.040 C 
ATOM     16  C   UNL     1      35.091 -15.611 -24.139  0.00  0.00    +0.006 C 
ATOM     17  C   UNL     1      33.073 -14.221 -24.717  0.00  0.00    +0.006 C 
ENDBRANCH   7  15
ENDBRANCH   2  13
BRANCH   3  18
ATOM     18  C   UNL     1      32.551  -7.263 -22.584  0.00  0.00    +0.054 C 
ATOM     19  C   UNL     1      33.516  -5.967 -24.364  0.00  0.00    +0.000 C 
ATOM     20  C   UNL     1      32.461  -5.033 -24.233  0.00  0.00    +0.000 C 
ATOM     21  C   UNL     1      33.547  -7.091 -23.523  0.00  0.00    +0.005 C 
ATOM     22  C   UNL     1      31.515  -6.371 -22.435  0.00  0.00    +0.005 C 
ATOM     23  C   UNL     1      31.467  -5.249 -23.263  0.00  0.00    +0.000 C 
ATOM     24  C   UNL     1      32.430  -3.909 -25.075  0.00  0.00    +0.003 C 
ATOM     25  C   UNL     1      34.508  -5.749 -25.334  0.00  0.00    +0.000 C 
ATOM     26  C   UNL     1      33.425  -3.709 -26.033  0.00  0.00    +0.031 C 
ATOM     27  C   UNL     1      34.462  -4.628 -26.162  0.00  0.00    +0.003 C 
BRANCH  26  30
ATOM     28  N   UNL     1      32.172  -2.061 -27.403  0.00  0.00    -0.343 N 
ATOM     29  N   UNL     1      34.497  -1.916 -27.220  0.00  0.00    -0.285 NA
ATOM     30  C   UNL     1      33.378  -2.541 -26.897  0.00  0.00    +0.117 C 
ATOM     31  H   UNL     1      32.164  -1.268 -27.986  0.00  0.00    +0.144 HD
ATOM     32  H   UNL     1      31.328  -2.514 -27.177  0.00  0.00    +0.144 HD
ATOM     33  H   UNL     1      34.468  -1.125 -27.806  0.00  0.00    +0.188 HD
ENDBRANCH  26  30
ENDBRANCH   3  18
TORSDOF 4
ENDMDL
MODEL 7
REMARK VINA RESULT:     -10.7      2.216     10.203
REMARK  Name = 447735
REMARK  4 active torsions:
REMARK  status: ('A' for Active; 'I' for Inactive)
REMARK    1  A    between atoms: N_2  and  C_13
REMARK    2  A    between atoms: C_3  and  C_18
REMARK    3  A    between atoms: C_7  and  C_15
REMARK    4  A    between atoms: C_26  and  C_30
REMARK                            x       y       z     vdW  Elec       q    Type
REMARK                         _______ _______ _______ _____ _____    ______ ____
ROOT
ATOM      1  O   UNL     1      33.765 -23.860 -17.727  0.00  0.00    -0.270 OA
ATOM      2  N   UNL     1      35.233 -22.479 -16.516  0.00  0.00    -0.280 N 
ATOM      3  C   UNL     1      34.414 -22.828 -17.598  0.00  0.00    +0.249 C 
ATOM      4  H   UNL     1      35.683 -21.606 -16.580  0.00  0.00    +0.155 HD
ENDROOT
BRANCH   2  13
ATOM      5  N   UNL     1      38.659 -25.568 -12.543  0.00  0.00    -0.274 NA
ATOM      6  C   UNL     1      36.995 -24.513 -13.994  0.00  0.00    +0.010 C 
ATOM      7  C   UNL     1      38.302 -25.161 -13.716  0.00  0.00    +0.053 C 
ATOM      8  C   UNL     1      35.989 -24.683 -13.034  0.00  0.00    -0.019 C 
ATOM      9  C   UNL     1      36.286 -25.506 -11.817  0.00  0.00    +0.053 C 
ATOM     10  C   UNL     1      37.745 -25.313 -11.423  0.00  0.00    +0.130 C 
ATOM     11  C   UNL     1      36.749 -23.776 -15.155  0.00  0.00    +0.016 C 
ATOM     12  C   UNL     1      34.723 -24.132 -13.256  0.00  0.00    -0.003 C 
ATOM     13  C   UNL     1      35.486 -23.216 -15.359  0.00  0.00    +0.051 C 
ATOM     14  C   UNL     1      34.476 -23.397 -14.415  0.00  0.00    +0.014 C 
BRANCH   7  15
ATOM     15  C   UNL     1      39.269 -25.366 -14.857  0.00  0.00    +0.040 C 
ATOM     16  C   UNL     1      39.737 -24.008 -15.346  0.00  0.00    +0.006 C 
ATOM     17  C   UNL     1      40.424 -26.230 -14.383  0.00  0.00    +0.006 C 
ENDBRANCH   7  15
ENDBRANCH   2  13
BRANCH   3  18
ATOM     18  C   UNL     1      34.366 -21.837 -18.706  0.00  0.00    +0.054 C 
ATOM     19  C   UNL     1      35.521 -20.371 -20.223  0.00  0.00    +0.000 C 
ATOM     20  C   UNL     1      34.276 -19.990 -20.776  0.00  0.00    +0.000 C 
ATOM     21  C   UNL     1      35.550 -21.308 -19.176  0.00  0.00    +0.005 C 
ATOM     22  C   UNL     1      33.143 -21.484 -19.226  0.00  0.00    +0.005 C 
ATOM     23  C   UNL     1      33.094 -20.555 -20.267  0.00  0.00    +0.000 C 
ATOM     24  C   UNL     1      34.247 -19.053 -21.822  0.00  0.00    +0.003 C 
ATOM     25  C   UNL     1      36.700 -19.804 -20.732  0.00  0.00    +0.000 C 
ATOM     26  C   UNL     1      35.429 -18.500 -22.316  0.00  0.00    +0.031 C 
ATOM     27  C   UNL     1      36.654 -18.876 -21.772  0.00  0.00    +0.003 C 
BRANCH  26  30
ATOM     28  N   UNL     1      34.898 -17.878 -24.660  0.00  0.00    -0.343 N 
ATOM     29  N   UNL     1      35.809 -16.298 -23.199  0.00  0.00    -0.285 NA
ATOM     30  C   UNL     1      35.382 -17.533 -23.400  0.00  0.00    +0.117 C 
ATOM     31  H   UNL     1      34.875 -17.206 -25.379  0.00  0.00    +0.144 HD
ATOM     32  H   UNL     1      34.578 -18.793 -24.831  0.00  0.00    +0.144 HD
ATOM     33  H   UNL     1      35.779 -15.641 -23.932  0.00  0.00    +0.188 HD
ENDBRANCH  26  30
ENDBRANCH   3  18
TORSDOF 4
ENDMDL
MODEL 8
REMARK VINA RESULT:     -10.5      1.546      9.974
REMARK  Name = 447735
REMARK  4 active torsions:
REMARK  status: ('A' for Active; 'I' for Inactive)
REMARK    1  A    between atoms: N_2  and  C_13
REMARK    2  A    between atoms: C_3  and  C_18
REMARK    3  A    between atoms: C_7  and  C_15
REMARK    4  A    between atoms: C_26  and  C_30
REMARK                            x       y       z     vdW  Elec       q    Type
REMARK                         _______ _______ _______ _____ _____    ______ ____
ROOT
ATOM      1  O   UNL     1      36.654 -20.470 -19.914  0.00  0.00    -0.270 OA
ATOM      2  N   UNL     1      34.349 -20.857 -19.656  0.00  0.00    -0.280 N 
ATOM      3  C   UNL     1      35.488 -20.296 -20.250  0.00  0.00    +0.249 C 
ATOM      4  H   UNL     1      33.486 -20.607 -20.058  0.00  0.00    +0.155 HD
ENDROOT
BRANCH   2  13
ATOM      5  N   UNL     1      36.393 -23.581 -14.610  0.00  0.00    -0.274 NA
ATOM      6  C   UNL     1      35.345 -22.780 -16.671  0.00  0.00    +0.010 C 
ATOM      7  C   UNL     1      36.504 -23.044 -15.780  0.00  0.00    +0.053 C 
ATOM      8  C   UNL     1      34.158 -23.466 -16.383  0.00  0.00    -0.019 C 
ATOM      9  C   UNL     1      34.138 -24.416 -15.223  0.00  0.00    +0.053 C 
ATOM     10  C   UNL     1      35.044 -23.883 -14.121  0.00  0.00    +0.130 C 
ATOM     11  C   UNL     1      35.412 -21.907 -17.759  0.00  0.00    +0.016 C 
ATOM     12  C   UNL     1      33.043 -23.292 -17.209  0.00  0.00    -0.003 C 
ATOM     13  C   UNL     1      34.289 -21.728 -18.568  0.00  0.00    +0.051 C 
ATOM     14  C   UNL     1      33.110 -22.421 -18.295  0.00  0.00    +0.014 C 
BRANCH   7  15
ATOM     15  C   UNL     1      37.887 -22.675 -16.258  0.00  0.00    +0.040 C 
ATOM     16  C   UNL     1      38.094 -21.186 -16.045  0.00  0.00    +0.006 C 
ATOM     17  C   UNL     1      38.912 -23.505 -15.506  0.00  0.00    +0.006 C 
ENDBRANCH   7  15
ENDBRANCH   2  13
BRANCH   3  18
ATOM     18  C   UNL     1      35.225 -19.376 -21.388  0.00  0.00    +0.054 C 
ATOM     19  C   UNL     1      34.822 -17.147 -22.196  0.00  0.00    +0.000 C 
ATOM     20  C   UNL     1      34.737 -17.658 -23.513  0.00  0.00    +0.000 C 
ATOM     21  C   UNL     1      35.071 -18.029 -21.131  0.00  0.00    +0.005 C 
ATOM     22  C   UNL     1      35.147 -19.898 -22.658  0.00  0.00    +0.005 C 
ATOM     23  C   UNL     1      34.902 -19.037 -23.728  0.00  0.00    +0.000 C 
ATOM     24  C   UNL     1      34.489 -16.776 -24.577  0.00  0.00    +0.003 C 
ATOM     25  C   UNL     1      34.657 -15.769 -21.983  0.00  0.00    +0.000 C 
ATOM     26  C   UNL     1      34.327 -15.409 -24.346  0.00  0.00    +0.031 C 
ATOM     27  C   UNL     1      34.411 -14.907 -23.051  0.00  0.00    +0.003 C 
BRANCH  26  30
ATOM     28  N   UNL     1      33.827 -13.153 -25.253  0.00  0.00    -0.343 N 
ATOM     29  N   UNL     1      34.065 -14.976 -26.695  0.00  0.00    -0.285 NA
ATOM     30  C   UNL     1      34.072 -14.509 -25.459  0.00  0.00    +0.117 C 
ATOM     31  H   UNL     1      33.656 -12.561 -26.021  0.00  0.00    +0.144 HD
ATOM     32  H   UNL     1      33.824 -12.786 -24.339  0.00  0.00    +0.144 HD
ATOM     33  H   UNL     1      33.892 -14.368 -27.451  0.00  0.00    +0.188 HD
ENDBRANCH  26  30
ENDBRANCH   3  18
TORSDOF 4
ENDMDL
MODEL 9
REMARK VINA RESULT:     -10.1      1.980     10.047
REMARK  Name = 447735
REMARK  4 active torsions:
REMARK  status: ('A' for Active; 'I' for Inactive)
REMARK    1  A    between atoms: N_2  and  C_13
REMARK    2  A    between atoms: C_3  and  C_18
REMARK    3  A    between atoms: C_7  and  C_15
REMARK    4  A    between atoms: C_26  and  C_30
REMARK                            x       y       z     vdW  Elec       q    Type
REMARK                         _______ _______ _______ _____ _____    ______ ____
ROOT
ATOM      1  O   UNL     1      37.603 -19.486 -19.795  0.00  0.00    -0.270 OA
ATOM      2  N   UNL     1      35.589 -20.672 -19.535  0.00  0.00    -0.280 N 
ATOM      3  C   UNL     1      36.462 -19.762 -20.148  0.00  0.00    +0.249 C 
ATOM      4  H   UNL     1      34.705 -20.771 -19.956  0.00  0.00    +0.155 HD
ENDROOT
BRANCH   2  13
ATOM      5  N   UNL     1      34.076 -24.338 -14.916  0.00  0.00    -0.274 NA
ATOM      6  C   UNL     1      34.986 -22.781 -16.571  0.00  0.00    +0.010 C 
ATOM      7  C   UNL     1      33.894 -23.372 -15.756  0.00  0.00    +0.053 C 
ATOM      8  C   UNL     1      36.297 -23.033 -16.147  0.00  0.00    -0.019 C 
ATOM      9  C   UNL     1      36.510 -23.854 -14.911  0.00  0.00    +0.053 C 
ATOM     10  C   UNL     1      35.421 -24.915 -14.819  0.00  0.00    +0.130 C 
ATOM     11  C   UNL     1      34.745 -21.998 -17.702  0.00  0.00    +0.016 C 
ATOM     12  C   UNL     1      37.369 -22.471 -16.848  0.00  0.00    -0.003 C 
ATOM     13  C   UNL     1      35.822 -21.455 -18.405  0.00  0.00    +0.051 C 
ATOM     14  C   UNL     1      37.129 -21.688 -17.977  0.00  0.00    +0.014 C 
BRANCH   7  15
ATOM     15  C   UNL     1      32.497 -22.820 -15.902  0.00  0.00    +0.040 C 
ATOM     16  C   UNL     1      31.684 -23.776 -16.756  0.00  0.00    +0.006 C 
ATOM     17  C   UNL     1      31.888 -22.630 -14.524  0.00  0.00    +0.006 C 
ENDBRANCH   7  15
ENDBRANCH   2  13
BRANCH   3  18
ATOM     18  C   UNL     1      35.912 -19.052 -21.333  0.00  0.00    +0.054 C 
ATOM     19  C   UNL     1      35.238 -16.997 -22.384  0.00  0.00    +0.000 C 
ATOM     20  C   UNL     1      34.888 -17.726 -23.546  0.00  0.00    +0.000 C 
ATOM     21  C   UNL     1      35.756 -17.682 -21.273  0.00  0.00    +0.005 C 
ATOM     22  C   UNL     1      35.580 -19.784 -22.449  0.00  0.00    +0.005 C 
ATOM     23  C   UNL     1      35.065 -19.120 -23.563  0.00  0.00    +0.000 C 
ATOM     24  C   UNL     1      34.370 -17.040 -24.657  0.00  0.00    +0.003 C 
ATOM     25  C   UNL     1      35.060 -15.604 -22.369  0.00  0.00    +0.000 C 
ATOM     26  C   UNL     1      34.201 -15.655 -24.624  0.00  0.00    +0.031 C 
ATOM     27  C   UNL     1      34.545 -14.939 -23.481  0.00  0.00    +0.003 C 
BRANCH  26  30
ATOM     28  N   UNL     1      32.392 -14.393 -25.763  0.00  0.00    -0.343 N 
ATOM     29  N   UNL     1      34.388 -14.862 -26.884  0.00  0.00    -0.285 NA
ATOM     30  C   UNL     1      33.664 -14.960 -25.782  0.00  0.00    +0.117 C 
ATOM     31  H   UNL     1      32.049 -13.926 -26.559  0.00  0.00    +0.144 HD
ATOM     32  H   UNL     1      31.836 -14.457 -24.953  0.00  0.00    +0.144 HD
ATOM     33  H   UNL     1      34.026 -14.392 -27.671  0.00  0.00    +0.188 HD
ENDBRANCH  26  30
ENDBRANCH   3  18
TORSDOF 4
ENDMDL
