MODEL 1
REMARK VINA RESULT:     -12.1      0.000      0.000
REMARK  Name = 11955716
REMARK  6 active torsions:
REMARK  status: ('A' for Active; 'I' for Inactive)
REMARK    1  A    between atoms: C_4  and  C_25
REMARK    2  A    between atoms: C_11  and  C_12
REMARK    3  A    between atoms: C_13  and  C_18
REMARK    4  A    between atoms: C_15  and  O_21
REMARK    5  A    between atoms: C_16  and  O_23
REMARK    6  A    between atoms: C_25  and  N_26
REMARK                            x       y       z     vdW  Elec       q    Type
REMARK                         _______ _______ _______ _____ _____    ______ ____
ROOT
ATOM      1  O   UNL     1      37.790 -22.768 -16.014  0.00  0.00    -0.269 OA
ATOM      2  N   UNL     1      36.078 -22.190 -17.477  0.00  0.00    -0.231 N 
ATOM      3  C   UNL     1      35.977 -20.949 -19.444  0.00  0.00    +0.016 C 
ATOM      4  C   UNL     1      35.170 -19.809 -21.376  0.00  0.00    -0.043 C 
ATOM      5  C   UNL     1      34.670 -21.340 -19.127  0.00  0.00    +0.016 C 
ATOM      6  C   UNL     1      36.936 -21.472 -18.428  0.00  0.00    +0.072 C 
ATOM      7  C   UNL     1      34.660 -22.158 -17.878  0.00  0.00    +0.072 C 
ATOM      8  C   UNL     1      36.243 -20.184 -20.565  0.00  0.00    -0.005 C 
ATOM      9  C   UNL     1      33.858 -20.201 -21.059  0.00  0.00    -0.006 C 
ATOM     10  C   UNL     1      33.601 -20.973 -19.925  0.00  0.00    +0.001 C 
ATOM     11  C   UNL     1      36.602 -22.756 -16.323  0.00  0.00    +0.259 C 
ENDROOT
BRANCH  11  12
ATOM     12  C   UNL     1      35.653 -23.378 -15.390  0.00  0.00    +0.088 C 
ATOM     13  C   UNL     1      33.372 -23.745 -14.694  0.00  0.00    +0.012 C 
ATOM     14  C   UNL     1      34.288 -23.164 -15.570  0.00  0.00    +0.006 C 
ATOM     15  C   UNL     1      36.105 -24.171 -14.338  0.00  0.00    +0.141 C 
ATOM     16  C   UNL     1      33.822 -24.540 -13.640  0.00  0.00    +0.133 C 
ATOM     17  C   UNL     1      35.189 -24.753 -13.462  0.00  0.00    +0.073 C 
BRANCH  13  18
ATOM     18  C   UNL     1      31.912 -23.507 -14.899  0.00  0.00    +0.025 C 
ATOM     19  C   UNL     1      31.584 -23.078 -16.340  0.00  0.00    +0.005 C 
ATOM     20  C   UNL     1      31.338 -22.482 -13.903  0.00  0.00    +0.005 C 
ENDBRANCH  13  18
BRANCH  15  21
ATOM     21  O   UNL     1      37.437 -24.390 -14.147  0.00  0.00    -0.505 OA
ATOM     22  H   UNL     1      38.064 -23.772 -14.468  0.00  0.00    +0.292 HD
ENDBRANCH  15  21
BRANCH  16  23
ATOM     23  O   UNL     1      32.941 -25.115 -12.774  0.00  0.00    -0.506 OA
ATOM     24  H   UNL     1      33.101 -25.977 -12.446  0.00  0.00    +0.292 HD
ENDBRANCH  16  23
ENDBRANCH  11  12
BRANCH   4  25
ATOM     25  C   UNL     1      35.418 -18.978 -22.598  0.00  0.00    -0.050 C 
BRANCH  25  26
ATOM     26  N   UNL     1      34.736 -17.687 -22.525  0.00  0.00    +0.387 N 
ATOM     27  N   UNL     1      34.689 -14.797 -22.524  0.00  0.00    +0.383 N 
ATOM     28  C   UNL     1      35.200 -16.919 -21.364  0.00  0.00    -0.100 C 
ATOM     29  C   UNL     1      34.939 -16.921 -23.761  0.00  0.00    -0.100 C 
ATOM     30  C   UNL     1      34.489 -15.563 -21.289  0.00  0.00    -0.101 C 
ATOM     31  C   UNL     1      34.226 -15.567 -23.686  0.00  0.00    -0.101 C 
ATOM     32  C   UNL     1      34.006 -13.506 -22.452  0.00  0.00    -0.101 C 
ATOM     33  H   UNL     1      33.738 -17.864 -22.417  0.00  0.00    -0.079 HD
ATOM     34  H   UNL     1      35.688 -14.619 -22.634  0.00  0.00    -0.080 HD
ENDBRANCH  25  26
ENDBRANCH   4  25
TORSDOF 6
ENDMDL
MODEL 2
REMARK VINA RESULT:     -11.3      1.750      3.568
REMARK  Name = 11955716
REMARK  6 active torsions:
REMARK  status: ('A' for Active; 'I' for Inactive)
REMARK    1  A    between atoms: C_4  and  C_25
REMARK    2  A    between atoms: C_11  and  C_12
REMARK    3  A    between atoms: C_13  and  C_18
REMARK    4  A    between atoms: C_15  and  O_21
REMARK    5  A    between atoms: C_16  and  O_23
REMARK    6  A    between atoms: C_25  and  N_26
REMARK                            x       y       z     vdW  Elec       q    Type
REMARK                         _______ _______ _______ _____ _____    ______ ____
ROOT
ATOM      1  O   UNL     1      32.280 -24.092 -15.320  0.00  0.00    -0.269 OA
ATOM      2  N   UNL     1      34.035 -23.042 -16.427  0.00  0.00    -0.231 N 
ATOM      3  C   UNL     1      34.243 -21.968 -18.482  0.00  0.00    +0.016 C 
ATOM      4  C   UNL     1      35.146 -20.840 -20.379  0.00  0.00    -0.043 C 
ATOM      5  C   UNL     1      35.511 -21.982 -17.885  0.00  0.00    +0.016 C 
ATOM      6  C   UNL     1      33.243 -22.626 -17.591  0.00  0.00    +0.072 C 
ATOM      7  C   UNL     1      35.449 -22.645 -16.549  0.00  0.00    +0.072 C 
ATOM      8  C   UNL     1      34.046 -21.401 -19.727  0.00  0.00    -0.005 C 
ATOM      9  C   UNL     1      36.418 -20.854 -19.781  0.00  0.00    -0.006 C 
ATOM     10  C   UNL     1      36.607 -21.429 -18.523  0.00  0.00    +0.001 C 
ATOM     11  C   UNL     1      33.465 -23.775 -15.396  0.00  0.00    +0.259 C 
ENDROOT
BRANCH  11  12
ATOM     12  C   UNL     1      34.356 -24.221 -14.315  0.00  0.00    +0.088 C 
ATOM     13  C   UNL     1      36.355 -25.384 -13.628  0.00  0.00    +0.012 C 
ATOM     14  C   UNL     1      35.497 -24.951 -14.639  0.00  0.00    +0.006 C 
ATOM     15  C   UNL     1      34.067 -23.922 -12.987  0.00  0.00    +0.141 C 
ATOM     16  C   UNL     1      36.069 -25.085 -12.295  0.00  0.00    +0.133 C 
ATOM     17  C   UNL     1      34.925 -24.354 -11.975  0.00  0.00    +0.073 C 
BRANCH  13  18
ATOM     18  C   UNL     1      37.575 -26.165 -13.989  0.00  0.00    +0.025 C 
ATOM     19  C   UNL     1      38.767 -25.260 -14.347  0.00  0.00    +0.005 C 
ATOM     20  C   UNL     1      37.315 -27.166 -15.130  0.00  0.00    +0.005 C 
ENDBRANCH  13  18
BRANCH  15  21
ATOM     21  O   UNL     1      32.954 -23.209 -12.653  0.00  0.00    -0.505 OA
ATOM     22  H   UNL     1      32.993 -22.275 -12.604  0.00  0.00    +0.292 HD
ENDBRANCH  15  21
BRANCH  16  23
ATOM     23  O   UNL     1      36.895 -25.501 -11.295  0.00  0.00    -0.506 OA
ATOM     24  H   UNL     1      36.642 -25.389 -10.401  0.00  0.00    +0.292 HD
ENDBRANCH  16  23
ENDBRANCH  11  12
BRANCH   4  25
ATOM     25  C   UNL     1      34.972 -20.219 -21.730  0.00  0.00    -0.050 C 
BRANCH  25  26
ATOM     26  N   UNL     1      35.251 -18.784 -21.709  0.00  0.00    +0.387 N 
ATOM     27  N   UNL     1      34.539 -16.016 -22.140  0.00  0.00    +0.383 N 
ATOM     28  C   UNL     1      35.173 -18.220 -23.062  0.00  0.00    -0.100 C 
ATOM     29  C   UNL     1      34.325 -18.086 -20.809  0.00  0.00    -0.100 C 
ATOM     30  C   UNL     1      35.463 -16.715 -23.042  0.00  0.00    -0.101 C 
ATOM     31  C   UNL     1      34.616 -16.582 -20.787  0.00  0.00    -0.101 C 
ATOM     32  C   UNL     1      34.820 -14.581 -22.118  0.00  0.00    -0.101 C 
ATOM     33  H   UNL     1      36.199 -18.653 -21.359  0.00  0.00    -0.079 HD
ATOM     34  H   UNL     1      33.589 -16.146 -22.489  0.00  0.00    -0.080 HD
ENDBRANCH  25  26
ENDBRANCH   4  25
TORSDOF 6
ENDMDL
MODEL 3
REMARK VINA RESULT:     -11.3      3.828      7.422
REMARK  Name = 11955716
REMARK  6 active torsions:
REMARK  status: ('A' for Active; 'I' for Inactive)
REMARK    1  A    between atoms: C_4  and  C_25
REMARK    2  A    between atoms: C_11  and  C_12
REMARK    3  A    between atoms: C_13  and  C_18
REMARK    4  A    between atoms: C_15  and  O_21
REMARK    5  A    between atoms: C_16  and  O_23
REMARK    6  A    between atoms: C_25  and  N_26
REMARK                            x       y       z     vdW  Elec       q    Type
REMARK                         _______ _______ _______ _____ _____    ______ ____
ROOT
ATOM      1  O   UNL     1      35.684 -18.313 -23.835  0.00  0.00    -0.269 OA
ATOM      2  N   UNL     1      34.663 -16.874 -22.321  0.00  0.00    -0.231 N 
ATOM      3  C   UNL     1      33.665 -14.778 -22.497  0.00  0.00    +0.016 C 
ATOM      4  C   UNL     1      32.602 -12.711 -21.963  0.00  0.00    -0.043 C 
ATOM      5  C   UNL     1      33.647 -15.139 -21.144  0.00  0.00    +0.016 C 
ATOM      6  C   UNL     1      34.297 -15.856 -23.313  0.00  0.00    +0.072 C 
ATOM      7  C   UNL     1      34.259 -16.487 -20.957  0.00  0.00    +0.072 C 
ATOM      8  C   UNL     1      33.147 -13.569 -22.922  0.00  0.00    -0.005 C 
ATOM      9  C   UNL     1      32.583 -13.073 -20.605  0.00  0.00    -0.006 C 
ATOM     10  C   UNL     1      33.109 -14.297 -20.187  0.00  0.00    +0.001 C 
ATOM     11  C   UNL     1      35.361 -18.015 -22.688  0.00  0.00    +0.259 C 
ENDROOT
BRANCH  11  12
ATOM     12  C   UNL     1      35.759 -18.935 -21.612  0.00  0.00    +0.088 C 
ATOM     13  C   UNL     1      35.136 -20.569 -19.950  0.00  0.00    +0.012 C 
ATOM     14  C   UNL     1      34.779 -19.691 -20.974  0.00  0.00    +0.006 C 
ATOM     15  C   UNL     1      37.094 -19.051 -21.233  0.00  0.00    +0.141 C 
ATOM     16  C   UNL     1      36.473 -20.688 -19.569  0.00  0.00    +0.133 C 
ATOM     17  C   UNL     1      37.452 -19.929 -20.210  0.00  0.00    +0.073 C 
BRANCH  13  18
ATOM     18  C   UNL     1      34.075 -21.374 -19.275  0.00  0.00    +0.025 C 
ATOM     19  C   UNL     1      34.236 -22.885 -19.524  0.00  0.00    +0.005 C 
ATOM     20  C   UNL     1      32.656 -20.926 -19.670  0.00  0.00    +0.005 C 
ENDBRANCH  13  18
BRANCH  15  21
ATOM     21  O   UNL     1      38.065 -18.317 -21.847  0.00  0.00    -0.505 OA
ATOM     22  H   UNL     1      38.952 -18.616 -21.840  0.00  0.00    +0.292 HD
ENDBRANCH  15  21
BRANCH  16  23
ATOM     23  O   UNL     1      36.839 -21.540 -18.570  0.00  0.00    -0.506 OA
ATOM     24  H   UNL     1      36.930 -21.224 -17.694  0.00  0.00    +0.292 HD
ENDBRANCH  16  23
ENDBRANCH  11  12
BRANCH   4  25
ATOM     25  C   UNL     1      32.033 -11.392 -22.384  0.00  0.00    -0.050 C 
BRANCH  25  26
ATOM     26  N   UNL     1      33.054 -10.347 -22.423  0.00  0.00    +0.387 N 
ATOM     27  N   UNL     1      34.264  -7.970 -23.538  0.00  0.00    +0.383 N 
ATOM     28  C   UNL     1      33.796 -10.392 -23.689  0.00  0.00    -0.100 C 
ATOM     29  C   UNL     1      32.451  -9.022 -22.230  0.00  0.00    -0.100 C 
ATOM     30  C   UNL     1      34.865  -9.294 -23.733  0.00  0.00    -0.101 C 
ATOM     31  C   UNL     1      33.520  -7.925 -22.272  0.00  0.00    -0.101 C 
ATOM     32  C   UNL     1      35.286  -6.925 -23.576  0.00  0.00    -0.101 C 
ATOM     33  H   UNL     1      33.708 -10.516 -21.660  0.00  0.00    -0.079 HD
ATOM     34  H   UNL     1      33.609  -7.798 -24.301  0.00  0.00    -0.080 HD
ENDBRANCH  25  26
ENDBRANCH   4  25
TORSDOF 6
ENDMDL
MODEL 4
REMARK VINA RESULT:     -11.2      3.601      7.194
REMARK  Name = 11955716
REMARK  6 active torsions:
REMARK  status: ('A' for Active; 'I' for Inactive)
REMARK    1  A    between atoms: C_4  and  C_25
REMARK    2  A    between atoms: C_11  and  C_12
REMARK    3  A    between atoms: C_13  and  C_18
REMARK    4  A    between atoms: C_15  and  O_21
REMARK    5  A    between atoms: C_16  and  O_23
REMARK    6  A    between atoms: C_25  and  N_26
REMARK                            x       y       z     vdW  Elec       q    Type
REMARK                         _______ _______ _______ _____ _____    ______ ____
ROOT
ATOM      1  O   UNL     1      35.325 -19.363 -23.785  0.00  0.00    -0.269 OA
ATOM      2  N   UNL     1      34.920 -17.427 -22.562  0.00  0.00    -0.231 N 
ATOM      3  C   UNL     1      34.337 -15.246 -23.127  0.00  0.00    +0.016 C 
ATOM      4  C   UNL     1      33.824 -12.920 -22.995  0.00  0.00    -0.043 C 
ATOM      5  C   UNL     1      34.513 -15.287 -21.737  0.00  0.00    +0.016 C 
ATOM      6  C   UNL     1      34.574 -16.594 -23.720  0.00  0.00    +0.072 C 
ATOM      7  C   UNL     1      34.874 -16.667 -21.300  0.00  0.00    +0.072 C 
ATOM      8  C   UNL     1      33.993 -14.071 -23.769  0.00  0.00    -0.005 C 
ATOM      9  C   UNL     1      33.999 -12.961 -21.602  0.00  0.00    -0.006 C 
ATOM     10  C   UNL     1      34.347 -14.153 -20.962  0.00  0.00    +0.001 C 
ATOM     11  C   UNL     1      35.297 -18.754 -22.719  0.00  0.00    +0.259 C 
ENDROOT
BRANCH  11  12
ATOM     12  C   UNL     1      35.709 -19.483 -21.511  0.00  0.00    +0.088 C 
ATOM     13  C   UNL     1      35.136 -20.947 -19.680  0.00  0.00    +0.012 C 
ATOM     14  C   UNL     1      34.765 -20.247 -20.829  0.00  0.00    +0.006 C 
ATOM     15  C   UNL     1      37.021 -19.413 -21.051  0.00  0.00    +0.141 C 
ATOM     16  C   UNL     1      36.451 -20.879 -19.217  0.00  0.00    +0.133 C 
ATOM     17  C   UNL     1      37.393 -20.112 -19.902  0.00  0.00    +0.073 C 
BRANCH  13  18
ATOM     18  C   UNL     1      34.115 -21.763 -18.959  0.00  0.00    +0.025 C 
ATOM     19  C   UNL     1      34.163 -23.249 -19.357  0.00  0.00    +0.005 C 
ATOM     20  C   UNL     1      32.687 -21.216 -19.147  0.00  0.00    +0.005 C 
ENDBRANCH  13  18
BRANCH  15  21
ATOM     21  O   UNL     1      37.956 -18.668 -21.706  0.00  0.00    -0.505 OA
ATOM     22  H   UNL     1      38.787 -18.504 -21.307  0.00  0.00    +0.292 HD
ENDBRANCH  15  21
BRANCH  16  23
ATOM     23  O   UNL     1      36.829 -21.555 -18.097  0.00  0.00    -0.506 OA
ATOM     24  H   UNL     1      37.012 -22.472 -18.142  0.00  0.00    +0.292 HD
ENDBRANCH  16  23
ENDBRANCH  11  12
BRANCH   4  25
ATOM     25  C   UNL     1      33.453 -11.629 -23.656  0.00  0.00    -0.050 C 
BRANCH  25  26
ATOM     26  N   UNL     1      33.293 -10.548 -22.685  0.00  0.00    +0.387 N 
ATOM     27  N   UNL     1      32.061  -8.118 -21.716  0.00  0.00    +0.383 N 
ATOM     28  C   UNL     1      33.584  -9.248 -23.302  0.00  0.00    -0.100 C 
ATOM     29  C   UNL     1      31.939 -10.553 -22.118  0.00  0.00    -0.100 C 
ATOM     30  C   UNL     1      33.413  -8.113 -22.287  0.00  0.00    -0.101 C 
ATOM     31  C   UNL     1      31.769  -9.420 -21.100  0.00  0.00    -0.101 C 
ATOM     32  C   UNL     1      31.902  -7.038 -20.745  0.00  0.00    -0.101 C 
ATOM     33  H   UNL     1      33.959 -10.702 -21.929  0.00  0.00    -0.079 HD
ATOM     34  H   UNL     1      31.393  -7.964 -22.472  0.00  0.00    -0.080 HD
ENDBRANCH  25  26
ENDBRANCH   4  25
TORSDOF 6
ENDMDL
MODEL 5
REMARK VINA RESULT:     -11.0      3.497      9.719
REMARK  Name = 11955716
REMARK  6 active torsions:
REMARK  status: ('A' for Active; 'I' for Inactive)
REMARK    1  A    between atoms: C_4  and  C_25
REMARK    2  A    between atoms: C_11  and  C_12
REMARK    3  A    between atoms: C_13  and  C_18
REMARK    4  A    between atoms: C_15  and  O_21
REMARK    5  A    between atoms: C_16  and  O_23
REMARK    6  A    between atoms: C_25  and  N_26
REMARK                            x       y       z     vdW  Elec       q    Type
REMARK                         _______ _______ _______ _____ _____    ______ ____
ROOT
ATOM      1  O   UNL     1      37.685 -18.674 -21.666  0.00  0.00    -0.269 OA
ATOM      2  N   UNL     1      35.738 -19.539 -20.735  0.00  0.00    -0.231 N 
ATOM      3  C   UNL     1      35.283 -21.268 -19.246  0.00  0.00    +0.016 C 
ATOM      4  C   UNL     1      34.139 -22.853 -17.879  0.00  0.00    -0.043 C 
ATOM      5  C   UNL     1      34.054 -20.732 -19.654  0.00  0.00    +0.016 C 
ATOM      6  C   UNL     1      36.409 -20.538 -19.897  0.00  0.00    +0.072 C 
ATOM      7  C   UNL     1      34.271 -19.601 -20.604  0.00  0.00    +0.072 C 
ATOM      8  C   UNL     1      35.341 -22.327 -18.359  0.00  0.00    -0.005 C 
ATOM      9  C   UNL     1      32.907 -22.315 -18.288  0.00  0.00    -0.006 C 
ATOM     10  C   UNL     1      32.859 -21.245 -19.184  0.00  0.00    +0.001 C 
ATOM     11  C   UNL     1      36.460 -18.705 -21.577  0.00  0.00    +0.259 C 
ENDROOT
BRANCH  11  12
ATOM     12  C   UNL     1      35.695 -17.796 -22.443  0.00  0.00    +0.088 C 
ATOM     13  C   UNL     1      34.670 -15.639 -22.787  0.00  0.00    +0.012 C 
ATOM     14  C   UNL     1      35.395 -16.517 -21.981  0.00  0.00    +0.006 C 
ATOM     15  C   UNL     1      35.274 -18.203 -23.706  0.00  0.00    +0.141 C 
ATOM     16  C   UNL     1      34.246 -16.044 -24.053  0.00  0.00    +0.133 C 
ATOM     17  C   UNL     1      34.548 -17.326 -24.513  0.00  0.00    +0.073 C 
BRANCH  13  18
ATOM     18  C   UNL     1      34.356 -14.270 -22.279  0.00  0.00    +0.025 C 
ATOM     19  C   UNL     1      33.044 -14.229 -21.475  0.00  0.00    +0.005 C 
ATOM     20  C   UNL     1      34.313 -13.222 -23.407  0.00  0.00    +0.005 C 
ENDBRANCH  13  18
BRANCH  15  21
ATOM     21  O   UNL     1      35.558 -19.452 -24.172  0.00  0.00    -0.505 OA
ATOM     22  H   UNL     1      34.941 -20.147 -24.055  0.00  0.00    +0.292 HD
ENDBRANCH  15  21
BRANCH  16  23
ATOM     23  O   UNL     1      33.536 -15.200 -24.853  0.00  0.00    -0.506 OA
ATOM     24  H   UNL     1      33.468 -15.371 -25.771  0.00  0.00    +0.292 HD
ENDBRANCH  16  23
ENDBRANCH  11  12
BRANCH   4  25
ATOM     25  C   UNL     1      34.162 -24.001 -16.919  0.00  0.00    -0.050 C 
BRANCH  25  26
ATOM     26  N   UNL     1      34.540 -23.578 -15.572  0.00  0.00    +0.387 N 
ATOM     27  N   UNL     1      35.564 -24.062 -12.912  0.00  0.00    +0.383 N 
ATOM     28  C   UNL     1      33.736 -24.276 -14.562  0.00  0.00    -0.100 C 
ATOM     29  C   UNL     1      35.971 -23.809 -15.336  0.00  0.00    -0.100 C 
ATOM     30  C   UNL     1      34.134 -23.835 -13.149  0.00  0.00    -0.101 C 
ATOM     31  C   UNL     1      36.369 -23.366 -13.924  0.00  0.00    -0.101 C 
ATOM     32  C   UNL     1      35.943 -23.637 -11.566  0.00  0.00    -0.101 C 
ATOM     33  H   UNL     1      34.359 -22.578 -15.494  0.00  0.00    -0.079 HD
ATOM     34  H   UNL     1      35.747 -25.063 -12.990  0.00  0.00    -0.080 HD
ENDBRANCH  25  26
ENDBRANCH   4  25
TORSDOF 6
ENDMDL
MODEL 6
REMARK VINA RESULT:     -10.7      1.436      3.087
REMARK  Name = 11955716
REMARK  6 active torsions:
REMARK  status: ('A' for Active; 'I' for Inactive)
REMARK    1  A    between atoms: C_4  and  C_25
REMARK    2  A    between atoms: C_11  and  C_12
REMARK    3  A    between atoms: C_13  and  C_18
REMARK    4  A    between atoms: C_15  and  O_21
REMARK    5  A    between atoms: C_16  and  O_23
REMARK    6  A    between atoms: C_25  and  N_26
REMARK                            x       y       z     vdW  Elec       q    Type
REMARK                         _______ _______ _______ _____ _____    ______ ____
ROOT
ATOM      1  O   UNL     1      31.514 -22.902 -17.111  0.00  0.00    -0.269 OA
ATOM      2  N   UNL     1      33.521 -22.065 -17.935  0.00  0.00    -0.231 N 
ATOM      3  C   UNL     1      34.124 -20.906 -19.862  0.00  0.00    +0.016 C 
ATOM      4  C   UNL     1      35.398 -19.811 -21.554  0.00  0.00    -0.043 C 
ATOM      5  C   UNL     1      35.297 -21.153 -19.136  0.00  0.00    +0.016 C 
ATOM      6  C   UNL     1      32.941 -21.458 -19.140  0.00  0.00    +0.072 C 
ATOM      7  C   UNL     1      34.982 -21.882 -17.873  0.00  0.00    +0.072 C 
ATOM      8  C   UNL     1      34.159 -20.237 -21.071  0.00  0.00    -0.005 C 
ATOM      9  C   UNL     1      36.575 -20.057 -20.826  0.00  0.00    -0.006 C 
ATOM     10  C   UNL     1      36.529 -20.734 -19.606  0.00  0.00    +0.001 C 
ATOM     11  C   UNL     1      32.733 -22.767 -17.034  0.00  0.00    +0.259 C 
ENDROOT
BRANCH  11  12
ATOM     12  C   UNL     1      33.416 -23.412 -15.904  0.00  0.00    +0.088 C 
ATOM     13  C   UNL     1      35.473 -23.968 -14.773  0.00  0.00    +0.012 C 
ATOM     14  C   UNL     1      34.806 -23.361 -15.837  0.00  0.00    +0.006 C 
ATOM     15  C   UNL     1      32.689 -24.066 -14.913  0.00  0.00    +0.141 C 
ATOM     16  C   UNL     1      34.747 -24.624 -13.778  0.00  0.00    +0.133 C 
ATOM     17  C   UNL     1      33.355 -24.673 -13.848  0.00  0.00    +0.073 C 
BRANCH  13  18
ATOM     18  C   UNL     1      36.964 -23.906 -14.713  0.00  0.00    +0.025 C 
ATOM     19  C   UNL     1      37.551 -22.912 -15.732  0.00  0.00    +0.005 C 
ATOM     20  C   UNL     1      37.617 -25.289 -14.892  0.00  0.00    +0.005 C 
ENDBRANCH  13  18
BRANCH  15  21
ATOM     21  O   UNL     1      31.328 -24.126 -14.965  0.00  0.00    -0.505 OA
ATOM     22  H   UNL     1      30.824 -24.008 -14.184  0.00  0.00    +0.292 HD
ENDBRANCH  15  21
BRANCH  16  23
ATOM     23  O   UNL     1      35.383 -25.223 -12.732  0.00  0.00    -0.506 OA
ATOM     24  H   UNL     1      35.455 -26.156 -12.700  0.00  0.00    +0.292 HD
ENDBRANCH  16  23
ENDBRANCH  11  12
BRANCH   4  25
ATOM     25  C   UNL     1      35.477 -19.084 -22.861  0.00  0.00    -0.050 C 
BRANCH  25  26
ATOM     26  N   UNL     1      34.809 -17.786 -22.803  0.00  0.00    +0.387 N 
ATOM     27  N   UNL     1      34.787 -14.896 -22.879  0.00  0.00    +0.383 N 
ATOM     28  C   UNL     1      35.317 -16.990 -21.678  0.00  0.00    -0.100 C 
ATOM     29  C   UNL     1      34.980 -17.055 -24.065  0.00  0.00    -0.100 C 
ATOM     30  C   UNL     1      34.620 -15.626 -21.618  0.00  0.00    -0.101 C 
ATOM     31  C   UNL     1      34.281 -15.692 -24.005  0.00  0.00    -0.101 C 
ATOM     32  C   UNL     1      34.118 -13.598 -22.821  0.00  0.00    -0.101 C 
ATOM     33  H   UNL     1      33.814 -17.950 -22.659  0.00  0.00    -0.079 HD
ATOM     34  H   UNL     1      35.784 -14.731 -23.025  0.00  0.00    -0.080 HD
ENDBRANCH  25  26
ENDBRANCH   4  25
TORSDOF 6
ENDMDL
MODEL 7
REMARK VINA RESULT:     -10.3      1.761      3.277
REMARK  Name = 11955716
REMARK  6 active torsions:
REMARK  status: ('A' for Active; 'I' for Inactive)
REMARK    1  A    between atoms: C_4  and  C_25
REMARK    2  A    between atoms: C_11  and  C_12
REMARK    3  A    between atoms: C_13  and  C_18
REMARK    4  A    between atoms: C_15  and  O_21
REMARK    5  A    between atoms: C_16  and  O_23
REMARK    6  A    between atoms: C_25  and  N_26
REMARK                            x       y       z     vdW  Elec       q    Type
REMARK                         _______ _______ _______ _____ _____    ______ ____
ROOT
ATOM      1  O   UNL     1      32.834 -24.053 -15.556  0.00  0.00    -0.269 OA
ATOM      2  N   UNL     1      34.482 -22.935 -16.757  0.00  0.00    -0.231 N 
ATOM      3  C   UNL     1      34.501 -21.733 -18.750  0.00  0.00    +0.016 C 
ATOM      4  C   UNL     1      35.227 -20.486 -20.649  0.00  0.00    -0.043 C 
ATOM      5  C   UNL     1      35.819 -21.784 -18.279  0.00  0.00    +0.016 C 
ATOM      6  C   UNL     1      33.586 -22.445 -17.811  0.00  0.00    +0.072 C 
ATOM      7  C   UNL     1      35.881 -22.531 -16.988  0.00  0.00    +0.072 C 
ATOM      8  C   UNL     1      34.190 -21.087 -19.932  0.00  0.00    -0.005 C 
ATOM      9  C   UNL     1      36.549 -20.537 -20.177  0.00  0.00    -0.006 C 
ATOM     10  C   UNL     1      36.853 -21.191 -18.981  0.00  0.00    +0.001 C 
ATOM     11  C   UNL     1      34.008 -23.732 -15.725  0.00  0.00    +0.259 C 
ENDROOT
BRANCH  11  12
ATOM     12  C   UNL     1      34.994 -24.246 -14.764  0.00  0.00    +0.088 C 
ATOM     13  C   UNL     1      36.185 -23.986 -12.682  0.00  0.00    +0.012 C 
ATOM     14  C   UNL     1      35.252 -23.516 -13.606  0.00  0.00    +0.006 C 
ATOM     15  C   UNL     1      35.665 -25.442 -15.004  0.00  0.00    +0.141 C 
ATOM     16  C   UNL     1      36.858 -25.185 -12.919  0.00  0.00    +0.133 C 
ATOM     17  C   UNL     1      36.599 -25.913 -14.080  0.00  0.00    +0.073 C 
BRANCH  13  18
ATOM     18  C   UNL     1      36.452 -23.195 -11.444  0.00  0.00    +0.025 C 
ATOM     19  C   UNL     1      37.913 -22.722 -11.352  0.00  0.00    +0.005 C 
ATOM     20  C   UNL     1      36.066 -23.959 -10.164  0.00  0.00    +0.005 C 
ENDBRANCH  13  18
BRANCH  15  21
ATOM     21  O   UNL     1      35.425 -26.167 -16.133  0.00  0.00    -0.505 OA
ATOM     22  H   UNL     1      35.962 -26.044 -16.891  0.00  0.00    +0.292 HD
ENDBRANCH  15  21
BRANCH  16  23
ATOM     23  O   UNL     1      37.774 -25.658 -12.028  0.00  0.00    -0.506 OA
ATOM     24  H   UNL     1      37.585 -25.646 -11.110  0.00  0.00    +0.292 HD
ENDBRANCH  16  23
ENDBRANCH  11  12
BRANCH   4  25
ATOM     25  C   UNL     1      34.929 -19.780 -21.935  0.00  0.00    -0.050 C 
BRANCH  25  26
ATOM     26  N   UNL     1      35.211 -18.349 -21.848  0.00  0.00    +0.387 N 
ATOM     27  N   UNL     1      34.474 -15.561 -22.058  0.00  0.00    +0.383 N 
ATOM     28  C   UNL     1      35.035 -17.704 -23.155  0.00  0.00    -0.100 C 
ATOM     29  C   UNL     1      34.354 -17.709 -20.843  0.00  0.00    -0.100 C 
ATOM     30  C   UNL     1      35.328 -16.202 -23.065  0.00  0.00    -0.101 C 
ATOM     31  C   UNL     1      34.648 -16.208 -20.751  0.00  0.00    -0.101 C 
ATOM     32  C   UNL     1      34.757 -14.130 -21.971  0.00  0.00    -0.101 C 
ATOM     33  H   UNL     1      36.182 -18.236 -21.561  0.00  0.00    -0.079 HD
ATOM     34  H   UNL     1      33.500 -15.673 -22.344  0.00  0.00    -0.080 HD
ENDBRANCH  25  26
ENDBRANCH   4  25
TORSDOF 6
ENDMDL
MODEL 8
REMARK VINA RESULT:     -10.0      5.376     11.590
REMARK  Name = 11955716
REMARK  6 active torsions:
REMARK  status: ('A' for Active; 'I' for Inactive)
REMARK    1  A    between atoms: C_4  and  C_25
REMARK    2  A    between atoms: C_11  and  C_12
REMARK    3  A    between atoms: C_13  and  C_18
REMARK    4  A    between atoms: C_15  and  O_21
REMARK    5  A    between atoms: C_16  and  O_23
REMARK    6  A    between atoms: C_25  and  N_26
REMARK                            x       y       z     vdW  Elec       q    Type
REMARK                         _______ _______ _______ _____ _____    ______ ____
ROOT
ATOM      1  O   UNL     1      31.997 -12.560 -19.308  0.00  0.00    -0.269 OA
ATOM      2  N   UNL     1      33.062 -13.708 -21.027  0.00  0.00    -0.231 N 
ATOM      3  C   UNL     1      34.141 -15.765 -21.177  0.00  0.00    +0.016 C 
ATOM      4  C   UNL     1      35.380 -17.630 -21.996  0.00  0.00    -0.043 C 
ATOM      5  C   UNL     1      34.261 -15.136 -22.423  0.00  0.00    +0.016 C 
ATOM      6  C   UNL     1      33.370 -14.904 -20.233  0.00  0.00    +0.072 C 
ATOM      7  C   UNL     1      33.574 -13.812 -22.405  0.00  0.00    +0.072 C 
ATOM      8  C   UNL     1      34.695 -17.011 -20.948  0.00  0.00    -0.005 C 
ATOM      9  C   UNL     1      35.500 -17.001 -23.246  0.00  0.00    -0.006 C 
ATOM     10  C   UNL     1      34.937 -15.742 -23.467  0.00  0.00    +0.001 C 
ATOM     11  C   UNL     1      32.414 -12.619 -20.462  0.00  0.00    +0.259 C 
ENDROOT
BRANCH  11  12
ATOM     12  C   UNL     1      32.226 -11.434 -21.311  0.00  0.00    +0.088 C 
ATOM     13  C   UNL     1      33.038  -9.999 -23.073  0.00  0.00    +0.012 C 
ATOM     14  C   UNL     1      33.197 -11.120 -22.258  0.00  0.00    +0.006 C 
ATOM     15  C   UNL     1      31.095 -10.633 -21.174  0.00  0.00    +0.141 C 
ATOM     16  C   UNL     1      31.906  -9.195 -22.938  0.00  0.00    +0.133 C 
ATOM     17  C   UNL     1      30.935  -9.511 -21.988  0.00  0.00    +0.073 C 
BRANCH  13  18
ATOM     18  C   UNL     1      34.087  -9.675 -24.085  0.00  0.00    +0.025 C 
ATOM     19  C   UNL     1      34.879 -10.918 -24.528  0.00  0.00    +0.005 C 
ATOM     20  C   UNL     1      35.056  -8.582 -23.597  0.00  0.00    +0.005 C 
ENDBRANCH  13  18
BRANCH  15  21
ATOM     21  O   UNL     1      30.136 -10.925 -20.250  0.00  0.00    -0.505 OA
ATOM     22  H   UNL     1      30.049 -10.395 -19.482  0.00  0.00    +0.292 HD
ENDBRANCH  15  21
BRANCH  16  23
ATOM     23  O   UNL     1      31.734  -8.096 -23.725  0.00  0.00    -0.506 OA
ATOM     24  H   UNL     1      32.053  -7.262 -23.441  0.00  0.00    +0.292 HD
ENDBRANCH  16  23
ENDBRANCH  11  12
BRANCH   4  25
ATOM     25  C   UNL     1      35.996 -18.979 -21.786  0.00  0.00    -0.050 C 
BRANCH  25  26
ATOM     26  N   UNL     1      35.420 -19.666 -20.631  0.00  0.00    +0.387 N 
ATOM     27  N   UNL     1      34.323 -21.984 -19.297  0.00  0.00    +0.383 N 
ATOM     28  C   UNL     1      34.068 -20.151 -20.935  0.00  0.00    -0.100 C 
ATOM     29  C   UNL     1      36.279 -20.778 -20.205  0.00  0.00    -0.100 C 
ATOM     30  C   UNL     1      33.464 -20.875 -19.727  0.00  0.00    -0.101 C 
ATOM     31  C   UNL     1      35.676 -21.499 -18.995  0.00  0.00    -0.101 C 
ATOM     32  C   UNL     1      33.748 -22.670 -18.142  0.00  0.00    -0.101 C 
ATOM     33  H   UNL     1      35.358 -18.996 -19.865  0.00  0.00    -0.079 HD
ATOM     34  H   UNL     1      34.387 -22.656 -20.063  0.00  0.00    -0.080 HD
ENDBRANCH  25  26
ENDBRANCH   4  25
TORSDOF 6
ENDMDL
MODEL 9
REMARK VINA RESULT:      -9.8      1.209      2.309
REMARK  Name = 11955716
REMARK  6 active torsions:
REMARK  status: ('A' for Active; 'I' for Inactive)
REMARK    1  A    between atoms: C_4  and  C_25
REMARK    2  A    between atoms: C_11  and  C_12
REMARK    3  A    between atoms: C_13  and  C_18
REMARK    4  A    between atoms: C_15  and  O_21
REMARK    5  A    between atoms: C_16  and  O_23
REMARK    6  A    between atoms: C_25  and  N_26
REMARK                            x       y       z     vdW  Elec       q    Type
REMARK                         _______ _______ _______ _____ _____    ______ ____
ROOT
ATOM      1  O   UNL     1      38.030 -22.776 -16.159  0.00  0.00    -0.269 OA
ATOM      2  N   UNL     1      36.225 -22.161 -17.490  0.00  0.00    -0.231 N 
ATOM      3  C   UNL     1      36.011 -20.971 -19.480  0.00  0.00    +0.016 C 
ATOM      4  C   UNL     1      35.091 -19.850 -21.373  0.00  0.00    -0.043 C 
ATOM      5  C   UNL     1      34.719 -21.294 -19.042  0.00  0.00    +0.016 C 
ATOM      6  C   UNL     1      37.029 -21.509 -18.531  0.00  0.00    +0.072 C 
ATOM      7  C   UNL     1      34.781 -22.075 -17.772  0.00  0.00    +0.072 C 
ATOM      8  C   UNL     1      36.212 -20.251 -20.642  0.00  0.00    -0.005 C 
ATOM      9  C   UNL     1      33.796 -20.173 -20.934  0.00  0.00    -0.006 C 
ATOM     10  C   UNL     1      33.603 -20.901 -19.759  0.00  0.00    +0.001 C 
ATOM     11  C   UNL     1      36.820 -22.718 -16.367  0.00  0.00    +0.259 C 
ENDROOT
BRANCH  11  12
ATOM     12  C   UNL     1      35.929 -23.270 -15.338  0.00  0.00    +0.088 C 
ATOM     13  C   UNL     1      35.472 -23.698 -13.008  0.00  0.00    +0.012 C 
ATOM     14  C   UNL     1      36.304 -23.179 -14.000  0.00  0.00    +0.006 C 
ATOM     15  C   UNL     1      34.726 -23.877 -15.689  0.00  0.00    +0.141 C 
ATOM     16  C   UNL     1      34.266 -24.306 -13.357  0.00  0.00    +0.133 C 
ATOM     17  C   UNL     1      33.893 -24.396 -14.698  0.00  0.00    +0.073 C 
BRANCH  13  18
ATOM     18  C   UNL     1      35.886 -23.593 -11.577  0.00  0.00    +0.025 C 
ATOM     19  C   UNL     1      37.201 -22.812 -11.402  0.00  0.00    +0.005 C 
ATOM     20  C   UNL     1      35.999 -24.969 -10.896  0.00  0.00    +0.005 C 
ENDBRANCH  13  18
BRANCH  15  21
ATOM     21  O   UNL     1      34.344 -23.976 -16.995  0.00  0.00    -0.505 OA
ATOM     22  H   UNL     1      34.992 -24.028 -17.669  0.00  0.00    +0.292 HD
ENDBRANCH  15  21
BRANCH  16  23
ATOM     23  O   UNL     1      33.442 -24.819 -12.401  0.00  0.00    -0.506 OA
ATOM     24  H   UNL     1      33.804 -25.234 -11.644  0.00  0.00    +0.292 HD
ENDBRANCH  16  23
ENDBRANCH  11  12
BRANCH   4  25
ATOM     25  C   UNL     1      35.269 -19.066 -22.636  0.00  0.00    -0.050 C 
BRANCH  25  26
ATOM     26  N   UNL     1      34.651 -17.745 -22.548  0.00  0.00    +0.387 N 
ATOM     27  N   UNL     1      34.740 -14.855 -22.531  0.00  0.00    +0.383 N 
ATOM     28  C   UNL     1      35.165 -17.005 -21.389  0.00  0.00    -0.100 C 
ATOM     29  C   UNL     1      34.874 -16.981 -23.782  0.00  0.00    -0.100 C 
ATOM     30  C   UNL     1      34.519 -15.618 -21.297  0.00  0.00    -0.101 C 
ATOM     31  C   UNL     1      34.227 -15.596 -23.692  0.00  0.00    -0.101 C 
ATOM     32  C   UNL     1      34.119 -13.534 -22.444  0.00  0.00    -0.101 C 
ATOM     33  H   UNL     1      33.647 -17.874 -22.429  0.00  0.00    -0.079 HD
ATOM     34  H   UNL     1      35.744 -14.724 -22.653  0.00  0.00    -0.080 HD
ENDBRANCH  25  26
ENDBRANCH   4  25
TORSDOF 6
ENDMDL
