MODEL 1
REMARK VINA RESULT:     -11.3      0.000      0.000
REMARK  Name = 5327153
REMARK  6 active torsions:
REMARK  status: ('A' for Active; 'I' for Inactive)
REMARK    1  A    between atoms: C_3  and  C_15
REMARK    2  A    between atoms: C_10  and  O_24
REMARK    3  A    between atoms: C_11  and  N_18
REMARK    4  A    between atoms: N_18  and  S_20
REMARK    5  A    between atoms: O_24  and  C_25
REMARK    6  A    between atoms: C_25  and  C_26
REMARK                            x       y       z     vdW  Elec       q    Type
REMARK                         _______ _______ _______ _____ _____    ______ ____
ROOT
ATOM      1  O   UNL     1      37.208 -22.032 -16.325  0.00  0.00    -0.226 OA
ATOM      2  N   UNL     1      35.080 -22.931 -16.007  0.00  0.00    -0.235 N 
ATOM      3  C   UNL     1      35.360 -23.379 -14.643  0.00  0.00    +0.159 C 
ATOM      4  C   UNL     1      34.211 -23.088 -13.683  0.00  0.00    +0.055 C 
ATOM      5  C   UNL     1      33.785 -23.288 -16.606  0.00  0.00    +0.124 C 
ATOM      6  C   UNL     1      32.864 -23.461 -14.244  0.00  0.00    -0.022 C 
ATOM      7  C   UNL     1      32.665 -23.536 -15.630  0.00  0.00    -0.005 C 
ATOM      8  C   UNL     1      31.394 -23.861 -16.124  0.00  0.00    +0.013 C 
ATOM      9  C   UNL     1      31.787 -23.686 -13.374  0.00  0.00    -0.003 C 
ATOM     10  C   UNL     1      36.107 -22.351 -16.770  0.00  0.00    +0.406 C 
ATOM     11  C   UNL     1      30.330 -24.096 -15.253  0.00  0.00    +0.065 C 
ATOM     12  C   UNL     1      30.527 -24.006 -13.878  0.00  0.00    +0.016 C 
ENDROOT
BRANCH   3  15
ATOM     13  O   UNL     1      34.833 -25.710 -14.585  0.00  0.00    -0.273 OA
ATOM     14  N   UNL     1      37.040 -25.062 -14.946  0.00  0.00    -0.301 N 
ATOM     15  C   UNL     1      35.691 -24.843 -14.725  0.00  0.00    +0.241 C 
ATOM     16  C   UNL     1      37.620 -26.383 -15.042  0.00  0.00    +0.111 C 
ATOM     17  H   UNL     1      37.633 -24.282 -15.042  0.00  0.00    +0.150 HD
ENDBRANCH   3  15
BRANCH  11  18
ATOM     18  N   UNL     1      29.041 -24.424 -15.772  0.00  0.00    -0.213 N 
ATOM     19  H   UNL     1      28.691 -25.344 -15.741  0.00  0.00    +0.174 HD
BRANCH  18  20
ATOM     20  S   UNL     1      28.125 -23.124 -16.458  0.00  0.00    +0.091 S 
ATOM     21  O   UNL     1      27.001 -22.778 -15.328  0.00  0.00    -0.050 OA
ATOM     22  O   UNL     1      28.988 -21.964 -16.594  0.00  0.00    -0.050 OA
ATOM     23  O   UNL     1      27.420 -23.641 -17.617  0.00  0.00    -0.050 OA
ENDBRANCH  18  20
ENDBRANCH  11  18
BRANCH  10  24
ATOM     24  O   UNL     1      35.752 -22.181 -18.083  0.00  0.00    -0.430 OA
BRANCH  24  25
ATOM     25  C   UNL     1      36.755 -21.624 -18.940  0.00  0.00    +0.237 C 
BRANCH  25  26
ATOM     26  C   UNL     1      36.108 -20.654 -19.884  0.00  0.00    +0.021 C 
ATOM     27  C   UNL     1      36.884 -19.695 -20.525  0.00  0.00    -0.001 C 
ATOM     28  C   UNL     1      34.737 -20.722 -20.110  0.00  0.00    -0.001 C 
ATOM     29  C   UNL     1      36.283 -18.794 -21.403  0.00  0.00    -0.000 C 
ATOM     30  C   UNL     1      34.136 -19.821 -20.988  0.00  0.00    -0.000 C 
ATOM     31  C   UNL     1      34.909 -18.856 -21.635  0.00  0.00    -0.000 C 
ENDBRANCH  25  26
ENDBRANCH  24  25
ENDBRANCH  10  24
TORSDOF 6
ENDMDL
