MODEL 1
REMARK VINA RESULT:     -11.4      0.000      0.000
REMARK  Name = 447994
REMARK  10 active torsions:
REMARK  status: ('A' for Active; 'I' for Inactive)
REMARK    1  A    between atoms: C_2  and  C_10
REMARK    2  A    between atoms: C_3  and  C_17
REMARK    3  A    between atoms: C_12  and  C_14
REMARK    4  A    between atoms: C_14  and  O_15
REMARK    5  A    between atoms: C_18  and  C_19
REMARK    6  A    between atoms: C_19  and  O_20
REMARK    7  A    between atoms: O_20  and  C_21
REMARK    8  A    between atoms: C_22  and  C_30
REMARK    9  A    between atoms: C_23  and  O_27
REMARK   10  A    between atoms: C_30  and  O_31
REMARK                            x       y       z     vdW  Elec       q    Type
REMARK                         _______ _______ _______ _____ _____    ______ ____
ROOT
ATOM      1  F   UNL     1      32.344 -20.467 -20.886  0.00  0.00    -0.204 F 
ATOM      2  C   UNL     1      34.670 -20.287 -20.426  0.00  0.00    +0.065 C 
ATOM      3  C   UNL     1      35.621 -21.632 -18.659  0.00  0.00    +0.000 C 
ATOM      4  C   UNL     1      35.773 -20.684 -19.670  0.00  0.00    +0.005 C 
ATOM      5  C   UNL     1      33.414 -20.838 -20.170  0.00  0.00    +0.143 C 
ATOM      6  C   UNL     1      34.365 -22.183 -18.403  0.00  0.00    +0.002 C 
ATOM      7  C   UNL     1      33.262 -21.786 -19.158  0.00  0.00    +0.030 C 
ENDROOT
BRANCH   2  10
ATOM      8  O   UNL     1      34.808 -19.796 -22.733  0.00  0.00    -0.353 OA
ATOM      9  N   UNL     1      34.973 -18.745 -23.628  0.00  0.00    -0.070 NA
ATOM     10  C   UNL     1      34.831 -19.306 -21.471  0.00  0.00    +0.179 C 
ATOM     11  C   UNL     1      35.006 -17.954 -21.493  0.00  0.00    +0.069 C 
ATOM     12  C   UNL     1      35.089 -17.656 -22.864  0.00  0.00    +0.198 C 
BRANCH  12  14
ATOM     13  O   UNL     1      35.341 -15.293 -22.861  0.00  0.00    -0.243 OA
ATOM     14  C   UNL     1      35.273 -16.371 -23.473  0.00  0.00    +0.359 C 
BRANCH  14  15
ATOM     15  O   UNL     1      35.376 -16.386 -24.842  0.00  0.00    -0.476 OA
ATOM     16  H   UNL     1      35.968 -15.802 -25.275  0.00  0.00    +0.295 HD
ENDBRANCH  14  15
ENDBRANCH  12  14
ENDBRANCH   2  10
BRANCH   3  17
ATOM     17  C   UNL     1      36.771 -22.047 -17.871  0.00  0.00    -0.001 C 
ATOM     18  C   UNL     1      36.844 -22.061 -16.521  0.00  0.00    +0.021 C 
BRANCH  18  19
ATOM     19  C   UNL     1      38.046 -22.511 -15.754  0.00  0.00    +0.232 C 
BRANCH  19  20
ATOM     20  O   UNL     1      37.852 -23.859 -15.352  0.00  0.00    -0.470 OA
BRANCH  20  21
ATOM     21  C   UNL     1      37.518 -24.072 -14.039  0.00  0.00    +0.148 C 
ATOM     22  C   UNL     1      37.584 -25.346 -13.487  0.00  0.00    +0.143 C 
ATOM     23  C   UNL     1      37.241 -25.540 -12.150  0.00  0.00    +0.143 C 
ATOM     24  C   UNL     1      37.112 -22.988 -13.268  0.00  0.00    +0.037 C 
ATOM     25  C   UNL     1      36.834 -24.458 -11.371  0.00  0.00    +0.037 C 
ATOM     26  C   UNL     1      36.769 -23.182 -11.930  0.00  0.00    +0.006 C 
BRANCH  23  27
ATOM     27  O   UNL     1      37.299 -26.779 -11.583  0.00  0.00    -0.505 OA
ATOM     28  H   UNL     1      37.048 -27.533 -12.079  0.00  0.00    +0.292 HD
ENDBRANCH  23  27
BRANCH  22  30
ATOM     29  O   UNL     1      37.320 -27.006 -15.181  0.00  0.00    -0.245 OA
ATOM     30  C   UNL     1      38.012 -26.479 -14.302  0.00  0.00    +0.347 C 
BRANCH  30  31
ATOM     31  O   UNL     1      39.275 -26.883 -13.971  0.00  0.00    -0.441 OA
ATOM     32  C   UNL     1      40.349 -26.022 -14.368  0.00  0.00    +0.256 C 
ENDBRANCH  30  31
ENDBRANCH  22  30
ENDBRANCH  20  21
ENDBRANCH  19  20
ENDBRANCH  18  19
ENDBRANCH   3  17
TORSDOF 10
ENDMDL
MODEL 2
REMARK VINA RESULT:     -11.1      1.305      2.373
REMARK  Name = 447994
REMARK  10 active torsions:
REMARK  status: ('A' for Active; 'I' for Inactive)
REMARK    1  A    between atoms: C_2  and  C_10
REMARK    2  A    between atoms: C_3  and  C_17
REMARK    3  A    between atoms: C_12  and  C_14
REMARK    4  A    between atoms: C_14  and  O_15
REMARK    5  A    between atoms: C_18  and  C_19
REMARK    6  A    between atoms: C_19  and  O_20
REMARK    7  A    between atoms: O_20  and  C_21
REMARK    8  A    between atoms: C_22  and  C_30
REMARK    9  A    between atoms: C_23  and  O_27
REMARK   10  A    between atoms: C_30  and  O_31
REMARK                            x       y       z     vdW  Elec       q    Type
REMARK                         _______ _______ _______ _____ _____    ______ ____
ROOT
ATOM      1  F   UNL     1      32.250 -20.385 -20.957  0.00  0.00    -0.204 F 
ATOM      2  C   UNL     1      34.604 -20.281 -20.640  0.00  0.00    +0.065 C 
ATOM      3  C   UNL     1      35.595 -21.505 -18.808  0.00  0.00    +0.000 C 
ATOM      4  C   UNL     1      35.730 -20.662 -19.911  0.00  0.00    +0.005 C 
ATOM      5  C   UNL     1      33.342 -20.743 -20.267  0.00  0.00    +0.143 C 
ATOM      6  C   UNL     1      34.332 -21.967 -18.435  0.00  0.00    +0.002 C 
ATOM      7  C   UNL     1      33.206 -21.586 -19.164  0.00  0.00    +0.030 C 
ENDROOT
BRANCH   2  10
ATOM      8  O   UNL     1      34.622 -20.009 -22.988  0.00  0.00    -0.353 OA
ATOM      9  N   UNL     1      34.783 -19.054 -23.985  0.00  0.00    -0.070 NA
ATOM     10  C   UNL     1      34.749 -19.409 -21.781  0.00  0.00    +0.179 C 
ATOM     11  C   UNL     1      34.989 -18.076 -21.938  0.00  0.00    +0.069 C 
ATOM     12  C   UNL     1      35.001 -17.908 -23.334  0.00  0.00    +0.198 C 
BRANCH  12  14
ATOM     13  O   UNL     1      34.997 -16.550 -25.284  0.00  0.00    -0.243 OA
ATOM     14  C   UNL     1      35.211 -16.695 -24.070  0.00  0.00    +0.359 C 
BRANCH  14  15
ATOM     15  O   UNL     1      35.689 -15.642 -23.330  0.00  0.00    -0.476 OA
ATOM     16  H   UNL     1      35.513 -15.596 -22.410  0.00  0.00    +0.295 HD
ENDBRANCH  14  15
ENDBRANCH  12  14
ENDBRANCH   2  10
BRANCH   3  17
ATOM     17  C   UNL     1      36.769 -21.904 -18.047  0.00  0.00    -0.001 C 
ATOM     18  C   UNL     1      36.827 -22.063 -16.706  0.00  0.00    +0.021 C 
BRANCH  18  19
ATOM     19  C   UNL     1      38.056 -22.489 -15.969  0.00  0.00    +0.232 C 
BRANCH  19  20
ATOM     20  O   UNL     1      37.703 -22.780 -14.624  0.00  0.00    -0.470 OA
BRANCH  20  21
ATOM     21  C   UNL     1      37.948 -24.054 -14.181  0.00  0.00    +0.148 C 
ATOM     22  C   UNL     1      37.231 -24.586 -13.115  0.00  0.00    +0.143 C 
ATOM     23  C   UNL     1      37.495 -25.884 -12.682  0.00  0.00    +0.143 C 
ATOM     24  C   UNL     1      38.927 -24.808 -14.820  0.00  0.00    +0.037 C 
ATOM     25  C   UNL     1      38.475 -26.645 -13.318  0.00  0.00    +0.037 C 
ATOM     26  C   UNL     1      39.191 -26.107 -14.387  0.00  0.00    +0.006 C 
BRANCH  23  27
ATOM     27  O   UNL     1      36.806 -26.430 -11.640  0.00  0.00    -0.505 OA
ATOM     28  H   UNL     1      35.876 -26.328 -11.588  0.00  0.00    +0.292 HD
ENDBRANCH  23  27
BRANCH  22  30
ATOM     29  O   UNL     1      36.438 -22.810 -11.733  0.00  0.00    -0.245 OA
ATOM     30  C   UNL     1      36.204 -23.789 -12.449  0.00  0.00    +0.347 C 
BRANCH  30  31
ATOM     31  O   UNL     1      34.952 -24.264 -12.720  0.00  0.00    -0.441 OA
ATOM     32  C   UNL     1      34.357 -23.841 -13.951  0.00  0.00    +0.256 C 
ENDBRANCH  30  31
ENDBRANCH  22  30
ENDBRANCH  20  21
ENDBRANCH  19  20
ENDBRANCH  18  19
ENDBRANCH   3  17
TORSDOF 10
ENDMDL
MODEL 3
REMARK VINA RESULT:     -11.1      5.875      6.742
REMARK  Name = 447994
REMARK  10 active torsions:
REMARK  status: ('A' for Active; 'I' for Inactive)
REMARK    1  A    between atoms: C_2  and  C_10
REMARK    2  A    between atoms: C_3  and  C_17
REMARK    3  A    between atoms: C_12  and  C_14
REMARK    4  A    between atoms: C_14  and  O_15
REMARK    5  A    between atoms: C_18  and  C_19
REMARK    6  A    between atoms: C_19  and  O_20
REMARK    7  A    between atoms: O_20  and  C_21
REMARK    8  A    between atoms: C_22  and  C_30
REMARK    9  A    between atoms: C_23  and  O_27
REMARK   10  A    between atoms: C_30  and  O_31
REMARK                            x       y       z     vdW  Elec       q    Type
REMARK                         _______ _______ _______ _____ _____    ______ ____
ROOT
ATOM      1  F   UNL     1      29.405 -25.370 -13.704  0.00  0.00    -0.204 F 
ATOM      2  C   UNL     1      30.624 -23.896 -15.116  0.00  0.00    +0.065 C 
ATOM      3  C   UNL     1      33.017 -23.718 -14.835  0.00  0.00    +0.000 C 
ATOM      4  C   UNL     1      31.847 -23.342 -15.494  0.00  0.00    +0.005 C 
ATOM      5  C   UNL     1      30.572 -24.828 -14.079  0.00  0.00    +0.143 C 
ATOM      6  C   UNL     1      32.965 -24.649 -13.798  0.00  0.00    +0.002 C 
ATOM      7  C   UNL     1      31.742 -25.204 -13.420  0.00  0.00    +0.030 C 
ENDROOT
BRANCH   2  10
ATOM      8  O   UNL     1      28.915 -24.422 -16.661  0.00  0.00    -0.353 OA
ATOM      9  N   UNL     1      27.760 -23.912 -17.242  0.00  0.00    -0.070 NA
ATOM     10  C   UNL     1      29.416 -23.505 -15.801  0.00  0.00    +0.179 C 
ATOM     11  C   UNL     1      28.629 -22.392 -15.786  0.00  0.00    +0.069 C 
ATOM     12  C   UNL     1      27.609 -22.699 -16.703  0.00  0.00    +0.198 C 
BRANCH  12  14
ATOM     13  O   UNL     1      26.329 -21.378 -18.209  0.00  0.00    -0.243 OA
ATOM     14  C   UNL     1      26.496 -21.880 -17.085  0.00  0.00    +0.359 C 
BRANCH  14  15
ATOM     15  O   UNL     1      25.570 -21.660 -16.096  0.00  0.00    -0.476 OA
ATOM     16  H   UNL     1      24.939 -22.321 -15.889  0.00  0.00    +0.295 HD
ENDBRANCH  14  15
ENDBRANCH  12  14
ENDBRANCH   2  10
BRANCH   3  17
ATOM     17  C   UNL     1      34.293 -23.139 -15.229  0.00  0.00    -0.001 C 
ATOM     18  C   UNL     1      35.487 -23.774 -15.221  0.00  0.00    +0.021 C 
BRANCH  18  19
ATOM     19  C   UNL     1      36.771 -23.141 -15.650  0.00  0.00    +0.232 C 
BRANCH  19  20
ATOM     20  O   UNL     1      37.775 -23.453 -14.694  0.00  0.00    -0.470 OA
BRANCH  20  21
ATOM     21  C   UNL     1      37.347 -23.885 -13.465  0.00  0.00    +0.148 C 
ATOM     22  C   UNL     1      37.507 -25.212 -13.082  0.00  0.00    +0.143 C 
ATOM     23  C   UNL     1      37.066 -25.628 -11.828  0.00  0.00    +0.143 C 
ATOM     24  C   UNL     1      36.749 -22.968 -12.605  0.00  0.00    +0.037 C 
ATOM     25  C   UNL     1      36.466 -24.715 -10.960  0.00  0.00    +0.037 C 
ATOM     26  C   UNL     1      36.309 -23.385 -11.350  0.00  0.00    +0.006 C 
BRANCH  23  27
ATOM     27  O   UNL     1      37.212 -26.923 -11.427  0.00  0.00    -0.505 OA
ATOM     28  H   UNL     1      36.855 -27.618 -11.945  0.00  0.00    +0.292 HD
ENDBRANCH  23  27
BRANCH  22  30
ATOM     29  O   UNL     1      37.612 -26.591 -15.026  0.00  0.00    -0.245 OA
ATOM     30  C   UNL     1      38.136 -26.168 -13.989  0.00  0.00    +0.347 C 
BRANCH  30  31
ATOM     31  O   UNL     1      39.376 -26.532 -13.548  0.00  0.00    -0.441 OA
ATOM     32  C   UNL     1      40.490 -26.114 -14.343  0.00  0.00    +0.256 C 
ENDBRANCH  30  31
ENDBRANCH  22  30
ENDBRANCH  20  21
ENDBRANCH  19  20
ENDBRANCH  18  19
ENDBRANCH   3  17
TORSDOF 10
ENDMDL
MODEL 4
REMARK VINA RESULT:     -10.8      5.197     12.877
REMARK  Name = 447994
REMARK  10 active torsions:
REMARK  status: ('A' for Active; 'I' for Inactive)
REMARK    1  A    between atoms: C_2  and  C_10
REMARK    2  A    between atoms: C_3  and  C_17
REMARK    3  A    between atoms: C_12  and  C_14
REMARK    4  A    between atoms: C_14  and  O_15
REMARK    5  A    between atoms: C_18  and  C_19
REMARK    6  A    between atoms: C_19  and  O_20
REMARK    7  A    between atoms: O_20  and  C_21
REMARK    8  A    between atoms: C_22  and  C_30
REMARK    9  A    between atoms: C_23  and  O_27
REMARK   10  A    between atoms: C_30  and  O_31
REMARK                            x       y       z     vdW  Elec       q    Type
REMARK                         _______ _______ _______ _____ _____    ______ ____
ROOT
ATOM      1  F   UNL     1      35.029 -20.113 -23.955  0.00  0.00    -0.204 F 
ATOM      2  C   UNL     1      34.891 -18.442 -22.269  0.00  0.00    +0.065 C 
ATOM      3  C   UNL     1      34.773 -16.121 -22.928  0.00  0.00    +0.000 C 
ATOM      4  C   UNL     1      34.805 -17.093 -21.928  0.00  0.00    +0.005 C 
ATOM      5  C   UNL     1      34.946 -18.821 -23.611  0.00  0.00    +0.143 C 
ATOM      6  C   UNL     1      34.828 -16.500 -24.270  0.00  0.00    +0.002 C 
ATOM      7  C   UNL     1      34.914 -17.849 -24.611  0.00  0.00    +0.030 C 
ENDROOT
BRANCH   2  10
ATOM      8  O   UNL     1      36.128 -19.626 -20.640  0.00  0.00    -0.353 OA
ATOM      9  N   UNL     1      36.008 -20.613 -19.668  0.00  0.00    -0.070 NA
ATOM     10  C   UNL     1      34.923 -19.444 -21.231  0.00  0.00    +0.179 C 
ATOM     11  C   UNL     1      33.997 -20.281 -20.683  0.00  0.00    +0.069 C 
ATOM     12  C   UNL     1      34.727 -20.988 -19.713  0.00  0.00    +0.198 C 
BRANCH  12  14
ATOM     13  O   UNL     1      33.082 -22.430 -18.784  0.00  0.00    -0.243 OA
ATOM     14  C   UNL     1      34.249 -22.008 -18.826  0.00  0.00    +0.359 C 
BRANCH  14  15
ATOM     15  O   UNL     1      35.192 -22.526 -17.974  0.00  0.00    -0.476 OA
ATOM     16  H   UNL     1      34.962 -23.216 -17.382  0.00  0.00    +0.295 HD
ENDBRANCH  14  15
ENDBRANCH  12  14
ENDBRANCH   2  10
BRANCH   3  17
ATOM     17  C   UNL     1      34.682 -14.713 -22.573  0.00  0.00    -0.001 C 
ATOM     18  C   UNL     1      34.004 -13.765 -23.258  0.00  0.00    +0.021 C 
BRANCH  18  19
ATOM     19  C   UNL     1      33.928 -12.330 -22.845  0.00  0.00    +0.232 C 
BRANCH  19  20
ATOM     20  O   UNL     1      32.563 -11.973 -22.686  0.00  0.00    -0.470 OA
BRANCH  20  21
ATOM     21  C   UNL     1      32.217 -11.354 -21.513  0.00  0.00    +0.148 C 
ATOM     22  C   UNL     1      32.189  -9.966 -21.423  0.00  0.00    +0.143 C 
ATOM     23  C   UNL     1      31.833  -9.358 -20.221  0.00  0.00    +0.143 C 
ATOM     24  C   UNL     1      31.892 -12.140 -20.413  0.00  0.00    +0.037 C 
ATOM     25  C   UNL     1      31.505 -10.139 -19.114  0.00  0.00    +0.037 C 
ATOM     26  C   UNL     1      31.535 -11.531 -19.210  0.00  0.00    +0.006 C 
BRANCH  23  27
ATOM     27  O   UNL     1      31.796  -8.000 -20.106  0.00  0.00    -0.505 OA
ATOM     28  H   UNL     1      31.147  -7.593 -19.566  0.00  0.00    +0.292 HD
ENDBRANCH  23  27
BRANCH  22  30
ATOM     29  O   UNL     1      33.683  -8.963 -22.989  0.00  0.00    -0.245 OA
ATOM     30  C   UNL     1      32.531  -9.147 -22.583  0.00  0.00    +0.347 C 
BRANCH  30  31
ATOM     31  O   UNL     1      31.415  -8.613 -23.161  0.00  0.00    -0.441 OA
ATOM     32  C   UNL     1      31.457  -7.214 -23.466  0.00  0.00    +0.256 C 
ENDBRANCH  30  31
ENDBRANCH  22  30
ENDBRANCH  20  21
ENDBRANCH  19  20
ENDBRANCH  18  19
ENDBRANCH   3  17
TORSDOF 10
ENDMDL
MODEL 5
REMARK VINA RESULT:     -10.7      4.685     11.140
REMARK  Name = 447994
REMARK  10 active torsions:
REMARK  status: ('A' for Active; 'I' for Inactive)
REMARK    1  A    between atoms: C_2  and  C_10
REMARK    2  A    between atoms: C_3  and  C_17
REMARK    3  A    between atoms: C_12  and  C_14
REMARK    4  A    between atoms: C_14  and  O_15
REMARK    5  A    between atoms: C_18  and  C_19
REMARK    6  A    between atoms: C_19  and  O_20
REMARK    7  A    between atoms: O_20  and  C_21
REMARK    8  A    between atoms: C_22  and  C_30
REMARK    9  A    between atoms: C_23  and  O_27
REMARK   10  A    between atoms: C_30  and  O_31
REMARK                            x       y       z     vdW  Elec       q    Type
REMARK                         _______ _______ _______ _____ _____    ______ ____
ROOT
ATOM      1  F   UNL     1      35.605 -23.156 -16.499  0.00  0.00    -0.204 F 
ATOM      2  C   UNL     1      34.058 -22.156 -18.003  0.00  0.00    +0.065 C 
ATOM      3  C   UNL     1      34.902 -20.901 -19.887  0.00  0.00    +0.000 C 
ATOM      4  C   UNL     1      33.828 -21.394 -19.148  0.00  0.00    +0.005 C 
ATOM      5  C   UNL     1      35.366 -22.426 -17.597  0.00  0.00    +0.143 C 
ATOM      6  C   UNL     1      36.210 -21.171 -19.481  0.00  0.00    +0.002 C 
ATOM      7  C   UNL     1      36.441 -21.933 -18.336  0.00  0.00    +0.030 C 
ENDROOT
BRANCH   2  10
ATOM      8  O   UNL     1      31.728 -22.198 -17.614  0.00  0.00    -0.353 OA
ATOM      9  N   UNL     1      30.757 -22.770 -16.800  0.00  0.00    -0.070 NA
ATOM     10  C   UNL     1      32.943 -22.664 -17.242  0.00  0.00    +0.179 C 
ATOM     11  C   UNL     1      32.817 -23.534 -16.200  0.00  0.00    +0.069 C 
ATOM     12  C   UNL     1      31.432 -23.564 -15.964  0.00  0.00    +0.198 C 
BRANCH  12  14
ATOM     13  O   UNL     1      30.047 -25.336 -15.195  0.00  0.00    -0.243 OA
ATOM     14  C   UNL     1      30.726 -24.321 -14.971  0.00  0.00    +0.359 C 
BRANCH  14  15
ATOM     15  O   UNL     1      30.841 -23.846 -13.688  0.00  0.00    -0.476 OA
ATOM     16  H   UNL     1      30.659 -24.410 -12.961  0.00  0.00    +0.295 HD
ENDBRANCH  14  15
ENDBRANCH  12  14
ENDBRANCH   2  10
BRANCH   3  17
ATOM     17  C   UNL     1      34.662 -20.106 -21.082  0.00  0.00    -0.001 C 
ATOM     18  C   UNL     1      35.522 -19.218 -21.629  0.00  0.00    +0.021 C 
BRANCH  18  19
ATOM     19  C   UNL     1      35.235 -18.433 -22.869  0.00  0.00    +0.232 C 
BRANCH  19  20
ATOM     20  O   UNL     1      35.425 -17.054 -22.589  0.00  0.00    -0.470 OA
BRANCH  20  21
ATOM     21  C   UNL     1      34.741 -16.163 -23.375  0.00  0.00    +0.148 C 
ATOM     22  C   UNL     1      34.135 -15.043 -22.817  0.00  0.00    +0.143 C 
ATOM     23  C   UNL     1      33.445 -14.149 -23.635  0.00  0.00    +0.143 C 
ATOM     24  C   UNL     1      34.665 -16.399 -24.744  0.00  0.00    +0.037 C 
ATOM     25  C   UNL     1      33.365 -14.380 -25.009  0.00  0.00    +0.037 C 
ATOM     26  C   UNL     1      33.976 -15.505 -25.562  0.00  0.00    +0.006 C 
BRANCH  23  27
ATOM     27  O   UNL     1      32.843 -13.042 -23.115  0.00  0.00    -0.505 OA
ATOM     28  H   UNL     1      31.959 -13.090 -22.809  0.00  0.00    +0.292 HD
ENDBRANCH  23  27
BRANCH  22  30
ATOM     29  O   UNL     1      34.970 -13.969 -20.858  0.00  0.00    -0.245 OA
ATOM     30  C   UNL     1      34.219 -14.800 -21.380  0.00  0.00    +0.347 C 
BRANCH  30  31
ATOM     31  O   UNL     1      33.362 -15.607 -20.688  0.00  0.00    -0.441 OA
ATOM     32  C   UNL     1      32.358 -14.955 -19.903  0.00  0.00    +0.256 C 
ENDBRANCH  30  31
ENDBRANCH  22  30
ENDBRANCH  20  21
ENDBRANCH  19  20
ENDBRANCH  18  19
ENDBRANCH   3  17
TORSDOF 10
ENDMDL
MODEL 6
REMARK VINA RESULT:     -10.7      7.293     14.987
REMARK  Name = 447994
REMARK  10 active torsions:
REMARK  status: ('A' for Active; 'I' for Inactive)
REMARK    1  A    between atoms: C_2  and  C_10
REMARK    2  A    between atoms: C_3  and  C_17
REMARK    3  A    between atoms: C_12  and  C_14
REMARK    4  A    between atoms: C_14  and  O_15
REMARK    5  A    between atoms: C_18  and  C_19
REMARK    6  A    between atoms: C_19  and  O_20
REMARK    7  A    between atoms: O_20  and  C_21
REMARK    8  A    between atoms: C_22  and  C_30
REMARK    9  A    between atoms: C_23  and  O_27
REMARK   10  A    between atoms: C_30  and  O_31
REMARK                            x       y       z     vdW  Elec       q    Type
REMARK                         _______ _______ _______ _____ _____    ______ ____
ROOT
ATOM      1  F   UNL     1      33.635 -16.043 -25.554  0.00  0.00    -0.204 F 
ATOM      2  C   UNL     1      34.225 -14.500 -23.844  0.00  0.00    +0.065 C 
ATOM      3  C   UNL     1      34.021 -12.133 -24.282  0.00  0.00    +0.000 C 
ATOM      4  C   UNL     1      34.354 -13.178 -23.420  0.00  0.00    +0.005 C 
ATOM      5  C   UNL     1      33.764 -14.778 -25.131  0.00  0.00    +0.143 C 
ATOM      6  C   UNL     1      33.560 -12.411 -25.569  0.00  0.00    +0.002 C 
ATOM      7  C   UNL     1      33.431 -13.733 -25.993  0.00  0.00    +0.030 C 
ENDROOT
BRANCH   2  10
ATOM      8  O   UNL     1      34.384 -15.320 -21.634  0.00  0.00    -0.353 OA
ATOM      9  N   UNL     1      34.755 -16.440 -20.898  0.00  0.00    -0.070 NA
ATOM     10  C   UNL     1      34.570 -15.578 -22.950  0.00  0.00    +0.179 C 
ATOM     11  C   UNL     1      35.055 -16.841 -23.119  0.00  0.00    +0.069 C 
ATOM     12  C   UNL     1      35.152 -17.334 -21.807  0.00  0.00    +0.198 C 
BRANCH  12  14
ATOM     13  O   UNL     1      36.505 -18.834 -20.555  0.00  0.00    -0.243 OA
ATOM     14  C   UNL     1      35.607 -18.627 -21.387  0.00  0.00    +0.359 C 
BRANCH  14  15
ATOM     15  O   UNL     1      34.970 -19.689 -21.980  0.00  0.00    -0.476 OA
ATOM     16  H   UNL     1      35.167 -19.918 -22.867  0.00  0.00    +0.295 HD
ENDBRANCH  14  15
ENDBRANCH  12  14
ENDBRANCH   2  10
BRANCH   3  17
ATOM     17  C   UNL     1      34.155 -10.754 -23.840  0.00  0.00    -0.001 C 
ATOM     18  C   UNL     1      35.094  -9.874 -24.259  0.00  0.00    +0.021 C 
BRANCH  18  19
ATOM     19  C   UNL     1      35.182  -8.459 -23.785  0.00  0.00    +0.232 C 
BRANCH  19  20
ATOM     20  O   UNL     1      34.189  -8.248 -22.793  0.00  0.00    -0.470 OA
BRANCH  20  21
ATOM     21  C   UNL     1      33.446  -7.100 -22.894  0.00  0.00    +0.148 C 
ATOM     22  C   UNL     1      32.625  -6.690 -21.849  0.00  0.00    +0.143 C 
ATOM     23  C   UNL     1      31.879  -5.519 -21.973  0.00  0.00    +0.143 C 
ATOM     24  C   UNL     1      33.529  -6.351 -24.063  0.00  0.00    +0.037 C 
ATOM     25  C   UNL     1      31.958  -4.763 -23.142  0.00  0.00    +0.037 C 
ATOM     26  C   UNL     1      32.783  -5.179 -24.187  0.00  0.00    +0.006 C 
BRANCH  23  27
ATOM     27  O   UNL     1      31.068  -5.093 -20.964  0.00  0.00    -0.505 OA
ATOM     28  H   UNL     1      30.616  -5.718 -20.431  0.00  0.00    +0.292 HD
ENDBRANCH  23  27
BRANCH  22  30
ATOM     29  O   UNL     1      33.079  -7.166 -19.556  0.00  0.00    -0.245 OA
ATOM     30  C   UNL     1      32.543  -7.481 -20.625  0.00  0.00    +0.347 C 
BRANCH  30  31
ATOM     31  O   UNL     1      31.800  -8.611 -20.811  0.00  0.00    -0.441 OA
ATOM     32  C   UNL     1      31.837  -9.584 -19.761  0.00  0.00    +0.256 C 
ENDBRANCH  30  31
ENDBRANCH  22  30
ENDBRANCH  20  21
ENDBRANCH  19  20
ENDBRANCH  18  19
ENDBRANCH   3  17
TORSDOF 10
ENDMDL
MODEL 7
REMARK VINA RESULT:     -10.7      1.551      2.097
REMARK  Name = 447994
REMARK  10 active torsions:
REMARK  status: ('A' for Active; 'I' for Inactive)
REMARK    1  A    between atoms: C_2  and  C_10
REMARK    2  A    between atoms: C_3  and  C_17
REMARK    3  A    between atoms: C_12  and  C_14
REMARK    4  A    between atoms: C_14  and  O_15
REMARK    5  A    between atoms: C_18  and  C_19
REMARK    6  A    between atoms: C_19  and  O_20
REMARK    7  A    between atoms: O_20  and  C_21
REMARK    8  A    between atoms: C_22  and  C_30
REMARK    9  A    between atoms: C_23  and  O_27
REMARK   10  A    between atoms: C_30  and  O_31
REMARK                            x       y       z     vdW  Elec       q    Type
REMARK                         _______ _______ _______ _____ _____    ______ ____
ROOT
ATOM      1  F   UNL     1      32.277 -20.442 -20.954  0.00  0.00    -0.204 F 
ATOM      2  C   UNL     1      34.625 -20.317 -20.602  0.00  0.00    +0.065 C 
ATOM      3  C   UNL     1      35.597 -21.520 -18.746  0.00  0.00    +0.000 C 
ATOM      4  C   UNL     1      35.742 -20.684 -19.852  0.00  0.00    +0.005 C 
ATOM      5  C   UNL     1      33.361 -20.786 -20.244  0.00  0.00    +0.143 C 
ATOM      6  C   UNL     1      34.332 -21.989 -18.388  0.00  0.00    +0.002 C 
ATOM      7  C   UNL     1      33.214 -21.622 -19.137  0.00  0.00    +0.030 C 
ENDROOT
BRANCH   2  10
ATOM      8  O   UNL     1      34.760 -20.073 -22.948  0.00  0.00    -0.353 OA
ATOM      9  N   UNL     1      34.919 -19.123 -23.950  0.00  0.00    -0.070 NA
ATOM     10  C   UNL     1      34.781 -19.452 -21.746  0.00  0.00    +0.179 C 
ATOM     11  C   UNL     1      34.948 -18.109 -21.911  0.00  0.00    +0.069 C 
ATOM     12  C   UNL     1      35.029 -17.957 -23.306  0.00  0.00    +0.198 C 
BRANCH  12  14
ATOM     13  O   UNL     1      34.942 -16.597 -25.252  0.00  0.00    -0.243 OA
ATOM     14  C   UNL     1      35.206 -16.744 -24.048  0.00  0.00    +0.359 C 
BRANCH  14  15
ATOM     15  O   UNL     1      35.711 -15.690 -23.327  0.00  0.00    -0.476 OA
ATOM     16  H   UNL     1      35.152 -14.977 -23.085  0.00  0.00    +0.295 HD
ENDBRANCH  14  15
ENDBRANCH  12  14
ENDBRANCH   2  10
BRANCH   3  17
ATOM     17  C   UNL     1      36.762 -21.904 -17.964  0.00  0.00    -0.001 C 
ATOM     18  C   UNL     1      36.831 -21.947 -16.614  0.00  0.00    +0.021 C 
BRANCH  18  19
ATOM     19  C   UNL     1      38.050 -22.362 -15.854  0.00  0.00    +0.232 C 
BRANCH  19  20
ATOM     20  O   UNL     1      37.808 -23.632 -15.265  0.00  0.00    -0.470 OA
BRANCH  20  21
ATOM     21  C   UNL     1      36.613 -23.796 -14.614  0.00  0.00    +0.148 C 
ATOM     22  C   UNL     1      36.550 -23.765 -13.225  0.00  0.00    +0.143 C 
ATOM     23  C   UNL     1      35.324 -23.933 -12.584  0.00  0.00    +0.143 C 
ATOM     24  C   UNL     1      35.462 -23.992 -15.369  0.00  0.00    +0.037 C 
ATOM     25  C   UNL     1      34.166 -24.130 -13.334  0.00  0.00    +0.037 C 
ATOM     26  C   UNL     1      34.235 -24.159 -14.727  0.00  0.00    +0.006 C 
BRANCH  23  27
ATOM     27  O   UNL     1      35.234 -23.906 -11.224  0.00  0.00    -0.505 OA
ATOM     28  H   UNL     1      34.647 -24.487 -10.781  0.00  0.00    +0.292 HD
ENDBRANCH  23  27
BRANCH  22  30
ATOM     29  O   UNL     1      37.972 -22.567 -11.731  0.00  0.00    -0.245 OA
ATOM     30  C   UNL     1      37.763 -23.558 -12.438  0.00  0.00    +0.347 C 
BRANCH  30  31
ATOM     31  O   UNL     1      38.635 -24.599 -12.584  0.00  0.00    -0.441 OA
ATOM     32  C   UNL     1      38.188 -25.881 -12.128  0.00  0.00    +0.256 C 
ENDBRANCH  30  31
ENDBRANCH  22  30
ENDBRANCH  20  21
ENDBRANCH  19  20
ENDBRANCH  18  19
ENDBRANCH   3  17
TORSDOF 10
ENDMDL
MODEL 8
REMARK VINA RESULT:     -10.7      2.815     11.057
REMARK  Name = 447994
REMARK  10 active torsions:
REMARK  status: ('A' for Active; 'I' for Inactive)
REMARK    1  A    between atoms: C_2  and  C_10
REMARK    2  A    between atoms: C_3  and  C_17
REMARK    3  A    between atoms: C_12  and  C_14
REMARK    4  A    between atoms: C_14  and  O_15
REMARK    5  A    between atoms: C_18  and  C_19
REMARK    6  A    between atoms: C_19  and  O_20
REMARK    7  A    between atoms: O_20  and  C_21
REMARK    8  A    between atoms: C_22  and  C_30
REMARK    9  A    between atoms: C_23  and  O_27
REMARK   10  A    between atoms: C_30  and  O_31
REMARK                            x       y       z     vdW  Elec       q    Type
REMARK                         _______ _______ _______ _____ _____    ______ ____
ROOT
ATOM      1  F   UNL     1      33.526 -23.491 -16.377  0.00  0.00    -0.204 F 
ATOM      2  C   UNL     1      35.418 -22.445 -17.367  0.00  0.00    +0.065 C 
ATOM      3  C   UNL     1      35.137 -21.236 -19.440  0.00  0.00    +0.000 C 
ATOM      4  C   UNL     1      35.957 -21.683 -18.404  0.00  0.00    +0.005 C 
ATOM      5  C   UNL     1      34.059 -22.760 -17.366  0.00  0.00    +0.143 C 
ATOM      6  C   UNL     1      33.778 -21.551 -19.439  0.00  0.00    +0.002 C 
ATOM      7  C   UNL     1      33.239 -22.313 -18.402  0.00  0.00    +0.030 C 
ENDROOT
BRANCH   2  10
ATOM      8  O   UNL     1      37.576 -22.566 -16.410  0.00  0.00    -0.353 OA
ATOM      9  N   UNL     1      38.268 -23.073 -15.317  0.00  0.00    -0.070 NA
ATOM     10  C   UNL     1      36.270 -22.905 -16.297  0.00  0.00    +0.179 C 
ATOM     11  C   UNL     1      36.065 -23.624 -15.157  0.00  0.00    +0.069 C 
ATOM     12  C   UNL     1      37.346 -23.700 -14.582  0.00  0.00    +0.198 C 
BRANCH  12  14
ATOM     13  O   UNL     1      38.888 -24.507 -12.965  0.00  0.00    -0.243 OA
ATOM     14  C   UNL     1      37.722 -24.347 -13.360  0.00  0.00    +0.359 C 
BRANCH  14  15
ATOM     15  O   UNL     1      36.676 -24.810 -12.601  0.00  0.00    -0.476 OA
ATOM     16  H   UNL     1      36.521 -25.732 -12.528  0.00  0.00    +0.295 HD
ENDBRANCH  14  15
ENDBRANCH  12  14
ENDBRANCH   2  10
BRANCH   3  17
ATOM     17  C   UNL     1      35.698 -20.441 -20.521  0.00  0.00    -0.001 C 
ATOM     18  C   UNL     1      35.113 -19.371 -21.105  0.00  0.00    +0.021 C 
BRANCH  18  19
ATOM     19  C   UNL     1      35.736 -18.576 -22.206  0.00  0.00    +0.232 C 
BRANCH  19  20
ATOM     20  O   UNL     1      35.573 -17.194 -21.919  0.00  0.00    -0.470 OA
BRANCH  20  21
ATOM     21  C   UNL     1      34.961 -16.430 -22.879  0.00  0.00    +0.148 C 
ATOM     22  C   UNL     1      34.299 -15.256 -22.537  0.00  0.00    +0.143 C 
ATOM     23  C   UNL     1      33.684 -14.495 -23.529  0.00  0.00    +0.143 C 
ATOM     24  C   UNL     1      35.015 -16.851 -24.204  0.00  0.00    +0.037 C 
ATOM     25  C   UNL     1      33.735 -14.910 -24.859  0.00  0.00    +0.037 C 
ATOM     26  C   UNL     1      34.400 -16.088 -25.196  0.00  0.00    +0.006 C 
BRANCH  23  27
ATOM     27  O   UNL     1      33.029 -13.339 -23.221  0.00  0.00    -0.505 OA
ATOM     28  H   UNL     1      32.556 -12.877 -23.886  0.00  0.00    +0.292 HD
ENDBRANCH  23  27
BRANCH  22  30
ATOM     29  O   UNL     1      34.865 -13.848 -20.696  0.00  0.00    -0.245 OA
ATOM     30  C   UNL     1      34.247 -14.821 -21.145  0.00  0.00    +0.347 C 
BRANCH  30  31
ATOM     31  O   UNL     1      33.428 -15.623 -20.402  0.00  0.00    -0.441 OA
ATOM     32  C   UNL     1      32.271 -15.005 -19.828  0.00  0.00    +0.256 C 
ENDBRANCH  30  31
ENDBRANCH  22  30
ENDBRANCH  20  21
ENDBRANCH  19  20
ENDBRANCH  18  19
ENDBRANCH   3  17
TORSDOF 10
ENDMDL
MODEL 9
REMARK VINA RESULT:     -10.6      4.656     11.125
REMARK  Name = 447994
REMARK  10 active torsions:
REMARK  status: ('A' for Active; 'I' for Inactive)
REMARK    1  A    between atoms: C_2  and  C_10
REMARK    2  A    between atoms: C_3  and  C_17
REMARK    3  A    between atoms: C_12  and  C_14
REMARK    4  A    between atoms: C_14  and  O_15
REMARK    5  A    between atoms: C_18  and  C_19
REMARK    6  A    between atoms: C_19  and  O_20
REMARK    7  A    between atoms: O_20  and  C_21
REMARK    8  A    between atoms: C_22  and  C_30
REMARK    9  A    between atoms: C_23  and  O_27
REMARK   10  A    between atoms: C_30  and  O_31
REMARK                            x       y       z     vdW  Elec       q    Type
REMARK                         _______ _______ _______ _____ _____    ______ ____
ROOT
ATOM      1  F   UNL     1      35.574 -23.177 -16.594  0.00  0.00    -0.204 F 
ATOM      2  C   UNL     1      33.901 -22.188 -17.965  0.00  0.00    +0.065 C 
ATOM      3  C   UNL     1      34.578 -20.920 -19.907  0.00  0.00    +0.000 C 
ATOM      4  C   UNL     1      33.572 -21.425 -19.085  0.00  0.00    +0.005 C 
ATOM      5  C   UNL     1      35.240 -22.446 -17.666  0.00  0.00    +0.143 C 
ATOM      6  C   UNL     1      35.917 -21.178 -19.608  0.00  0.00    +0.002 C 
ATOM      7  C   UNL     1      36.247 -21.940 -18.488  0.00  0.00    +0.030 C 
ENDROOT
BRANCH   2  10
ATOM      8  O   UNL     1      31.599 -22.341 -17.457  0.00  0.00    -0.353 OA
ATOM      9  N   UNL     1      30.704 -22.913 -16.560  0.00  0.00    -0.070 NA
ATOM     10  C   UNL     1      32.856 -22.709 -17.118  0.00  0.00    +0.179 C 
ATOM     11  C   UNL     1      32.832 -23.515 -16.018  0.00  0.00    +0.069 C 
ATOM     12  C   UNL     1      31.464 -23.609 -15.711  0.00  0.00    +0.198 C 
BRANCH  12  14
ATOM     13  O   UNL     1      31.023 -24.111 -13.430  0.00  0.00    -0.243 OA
ATOM     14  C   UNL     1      30.854 -24.340 -14.639  0.00  0.00    +0.359 C 
BRANCH  14  15
ATOM     15  O   UNL     1      30.028 -25.364 -15.030  0.00  0.00    -0.476 OA
ATOM     16  H   UNL     1      30.392 -26.151 -15.386  0.00  0.00    +0.295 HD
ENDBRANCH  14  15
ENDBRANCH  12  14
ENDBRANCH   2  10
BRANCH   3  17
ATOM     17  C   UNL     1      34.235 -20.125 -21.075  0.00  0.00    -0.001 C 
ATOM     18  C   UNL     1      35.109 -19.620 -21.976  0.00  0.00    +0.021 C 
BRANCH  18  19
ATOM     19  C   UNL     1      34.706 -18.819 -23.172  0.00  0.00    +0.232 C 
BRANCH  19  20
ATOM     20  O   UNL     1      35.437 -17.601 -23.172  0.00  0.00    -0.470 OA
BRANCH  20  21
ATOM     21  C   UNL     1      34.841 -16.521 -22.575  0.00  0.00    +0.148 C 
ATOM     22  C   UNL     1      34.257 -15.518 -23.341  0.00  0.00    +0.143 C 
ATOM     23  C   UNL     1      33.656 -14.428 -22.713  0.00  0.00    +0.143 C 
ATOM     24  C   UNL     1      34.830 -16.446 -21.186  0.00  0.00    +0.037 C 
ATOM     25  C   UNL     1      33.641 -14.347 -21.321  0.00  0.00    +0.037 C 
ATOM     26  C   UNL     1      34.228 -15.356 -20.557  0.00  0.00    +0.006 C 
BRANCH  23  27
ATOM     27  O   UNL     1      33.075 -13.432 -23.440  0.00  0.00    -0.505 OA
ATOM     28  H   UNL     1      32.318 -12.990 -23.108  0.00  0.00    +0.292 HD
ENDBRANCH  23  27
BRANCH  22  30
ATOM     29  O   UNL     1      35.154 -16.169 -25.453  0.00  0.00    -0.245 OA
ATOM     30  C   UNL     1      34.272 -15.603 -24.798  0.00  0.00    +0.347 C 
BRANCH  30  31
ATOM     31  O   UNL     1      33.186 -14.979 -25.345  0.00  0.00    -0.441 OA
ATOM     32  C   UNL     1      33.426 -14.168 -26.500  0.00  0.00    +0.256 C 
ENDBRANCH  30  31
ENDBRANCH  22  30
ENDBRANCH  20  21
ENDBRANCH  19  20
ENDBRANCH  18  19
ENDBRANCH   3  17
TORSDOF 10
ENDMDL
