MODEL 1
REMARK VINA RESULT:     -11.3      0.000      0.000
REMARK  Name = 6914613
REMARK  8 active torsions:
REMARK  status: ('A' for Active; 'I' for Inactive)
REMARK    1  A    between atoms: C_1  and  N_2
REMARK    2  A    between atoms: C_1  and  C_6
REMARK    3  A    between atoms: C_1  and  C_17
REMARK    4  A    between atoms: C_6  and  C_8
REMARK    5  A    between atoms: C_17  and  O_18
REMARK    6  A    between atoms: O_18  and  C_20
REMARK    7  A    between atoms: C_23  and  C_25
REMARK    8  A    between atoms: C_26  and  C_28
REMARK                            x       y       z     vdW  Elec       q    Type
REMARK                         _______ _______ _______ _____ _____    ______ ____
ROOT
ATOM      1  C   UNL     1      36.018 -18.793 -20.872  0.00  0.00    -0.017 C 
ENDROOT
BRANCH   1   2
ATOM      2  N   UNL     1      37.456 -19.002 -20.669  0.00  0.00    +0.384 N 
ATOM      3  H   UNL     1      37.634 -19.991 -20.496  0.00  0.00    -0.089 HD
ATOM      4  H   UNL     1      37.769 -18.455 -19.866  0.00  0.00    -0.089 HD
ATOM      5  H   UNL     1      37.964 -18.705 -21.501  0.00  0.00    -0.089 HD
ENDBRANCH   1   2
BRANCH   1   6
ATOM      6  C   UNL     1      35.780 -18.174 -22.275  0.00  0.00    +0.009 C 
BRANCH   6   8
ATOM      7  N   UNL     1      34.095 -15.019 -21.543  0.00  0.00    -0.312 N 
ATOM      8  C   UNL     1      35.068 -16.881 -22.261  0.00  0.00    -0.008 C 
ATOM      9  C   UNL     1      34.588 -16.164 -23.394  0.00  0.00    +0.011 C 
ATOM     10  C   UNL     1      33.982 -15.000 -22.916  0.00  0.00    +0.048 C 
ATOM     11  C   UNL     1      34.750 -16.152 -21.138  0.00  0.00    +0.058 C 
ATOM     12  C   UNL     1      34.611 -16.395 -24.783  0.00  0.00    +0.001 C 
ATOM     13  C   UNL     1      33.395 -14.052 -23.760  0.00  0.00    +0.015 C 
ATOM     14  C   UNL     1      34.028 -15.455 -25.641  0.00  0.00    +0.000 C 
ATOM     15  C   UNL     1      33.430 -14.303 -25.135  0.00  0.00    +0.001 C 
ATOM     16  H   UNL     1      33.754 -14.319 -20.940  0.00  0.00    +0.152 HD
ENDBRANCH   6   8
ENDBRANCH   1   6
BRANCH   1  17
ATOM     17  C   UNL     1      35.293 -20.128 -20.659  0.00  0.00    +0.184 C 
BRANCH  17  18
ATOM     18  O   UNL     1      36.164 -21.124 -20.137  0.00  0.00    -0.476 OA
BRANCH  18  20
ATOM     19  N   UNL     1      36.494 -22.323 -16.711  0.00  0.00    -0.239 NA
ATOM     20  C   UNL     1      35.823 -21.669 -18.926  0.00  0.00    +0.158 C 
ATOM     21  C   UNL     1      34.533 -22.106 -18.691  0.00  0.00    +0.040 C 
ATOM     22  C   UNL     1      36.763 -21.793 -17.926  0.00  0.00    +0.136 C 
ATOM     23  C   UNL     1      34.218 -22.657 -17.453  0.00  0.00    +0.022 C 
ATOM     24  C   UNL     1      35.226 -22.742 -16.507  0.00  0.00    +0.099 C 
BRANCH  23  25
ATOM     25  C   UNL     1      32.876 -23.129 -17.164  0.00  0.00    +0.002 C 
ATOM     26  C   UNL     1      32.249 -23.020 -15.967  0.00  0.00    +0.000 C 
BRANCH  26  28
ATOM     27  N   UNL     1      28.300 -24.348 -15.131  0.00  0.00    -0.242 NA
ATOM     28  C   UNL     1      30.879 -23.481 -15.678  0.00  0.00    +0.003 C 
ATOM     29  C   UNL     1      30.692 -24.615 -14.912  0.00  0.00    +0.021 C 
ATOM     30  C   UNL     1      29.804 -22.772 -16.176  0.00  0.00    +0.021 C 
ATOM     31  C   UNL     1      29.386 -25.006 -14.667  0.00  0.00    +0.099 C 
ATOM     32  C   UNL     1      28.538 -23.245 -15.875  0.00  0.00    +0.099 C 
ENDBRANCH  26  28
ENDBRANCH  23  25
ENDBRANCH  18  20
ENDBRANCH  17  18
ENDBRANCH   1  17
TORSDOF 8
ENDMDL
MODEL 2
REMARK VINA RESULT:     -11.3      2.513      3.828
REMARK  Name = 6914613
REMARK  8 active torsions:
REMARK  status: ('A' for Active; 'I' for Inactive)
REMARK    1  A    between atoms: C_1  and  N_2
REMARK    2  A    between atoms: C_1  and  C_6
REMARK    3  A    between atoms: C_1  and  C_17
REMARK    4  A    between atoms: C_6  and  C_8
REMARK    5  A    between atoms: C_17  and  O_18
REMARK    6  A    between atoms: O_18  and  C_20
REMARK    7  A    between atoms: C_23  and  C_25
REMARK    8  A    between atoms: C_26  and  C_28
REMARK                            x       y       z     vdW  Elec       q    Type
REMARK                         _______ _______ _______ _____ _____    ______ ____
ROOT
ATOM      1  C   UNL     1      36.081 -18.809 -21.037  0.00  0.00    -0.017 C 
ENDROOT
BRANCH   1   2
ATOM      2  N   UNL     1      37.525 -19.002 -20.861  0.00  0.00    +0.384 N 
ATOM      3  H   UNL     1      37.733 -19.126 -19.870  0.00  0.00    -0.089 HD
ATOM      4  H   UNL     1      38.023 -18.184 -21.212  0.00  0.00    -0.089 HD
ATOM      5  H   UNL     1      37.823 -19.829 -21.377  0.00  0.00    -0.089 HD
ENDBRANCH   1   2
BRANCH   1   6
ATOM      6  C   UNL     1      35.813 -18.154 -22.418  0.00  0.00    +0.009 C 
BRANCH   6   8
ATOM      7  N   UNL     1      34.114 -15.036 -21.570  0.00  0.00    -0.312 N 
ATOM      8  C   UNL     1      35.091 -16.868 -22.356  0.00  0.00    -0.008 C 
ATOM      9  C   UNL     1      34.585 -16.125 -23.460  0.00  0.00    +0.011 C 
ATOM     10  C   UNL     1      33.977 -14.980 -22.940  0.00  0.00    +0.048 C 
ATOM     11  C   UNL     1      34.786 -16.173 -21.208  0.00  0.00    +0.058 C 
ATOM     12  C   UNL     1      34.585 -16.317 -24.855  0.00  0.00    +0.001 C 
ATOM     13  C   UNL     1      33.368 -14.014 -23.748  0.00  0.00    +0.015 C 
ATOM     14  C   UNL     1      33.980 -15.359 -25.677  0.00  0.00    +0.000 C 
ATOM     15  C   UNL     1      33.381 -14.227 -25.129  0.00  0.00    +0.001 C 
ATOM     16  H   UNL     1      33.779 -14.356 -20.942  0.00  0.00    +0.152 HD
ENDBRANCH   6   8
ENDBRANCH   1   6
BRANCH   1  17
ATOM     17  C   UNL     1      35.380 -20.160 -20.851  0.00  0.00    +0.184 C 
BRANCH  17  18
ATOM     18  O   UNL     1      36.043 -20.972 -19.891  0.00  0.00    -0.476 OA
BRANCH  18  20
ATOM     19  N   UNL     1      33.090 -22.523 -18.421  0.00  0.00    -0.239 NA
ATOM     20  C   UNL     1      35.251 -21.633 -18.988  0.00  0.00    +0.158 C 
ATOM     21  C   UNL     1      35.771 -22.058 -17.779  0.00  0.00    +0.040 C 
ATOM     22  C   UNL     1      33.926 -21.880 -19.269  0.00  0.00    +0.136 C 
ATOM     23  C   UNL     1      34.942 -22.724 -16.881  0.00  0.00    +0.022 C 
ATOM     24  C   UNL     1      33.622 -22.929 -17.247  0.00  0.00    +0.099 C 
BRANCH  23  25
ATOM     25  C   UNL     1      35.445 -23.188 -15.601  0.00  0.00    +0.002 C 
ATOM     26  C   UNL     1      35.290 -24.440 -15.105  0.00  0.00    +0.000 C 
BRANCH  26  28
ATOM     27  N   UNL     1      36.808 -25.817 -11.383  0.00  0.00    -0.242 NA
ATOM     28  C   UNL     1      35.817 -24.917 -13.814  0.00  0.00    +0.003 C 
ATOM     29  C   UNL     1      35.307 -24.399 -12.640  0.00  0.00    +0.021 C 
ATOM     30  C   UNL     1      36.812 -25.875 -13.799  0.00  0.00    +0.021 C 
ATOM     31  C   UNL     1      35.835 -24.881 -11.453  0.00  0.00    +0.099 C 
ATOM     32  C   UNL     1      37.272 -26.290 -12.561  0.00  0.00    +0.099 C 
ENDBRANCH  26  28
ENDBRANCH  23  25
ENDBRANCH  18  20
ENDBRANCH  17  18
ENDBRANCH   1  17
TORSDOF 8
ENDMDL
MODEL 3
REMARK VINA RESULT:     -11.2      2.893      9.989
REMARK  Name = 6914613
REMARK  8 active torsions:
REMARK  status: ('A' for Active; 'I' for Inactive)
REMARK    1  A    between atoms: C_1  and  N_2
REMARK    2  A    between atoms: C_1  and  C_6
REMARK    3  A    between atoms: C_1  and  C_17
REMARK    4  A    between atoms: C_6  and  C_8
REMARK    5  A    between atoms: C_17  and  O_18
REMARK    6  A    between atoms: O_18  and  C_20
REMARK    7  A    between atoms: C_23  and  C_25
REMARK    8  A    between atoms: C_26  and  C_28
REMARK                            x       y       z     vdW  Elec       q    Type
REMARK                         _______ _______ _______ _____ _____    ______ ____
ROOT
ATOM      1  C   UNL     1      35.449 -19.086 -21.600  0.00  0.00    -0.017 C 
ENDROOT
BRANCH   1   2
ATOM      2  N   UNL     1      35.354 -17.937 -20.692  0.00  0.00    +0.384 N 
ATOM      3  H   UNL     1      36.285 -17.696 -20.352  0.00  0.00    -0.089 HD
ATOM      4  H   UNL     1      34.755 -18.176 -19.902  0.00  0.00    -0.089 HD
ATOM      5  H   UNL     1      34.958 -17.142 -21.192  0.00  0.00    -0.089 HD
ENDBRANCH   1   2
BRANCH   1   6
ATOM      6  C   UNL     1      34.614 -20.263 -21.029  0.00  0.00    +0.009 C 
BRANCH   6   8
ATOM      7  N   UNL     1      36.727 -21.700 -18.422  0.00  0.00    -0.312 N 
ATOM      8  C   UNL     1      35.223 -20.939 -19.867  0.00  0.00    -0.008 C 
ATOM      9  C   UNL     1      34.537 -21.661 -18.849  0.00  0.00    +0.011 C 
ATOM     10  C   UNL     1      35.504 -22.128 -17.955  0.00  0.00    +0.048 C 
ATOM     11  C   UNL     1      36.567 -20.981 -19.576  0.00  0.00    +0.058 C 
ATOM     12  C   UNL     1      33.184 -21.963 -18.603  0.00  0.00    +0.001 C 
ATOM     13  C   UNL     1      35.183 -22.884 -16.823  0.00  0.00    +0.015 C 
ATOM     14  C   UNL     1      32.847 -22.718 -17.473  0.00  0.00    +0.000 C 
ATOM     15  C   UNL     1      33.833 -23.171 -16.599  0.00  0.00    +0.001 C 
ATOM     16  H   UNL     1      37.591 -21.885 -17.987  0.00  0.00    +0.152 HD
ENDBRANCH   6   8
ENDBRANCH   1   6
BRANCH   1  17
ATOM     17  C   UNL     1      35.007 -18.642 -23.000  0.00  0.00    +0.184 C 
BRANCH  17  18
ATOM     18  O   UNL     1      35.714 -17.488 -23.436  0.00  0.00    -0.476 OA
BRANCH  18  20
ATOM     19  N   UNL     1      33.892 -15.549 -25.926  0.00  0.00    -0.239 NA
ATOM     20  C   UNL     1      34.969 -16.478 -23.987  0.00  0.00    +0.158 C 
ATOM     21  C   UNL     1      34.558 -15.408 -23.215  0.00  0.00    +0.040 C 
ATOM     22  C   UNL     1      34.622 -16.513 -25.320  0.00  0.00    +0.136 C 
ATOM     23  C   UNL     1      33.804 -14.397 -23.803  0.00  0.00    +0.022 C 
ATOM     24  C   UNL     1      33.502 -14.514 -25.149  0.00  0.00    +0.099 C 
BRANCH  23  25
ATOM     25  C   UNL     1      33.351 -13.255 -23.029  0.00  0.00    +0.002 C 
ATOM     26  C   UNL     1      32.578 -13.319 -21.918  0.00  0.00    +0.000 C 
BRANCH  26  28
ATOM     27  N   UNL     1      31.300  -9.980 -19.622  0.00  0.00    -0.242 NA
ATOM     28  C   UNL     1      32.134 -12.161 -21.122  0.00  0.00    +0.003 C 
ATOM     29  C   UNL     1      31.853 -12.328 -19.780  0.00  0.00    +0.021 C 
ATOM     30  C   UNL     1      32.006 -10.928 -21.730  0.00  0.00    +0.021 C 
ATOM     31  C   UNL     1      31.441 -11.208 -19.075  0.00  0.00    +0.099 C 
ATOM     32  C   UNL     1      31.587  -9.872 -20.938  0.00  0.00    +0.099 C 
ENDBRANCH  26  28
ENDBRANCH  23  25
ENDBRANCH  18  20
ENDBRANCH  17  18
ENDBRANCH   1  17
TORSDOF 8
ENDMDL
MODEL 4
REMARK VINA RESULT:     -11.1      2.667      4.170
REMARK  Name = 6914613
REMARK  8 active torsions:
REMARK  status: ('A' for Active; 'I' for Inactive)
REMARK    1  A    between atoms: C_1  and  N_2
REMARK    2  A    between atoms: C_1  and  C_6
REMARK    3  A    between atoms: C_1  and  C_17
REMARK    4  A    between atoms: C_6  and  C_8
REMARK    5  A    between atoms: C_17  and  O_18
REMARK    6  A    between atoms: O_18  and  C_20
REMARK    7  A    between atoms: C_23  and  C_25
REMARK    8  A    between atoms: C_26  and  C_28
REMARK                            x       y       z     vdW  Elec       q    Type
REMARK                         _______ _______ _______ _____ _____    ______ ____
ROOT
ATOM      1  C   UNL     1      35.684 -18.777 -21.186  0.00  0.00    -0.017 C 
ENDROOT
BRANCH   1   2
ATOM      2  N   UNL     1      37.043 -18.792 -20.633  0.00  0.00    +0.384 N 
ATOM      3  H   UNL     1      37.038 -19.268 -19.731  0.00  0.00    -0.089 HD
ATOM      4  H   UNL     1      37.371 -17.834 -20.510  0.00  0.00    -0.089 HD
ATOM      5  H   UNL     1      37.665 -19.285 -21.274  0.00  0.00    -0.089 HD
ENDBRANCH   1   2
BRANCH   1   6
ATOM      6  C   UNL     1      35.753 -18.533 -22.717  0.00  0.00    +0.009 C 
BRANCH   6   8
ATOM      7  N   UNL     1      34.325 -15.667 -24.470  0.00  0.00    -0.312 N 
ATOM      8  C   UNL     1      35.128 -17.273 -23.165  0.00  0.00    -0.008 C 
ATOM      9  C   UNL     1      34.626 -16.232 -22.333  0.00  0.00    +0.011 C 
ATOM     10  C   UNL     1      34.128 -15.237 -23.176  0.00  0.00    +0.048 C 
ATOM     11  C   UNL     1      34.928 -16.896 -24.473  0.00  0.00    +0.058 C 
ATOM     12  C   UNL     1      34.549 -16.041 -20.939  0.00  0.00    +0.001 C 
ATOM     13  C   UNL     1      33.553 -14.056 -22.695  0.00  0.00    +0.015 C 
ATOM     14  C   UNL     1      33.976 -14.864 -20.442  0.00  0.00    +0.000 C 
ATOM     15  C   UNL     1      33.487 -13.889 -21.308  0.00  0.00    +0.001 C 
ATOM     16  H   UNL     1      34.067 -15.163 -25.277  0.00  0.00    +0.152 HD
ENDBRANCH   6   8
ENDBRANCH   1   6
BRANCH   1  17
ATOM     17  C   UNL     1      34.985 -20.088 -20.804  0.00  0.00    +0.184 C 
BRANCH  17  18
ATOM     18  O   UNL     1      35.746 -20.839 -19.867  0.00  0.00    -0.476 OA
BRANCH  18  20
ATOM     19  N   UNL     1      32.965 -22.599 -18.302  0.00  0.00    -0.239 NA
ATOM     20  C   UNL     1      35.043 -21.579 -18.952  0.00  0.00    +0.158 C 
ATOM     21  C   UNL     1      35.656 -22.037 -17.800  0.00  0.00    +0.040 C 
ATOM     22  C   UNL     1      33.715 -21.876 -19.164  0.00  0.00    +0.136 C 
ATOM     23  C   UNL     1      34.917 -22.784 -16.889  0.00  0.00    +0.022 C 
ATOM     24  C   UNL     1      33.587 -23.034 -17.184  0.00  0.00    +0.099 C 
BRANCH  23  25
ATOM     25  C   UNL     1      35.520 -23.284 -15.667  0.00  0.00    +0.002 C 
ATOM     26  C   UNL     1      35.124 -24.393 -14.995  0.00  0.00    +0.000 C 
BRANCH  26  28
ATOM     27  N   UNL     1      36.926 -25.885 -11.447  0.00  0.00    -0.242 NA
ATOM     28  C   UNL     1      35.748 -24.911 -13.764  0.00  0.00    +0.003 C 
ATOM     29  C   UNL     1      36.725 -25.882 -13.856  0.00  0.00    +0.021 C 
ATOM     30  C   UNL     1      35.347 -24.416 -12.539  0.00  0.00    +0.021 C 
ATOM     31  C   UNL     1      37.282 -26.335 -12.672  0.00  0.00    +0.099 C 
ATOM     32  C   UNL     1      35.965 -24.935 -11.413  0.00  0.00    +0.099 C 
ENDBRANCH  26  28
ENDBRANCH  23  25
ENDBRANCH  18  20
ENDBRANCH  17  18
ENDBRANCH   1  17
TORSDOF 8
ENDMDL
MODEL 5
REMARK VINA RESULT:     -11.0      0.963      1.922
REMARK  Name = 6914613
REMARK  8 active torsions:
REMARK  status: ('A' for Active; 'I' for Inactive)
REMARK    1  A    between atoms: C_1  and  N_2
REMARK    2  A    between atoms: C_1  and  C_6
REMARK    3  A    between atoms: C_1  and  C_17
REMARK    4  A    between atoms: C_6  and  C_8
REMARK    5  A    between atoms: C_17  and  O_18
REMARK    6  A    between atoms: O_18  and  C_20
REMARK    7  A    between atoms: C_23  and  C_25
REMARK    8  A    between atoms: C_26  and  C_28
REMARK                            x       y       z     vdW  Elec       q    Type
REMARK                         _______ _______ _______ _____ _____    ______ ____
ROOT
ATOM      1  C   UNL     1      35.457 -18.863 -21.173  0.00  0.00    -0.017 C 
ENDROOT
BRANCH   1   2
ATOM      2  N   UNL     1      36.852 -18.816 -20.722  0.00  0.00    +0.384 N 
ATOM      3  H   UNL     1      37.392 -18.220 -21.349  0.00  0.00    -0.089 HD
ATOM      4  H   UNL     1      37.244 -19.758 -20.728  0.00  0.00    -0.089 HD
ATOM      5  H   UNL     1      36.891 -18.439 -19.775  0.00  0.00    -0.089 HD
ENDBRANCH   1   2
BRANCH   1   6
ATOM      6  C   UNL     1      35.412 -18.767 -22.721  0.00  0.00    +0.009 C 
BRANCH   6   8
ATOM      7  N   UNL     1      34.529 -15.786 -24.637  0.00  0.00    -0.312 N 
ATOM      8  C   UNL     1      35.019 -17.441 -23.241  0.00  0.00    -0.008 C 
ATOM      9  C   UNL     1      34.679 -16.294 -22.469  0.00  0.00    +0.011 C 
ATOM     10  C   UNL     1      34.375 -15.270 -23.368  0.00  0.00    +0.048 C 
ATOM     11  C   UNL     1      34.917 -17.098 -24.569  0.00  0.00    +0.058 C 
ATOM     12  C   UNL     1      34.601 -16.029 -21.088  0.00  0.00    +0.001 C 
ATOM     13  C   UNL     1      33.996 -13.989 -22.955  0.00  0.00    +0.015 C 
ATOM     14  C   UNL     1      34.223 -14.751 -20.658  0.00  0.00    +0.000 C 
ATOM     15  C   UNL     1      33.926 -13.749 -21.579  0.00  0.00    +0.001 C 
ATOM     16  H   UNL     1      34.380 -15.284 -25.471  0.00  0.00    +0.152 HD
ENDBRANCH   6   8
ENDBRANCH   1   6
BRANCH   1  17
ATOM     17  C   UNL     1      34.805 -20.136 -20.618  0.00  0.00    +0.184 C 
BRANCH  17  18
ATOM     18  O   UNL     1      35.775 -21.090 -20.205  0.00  0.00    -0.476 OA
BRANCH  18  20
ATOM     19  N   UNL     1      36.507 -22.259 -16.831  0.00  0.00    -0.239 NA
ATOM     20  C   UNL     1      35.591 -21.665 -18.974  0.00  0.00    +0.158 C 
ATOM     21  C   UNL     1      34.370 -22.217 -18.633  0.00  0.00    +0.040 C 
ATOM     22  C   UNL     1      36.620 -21.705 -18.060  0.00  0.00    +0.136 C 
ATOM     23  C   UNL     1      34.214 -22.796 -17.378  0.00  0.00    +0.022 C 
ATOM     24  C   UNL     1      35.304 -22.791 -16.523  0.00  0.00    +0.099 C 
BRANCH  23  25
ATOM     25  C   UNL     1      32.950 -23.387 -16.978  0.00  0.00    +0.002 C 
ATOM     26  C   UNL     1      32.079 -22.849 -16.090  0.00  0.00    +0.000 C 
BRANCH  26  28
ATOM     27  N   UNL     1      28.354 -24.554 -14.963  0.00  0.00    -0.242 NA
ATOM     28  C   UNL     1      30.787 -23.439 -15.698  0.00  0.00    +0.003 C 
ATOM     29  C   UNL     1      29.615 -22.876 -16.162  0.00  0.00    +0.021 C 
ATOM     30  C   UNL     1      30.770 -24.548 -14.874  0.00  0.00    +0.021 C 
ATOM     31  C   UNL     1      28.427 -23.470 -15.767  0.00  0.00    +0.099 C 
ATOM     32  C   UNL     1      29.530 -25.066 -14.537  0.00  0.00    +0.099 C 
ENDBRANCH  26  28
ENDBRANCH  23  25
ENDBRANCH  18  20
ENDBRANCH  17  18
ENDBRANCH   1  17
TORSDOF 8
ENDMDL
MODEL 6
REMARK VINA RESULT:     -11.0      2.817      9.945
REMARK  Name = 6914613
REMARK  8 active torsions:
REMARK  status: ('A' for Active; 'I' for Inactive)
REMARK    1  A    between atoms: C_1  and  N_2
REMARK    2  A    between atoms: C_1  and  C_6
REMARK    3  A    between atoms: C_1  and  C_17
REMARK    4  A    between atoms: C_6  and  C_8
REMARK    5  A    between atoms: C_17  and  O_18
REMARK    6  A    between atoms: O_18  and  C_20
REMARK    7  A    between atoms: C_23  and  C_25
REMARK    8  A    between atoms: C_26  and  C_28
REMARK                            x       y       z     vdW  Elec       q    Type
REMARK                         _______ _______ _______ _____ _____    ______ ____
ROOT
ATOM      1  C   UNL     1      34.055 -20.630 -19.859  0.00  0.00    -0.017 C 
ENDROOT
BRANCH   1   2
ATOM      2  N   UNL     1      32.623 -20.528 -20.161  0.00  0.00    +0.384 N 
ATOM      3  H   UNL     1      32.109 -20.320 -19.305  0.00  0.00    -0.089 HD
ATOM      4  H   UNL     1      32.293 -21.412 -20.549  0.00  0.00    -0.089 HD
ATOM      5  H   UNL     1      32.470 -19.781 -20.839  0.00  0.00    -0.089 HD
ENDBRANCH   1   2
BRANCH   1   6
ATOM      6  C   UNL     1      34.422 -22.114 -19.593  0.00  0.00    +0.009 C 
BRANCH   6   8
ATOM      7  N   UNL     1      33.732 -23.237 -16.188  0.00  0.00    -0.312 N 
ATOM      8  C   UNL     1      34.415 -22.500 -18.168  0.00  0.00    -0.008 C 
ATOM      9  C   UNL     1      35.508 -22.416 -17.260  0.00  0.00    +0.011 C 
ATOM     10  C   UNL     1      35.054 -22.885 -16.026  0.00  0.00    +0.048 C 
ATOM     11  C   UNL     1      33.337 -23.009 -17.480  0.00  0.00    +0.058 C 
ATOM     12  C   UNL     1      36.844 -21.984 -17.371  0.00  0.00    +0.001 C 
ATOM     13  C   UNL     1      35.871 -22.944 -14.892  0.00  0.00    +0.015 C 
ATOM     14  C   UNL     1      37.675 -22.038 -16.246  0.00  0.00    +0.000 C 
ATOM     15  C   UNL     1      37.194 -22.511 -15.027  0.00  0.00    +0.001 C 
ATOM     16  H   UNL     1      33.155 -23.602 -15.479  0.00  0.00    +0.152 HD
ENDBRANCH   6   8
ENDBRANCH   1   6
BRANCH   1  17
ATOM     17  C   UNL     1      34.845 -19.998 -21.012  0.00  0.00    +0.184 C 
BRANCH  17  18
ATOM     18  O   UNL     1      35.368 -18.725 -20.660  0.00  0.00    -0.476 OA
BRANCH  18  20
ATOM     19  N   UNL     1      35.099 -16.885 -23.794  0.00  0.00    -0.239 NA
ATOM     20  C   UNL     1      35.125 -17.694 -21.530  0.00  0.00    +0.158 C 
ATOM     21  C   UNL     1      34.684 -16.469 -21.061  0.00  0.00    +0.040 C 
ATOM     22  C   UNL     1      35.318 -17.860 -22.883  0.00  0.00    +0.136 C 
ATOM     23  C   UNL     1      34.447 -15.442 -21.968  0.00  0.00    +0.022 C 
ATOM     24  C   UNL     1      34.669 -15.698 -23.311  0.00  0.00    +0.099 C 
BRANCH  23  25
ATOM     25  C   UNL     1      33.984 -14.141 -21.521  0.00  0.00    +0.002 C 
ATOM     26  C   UNL     1      32.687 -13.789 -21.343  0.00  0.00    +0.000 C 
BRANCH  26  28
ATOM     27  N   UNL     1      31.336  -9.998 -19.980  0.00  0.00    -0.242 NA
ATOM     28  C   UNL     1      32.217 -12.475 -20.870  0.00  0.00    +0.003 C 
ATOM     29  C   UNL     1      31.963 -12.288 -19.526  0.00  0.00    +0.021 C 
ATOM     30  C   UNL     1      32.040 -11.450 -21.779  0.00  0.00    +0.021 C 
ATOM     31  C   UNL     1      31.526 -11.034 -19.132  0.00  0.00    +0.099 C 
ATOM     32  C   UNL     1      31.599 -10.234 -21.285  0.00  0.00    +0.099 C 
ENDBRANCH  26  28
ENDBRANCH  23  25
ENDBRANCH  18  20
ENDBRANCH  17  18
ENDBRANCH   1  17
TORSDOF 8
ENDMDL
MODEL 7
REMARK VINA RESULT:     -10.9      1.960     10.386
REMARK  Name = 6914613
REMARK  8 active torsions:
REMARK  status: ('A' for Active; 'I' for Inactive)
REMARK    1  A    between atoms: C_1  and  N_2
REMARK    2  A    between atoms: C_1  and  C_6
REMARK    3  A    between atoms: C_1  and  C_17
REMARK    4  A    between atoms: C_6  and  C_8
REMARK    5  A    between atoms: C_17  and  O_18
REMARK    6  A    between atoms: O_18  and  C_20
REMARK    7  A    between atoms: C_23  and  C_25
REMARK    8  A    between atoms: C_26  and  C_28
REMARK                            x       y       z     vdW  Elec       q    Type
REMARK                         _______ _______ _______ _____ _____    ______ ____
ROOT
ATOM      1  C   UNL     1      33.599 -22.837 -17.938  0.00  0.00    -0.017 C 
ENDROOT
BRANCH   1   2
ATOM      2  N   UNL     1      33.755 -24.113 -18.645  0.00  0.00    +0.384 N 
ATOM      3  H   UNL     1      33.781 -23.944 -19.650  0.00  0.00    -0.089 HD
ATOM      4  H   UNL     1      32.968 -24.723 -18.424  0.00  0.00    -0.089 HD
ATOM      5  H   UNL     1      34.624 -24.560 -18.352  0.00  0.00    -0.089 HD
ENDBRANCH   1   2
BRANCH   1   6
ATOM      6  C   UNL     1      34.570 -22.795 -16.728  0.00  0.00    +0.009 C 
BRANCH   6   8
ATOM      7  N   UNL     1      34.222 -25.098 -13.917  0.00  0.00    -0.312 N 
ATOM      8  C   UNL     1      34.160 -23.635 -15.586  0.00  0.00    -0.008 C 
ATOM      9  C   UNL     1      32.867 -23.690 -14.993  0.00  0.00    +0.011 C 
ATOM     10  C   UNL     1      32.933 -24.615 -13.948  0.00  0.00    +0.048 C 
ATOM     11  C   UNL     1      34.971 -24.512 -14.902  0.00  0.00    +0.058 C 
ATOM     12  C   UNL     1      31.643 -23.040 -15.246  0.00  0.00    +0.001 C 
ATOM     13  C   UNL     1      31.832 -24.923 -13.141  0.00  0.00    +0.015 C 
ATOM     14  C   UNL     1      30.533 -23.338 -14.447  0.00  0.00    +0.000 C 
ATOM     15  C   UNL     1      30.629 -24.265 -13.412  0.00  0.00    +0.001 C 
ATOM     16  H   UNL     1      34.557 -25.768 -13.277  0.00  0.00    +0.152 HD
ENDBRANCH   6   8
ENDBRANCH   1   6
BRANCH   1  17
ATOM     17  C   UNL     1      33.814 -21.694 -18.938  0.00  0.00    +0.184 C 
BRANCH  17  18
ATOM     18  O   UNL     1      34.998 -21.877 -19.703  0.00  0.00    -0.476 OA
BRANCH  18  20
ATOM     19  N   UNL     1      37.498 -19.281 -20.250  0.00  0.00    -0.239 NA
ATOM     20  C   UNL     1      35.592 -20.747 -20.204  0.00  0.00    +0.158 C 
ATOM     21  C   UNL     1      34.928 -19.953 -21.121  0.00  0.00    +0.040 C 
ATOM     22  C   UNL     1      36.856 -20.383 -19.798  0.00  0.00    +0.136 C 
ATOM     23  C   UNL     1      35.555 -18.812 -21.609  0.00  0.00    +0.022 C 
ATOM     24  C   UNL     1      36.828 -18.523 -21.146  0.00  0.00    +0.099 C 
BRANCH  23  25
ATOM     25  C   UNL     1      34.895 -17.950 -22.574  0.00  0.00    +0.002 C 
ATOM     26  C   UNL     1      35.104 -16.617 -22.704  0.00  0.00    +0.000 C 
BRANCH  26  28
ATOM     27  N   UNL     1      33.217 -14.103 -25.564  0.00  0.00    -0.242 NA
ATOM     28  C   UNL     1      34.448 -15.745 -23.696  0.00  0.00    +0.003 C 
ATOM     29  C   UNL     1      33.806 -14.599 -23.273  0.00  0.00    +0.021 C 
ATOM     30  C   UNL     1      34.488 -16.089 -25.033  0.00  0.00    +0.021 C 
ATOM     31  C   UNL     1      33.207 -13.813 -24.243  0.00  0.00    +0.099 C 
ATOM     32  C   UNL     1      33.858 -15.237 -25.925  0.00  0.00    +0.099 C 
ENDBRANCH  26  28
ENDBRANCH  23  25
ENDBRANCH  18  20
ENDBRANCH  17  18
ENDBRANCH   1  17
TORSDOF 8
ENDMDL
MODEL 8
REMARK VINA RESULT:     -10.9      6.181     13.213
REMARK  Name = 6914613
REMARK  8 active torsions:
REMARK  status: ('A' for Active; 'I' for Inactive)
REMARK    1  A    between atoms: C_1  and  N_2
REMARK    2  A    between atoms: C_1  and  C_6
REMARK    3  A    between atoms: C_1  and  C_17
REMARK    4  A    between atoms: C_6  and  C_8
REMARK    5  A    between atoms: C_17  and  O_18
REMARK    6  A    between atoms: O_18  and  C_20
REMARK    7  A    between atoms: C_23  and  C_25
REMARK    8  A    between atoms: C_26  and  C_28
REMARK                            x       y       z     vdW  Elec       q    Type
REMARK                         _______ _______ _______ _____ _____    ______ ____
ROOT
ATOM      1  C   UNL     1      33.062 -13.809 -20.642  0.00  0.00    -0.017 C 
ENDROOT
BRANCH   1   2
ATOM      2  N   UNL     1      32.316 -15.067 -20.517  0.00  0.00    +0.384 N 
ATOM      3  H   UNL     1      32.558 -15.519 -19.635  0.00  0.00    -0.089 HD
ATOM      4  H   UNL     1      32.557 -15.684 -21.293  0.00  0.00    -0.089 HD
ATOM      5  H   UNL     1      31.316 -14.871 -20.536  0.00  0.00    -0.089 HD
ENDBRANCH   1   2
BRANCH   1   6
ATOM      6  C   UNL     1      34.499 -14.110 -21.145  0.00  0.00    +0.009 C 
BRANCH   6   8
ATOM      7  N   UNL     1      34.521 -15.949 -24.299  0.00  0.00    -0.312 N 
ATOM      8  C   UNL     1      34.568 -15.079 -22.257  0.00  0.00    -0.008 C 
ATOM      9  C   UNL     1      34.843 -16.472 -22.153  0.00  0.00    +0.011 C 
ATOM     10  C   UNL     1      34.807 -16.994 -23.448  0.00  0.00    +0.048 C 
ATOM     11  C   UNL     1      34.375 -14.788 -23.588  0.00  0.00    +0.058 C 
ATOM     12  C   UNL     1      35.118 -17.340 -21.080  0.00  0.00    +0.001 C 
ATOM     13  C   UNL     1      35.035 -18.347 -23.724  0.00  0.00    +0.015 C 
ATOM     14  C   UNL     1      35.348 -18.697 -21.340  0.00  0.00    +0.000 C 
ATOM     15  C   UNL     1      35.306 -19.189 -22.642  0.00  0.00    +0.001 C 
ATOM     16  H   UNL     1      34.434 -16.027 -25.277  0.00  0.00    +0.152 HD
ENDBRANCH   6   8
ENDBRANCH   1   6
BRANCH   1  17
ATOM     17  C   UNL     1      32.277 -12.863 -21.559  0.00  0.00    +0.184 C 
BRANCH  17  18
ATOM     18  O   UNL     1      31.360 -12.059 -20.828  0.00  0.00    -0.476 OA
BRANCH  18  20
ATOM     19  N   UNL     1      32.120  -8.896 -19.183  0.00  0.00    -0.239 NA
ATOM     20  C   UNL     1      31.687 -10.737 -20.669  0.00  0.00    +0.158 C 
ATOM     21  C   UNL     1      31.903  -9.930 -21.771  0.00  0.00    +0.040 C 
ATOM     22  C   UNL     1      31.803 -10.191 -19.410  0.00  0.00    +0.136 C 
ATOM     23  C   UNL     1      32.231  -8.593 -21.579  0.00  0.00    +0.022 C 
ATOM     24  C   UNL     1      32.326  -8.129 -20.277  0.00  0.00    +0.099 C 
BRANCH  23  25
ATOM     25  C   UNL     1      32.466  -7.710 -22.707  0.00  0.00    +0.002 C 
ATOM     26  C   UNL     1      33.584  -6.969 -22.903  0.00  0.00    +0.000 C 
BRANCH  26  28
ATOM     27  N   UNL     1      34.293  -4.429 -26.236  0.00  0.00    -0.242 NA
ATOM     28  C   UNL     1      33.830  -6.088 -24.058  0.00  0.00    +0.003 C 
ATOM     29  C   UNL     1      35.033  -6.171 -24.732  0.00  0.00    +0.021 C 
ATOM     30  C   UNL     1      32.854  -5.193 -24.450  0.00  0.00    +0.021 C 
ATOM     31  C   UNL     1      35.215  -5.323 -25.811  0.00  0.00    +0.099 C 
ATOM     32  C   UNL     1      33.134  -4.388 -25.541  0.00  0.00    +0.099 C 
ENDBRANCH  26  28
ENDBRANCH  23  25
ENDBRANCH  18  20
ENDBRANCH  17  18
ENDBRANCH   1  17
TORSDOF 8
ENDMDL
MODEL 9
REMARK VINA RESULT:     -10.8      2.548     10.263
REMARK  Name = 6914613
REMARK  8 active torsions:
REMARK  status: ('A' for Active; 'I' for Inactive)
REMARK    1  A    between atoms: C_1  and  N_2
REMARK    2  A    between atoms: C_1  and  C_6
REMARK    3  A    between atoms: C_1  and  C_17
REMARK    4  A    between atoms: C_6  and  C_8
REMARK    5  A    between atoms: C_17  and  O_18
REMARK    6  A    between atoms: O_18  and  C_20
REMARK    7  A    between atoms: C_23  and  C_25
REMARK    8  A    between atoms: C_26  and  C_28
REMARK                            x       y       z     vdW  Elec       q    Type
REMARK                         _______ _______ _______ _____ _____    ______ ____
ROOT
ATOM      1  C   UNL     1      33.089 -23.162 -15.964  0.00  0.00    -0.017 C 
ENDROOT
BRANCH   1   2
ATOM      2  N   UNL     1      31.649 -23.272 -15.709  0.00  0.00    +0.384 N 
ATOM      3  H   UNL     1      31.358 -22.528 -15.075  0.00  0.00    -0.089 HD
ATOM      4  H   UNL     1      31.446 -24.178 -15.285  0.00  0.00    -0.089 HD
ATOM      5  H   UNL     1      31.140 -23.188 -16.589  0.00  0.00    -0.089 HD
ENDBRANCH   1   2
BRANCH   1   6
ATOM      6  C   UNL     1      33.864 -24.012 -14.922  0.00  0.00    +0.009 C 
BRANCH   6   8
ATOM      7  N   UNL     1      37.278 -22.718 -14.939  0.00  0.00    -0.312 N 
ATOM      8  C   UNL     1      35.318 -23.760 -14.887  0.00  0.00    -0.008 C 
ATOM      9  C   UNL     1      36.343 -24.731 -14.702  0.00  0.00    +0.011 C 
ATOM     10  C   UNL     1      37.563 -24.051 -14.739  0.00  0.00    +0.048 C 
ATOM     11  C   UNL     1      35.924 -22.533 -15.029  0.00  0.00    +0.058 C 
ATOM     12  C   UNL     1      36.351 -26.125 -14.508  0.00  0.00    +0.001 C 
ATOM     13  C   UNL     1      38.794 -24.699 -14.590  0.00  0.00    +0.015 C 
ATOM     14  C   UNL     1      37.575 -26.788 -14.356  0.00  0.00    +0.000 C 
ATOM     15  C   UNL     1      38.776 -26.083 -14.397  0.00  0.00    +0.001 C 
ATOM     16  H   UNL     1      37.951 -22.002 -15.006  0.00  0.00    +0.152 HD
ENDBRANCH   6   8
ENDBRANCH   1   6
BRANCH   1  17
ATOM     17  C   UNL     1      33.363 -23.574 -17.417  0.00  0.00    +0.184 C 
BRANCH  17  18
ATOM     18  O   UNL     1      33.011 -22.545 -18.333  0.00  0.00    -0.476 OA
BRANCH  18  20
ATOM     19  N   UNL     1      36.414 -21.563 -19.192  0.00  0.00    -0.239 NA
ATOM     20  C   UNL     1      34.043 -21.883 -18.945  0.00  0.00    +0.158 C 
ATOM     21  C   UNL     1      33.788 -20.905 -19.889  0.00  0.00    +0.040 C 
ATOM     22  C   UNL     1      35.350 -22.179 -18.627  0.00  0.00    +0.136 C 
ATOM     23  C   UNL     1      34.856 -20.249 -20.492  0.00  0.00    +0.022 C 
ATOM     24  C   UNL     1      36.138 -20.612 -20.111  0.00  0.00    +0.099 C 
BRANCH  23  25
ATOM     25  C   UNL     1      34.635 -19.217 -21.488  0.00  0.00    +0.002 C 
ATOM     26  C   UNL     1      35.155 -17.965 -21.448  0.00  0.00    +0.000 C 
BRANCH  26  28
ATOM     27  N   UNL     1      34.548 -14.960 -24.391  0.00  0.00    -0.242 NA
ATOM     28  C   UNL     1      34.946 -16.923 -22.469  0.00  0.00    +0.003 C 
ATOM     29  C   UNL     1      35.007 -17.261 -23.806  0.00  0.00    +0.021 C 
ATOM     30  C   UNL     1      34.690 -15.625 -22.071  0.00  0.00    +0.021 C 
ATOM     31  C   UNL     1      34.801 -16.245 -24.726  0.00  0.00    +0.099 C 
ATOM     32  C   UNL     1      34.499 -14.683 -23.068  0.00  0.00    +0.099 C 
ENDBRANCH  26  28
ENDBRANCH  23  25
ENDBRANCH  18  20
ENDBRANCH  17  18
ENDBRANCH   1  17
TORSDOF 8
ENDMDL
