MODEL 1
REMARK VINA RESULT:     -12.0      0.000      0.000
REMARK  Name = 25058128
REMARK  13 active torsions:
REMARK  status: ('A' for Active; 'I' for Inactive)
REMARK    1  A    between atoms: C_1  and  S_11
REMARK    2  A    between atoms: C_9  and  O_27
REMARK    3  A    between atoms: S_11  and  N_14
REMARK    4  A    between atoms: N_14  and  C_16
REMARK    5  A    between atoms: C_16  and  C_18
REMARK    6  A    between atoms: C_16  and  C_21
REMARK    7  A    between atoms: C_18  and  O_19
REMARK    8  A    between atoms: C_21  and  C_22
REMARK    9  A    between atoms: C_22  and  C_24
REMARK   10  A    between atoms: C_24  and  O_25
REMARK   11  A    between atoms: O_27  and  C_28
REMARK   12  A    between atoms: C_28  and  C_30
REMARK   13  A    between atoms: C_35  and  C_37
REMARK                            x       y       z     vdW  Elec       q    Type
REMARK                         _______ _______ _______ _____ _____    ______ ____
ROOT
ATOM      1  C   UNL     1      36.145 -22.892 -16.403  0.00  0.00    +0.122 C 
ATOM      2  C   UNL     1      34.717 -22.015 -18.166  0.00  0.00    +0.002 C 
ATOM      3  C   UNL     1      34.886 -22.762 -16.988  0.00  0.00    +0.020 C 
ATOM      4  C   UNL     1      35.842 -21.390 -18.756  0.00  0.00    +0.003 C 
ATOM      5  C   UNL     1      37.251 -22.277 -16.983  0.00  0.00    +0.020 C 
ATOM      6  C   UNL     1      37.101 -21.530 -18.152  0.00  0.00    +0.001 C 
ATOM      7  C   UNL     1      35.673 -20.642 -19.933  0.00  0.00    +0.037 C 
ATOM      8  C   UNL     1      33.457 -21.873 -18.770  0.00  0.00    +0.003 C 
ATOM      9  C   UNL     1      34.413 -20.512 -20.519  0.00  0.00    +0.139 C 
ATOM     10  C   UNL     1      33.308 -21.126 -19.939  0.00  0.00    +0.037 C 
ENDROOT
BRANCH   1  11
ATOM     11  S   UNL     1      36.336 -23.838 -14.921  0.00  0.00    +0.061 S 
ATOM     12  O   UNL     1      35.898 -23.019 -13.808  0.00  0.00    -0.153 OA
ATOM     13  O   UNL     1      35.724 -25.130 -15.163  0.00  0.00    -0.153 OA
BRANCH  11  14
ATOM     14  N   UNL     1      38.023 -24.034 -14.848  0.00  0.00    -0.170 NA
ATOM     15  H   UNL     1      38.399 -23.197 -14.401  0.00  0.00    +0.149 HD
BRANCH  14  16
ATOM     16  C   UNL     1      38.601 -25.195 -14.136  0.00  0.00    +0.174 C 
BRANCH  16  18
ATOM     17  O   UNL     1      41.011 -25.024 -13.858  0.00  0.00    -0.249 OA
ATOM     18  C   UNL     1      40.047 -25.325 -14.550  0.00  0.00    +0.330 C 
BRANCH  18  19
ATOM     19  O   UNL     1      40.177 -25.844 -15.799  0.00  0.00    -0.479 OA
ATOM     20  H   UNL     1      40.534 -25.321 -16.490  0.00  0.00    +0.295 HD
ENDBRANCH  18  19
ENDBRANCH  16  18
BRANCH  16  21
ATOM     21  C   UNL     1      38.380 -25.062 -12.624  0.00  0.00    +0.040 C 
BRANCH  21  22
ATOM     22  C   UNL     1      37.229 -25.876 -12.030  0.00  0.00    +0.111 C 
BRANCH  22  24
ATOM     23  O   UNL     1      36.614 -24.446 -10.183  0.00  0.00    -0.250 OA
ATOM     24  C   UNL     1      36.279 -25.065 -11.185  0.00  0.00    +0.314 C 
BRANCH  24  25
ATOM     25  O   UNL     1      35.003 -25.104 -11.643  0.00  0.00    -0.480 OA
ATOM     26  H   UNL     1      34.346 -24.568 -11.241  0.00  0.00    +0.295 HD
ENDBRANCH  24  25
ENDBRANCH  22  24
ENDBRANCH  21  22
ENDBRANCH  16  21
ENDBRANCH  14  16
ENDBRANCH  11  14
ENDBRANCH   1  11
BRANCH   9  27
ATOM     27  O   UNL     1      34.266 -19.783 -21.659  0.00  0.00    -0.471 OA
BRANCH  27  28
ATOM     28  C   UNL     1      35.437 -19.170 -22.194  0.00  0.00    +0.234 C 
BRANCH  28  30
ATOM     29  F   UNL     1      35.196 -17.067 -20.315  0.00  0.00    -0.204 F 
ATOM     30  C   UNL     1      35.117 -17.758 -22.585  0.00  0.00    +0.049 C 
ATOM     31  C   UNL     1      35.011 -16.767 -21.609  0.00  0.00    +0.140 C 
ATOM     32  C   UNL     1      34.924 -17.436 -23.929  0.00  0.00    +0.002 C 
ATOM     33  C   UNL     1      34.713 -15.455 -21.976  0.00  0.00    +0.040 C 
ATOM     34  C   UNL     1      34.625 -16.123 -24.296  0.00  0.00    +0.010 C 
ATOM     35  C   UNL     1      34.519 -15.133 -23.319  0.00  0.00    +0.071 C 
BRANCH  35  37
ATOM     36  N   UNL     1      33.967 -12.696 -24.000  0.00  0.00    -0.191 NA
ATOM     37  C   UNL     1      34.215 -13.788 -23.695  0.00  0.00    +0.100 C 
ENDBRANCH  35  37
ENDBRANCH  28  30
ENDBRANCH  27  28
ENDBRANCH   9  27
TORSDOF 13
ENDMDL
MODEL 2
REMARK VINA RESULT:     -12.0      1.493      2.790
REMARK  Name = 25058128
REMARK  13 active torsions:
REMARK  status: ('A' for Active; 'I' for Inactive)
REMARK    1  A    between atoms: C_1  and  S_11
REMARK    2  A    between atoms: C_9  and  O_27
REMARK    3  A    between atoms: S_11  and  N_14
REMARK    4  A    between atoms: N_14  and  C_16
REMARK    5  A    between atoms: C_16  and  C_18
REMARK    6  A    between atoms: C_16  and  C_21
REMARK    7  A    between atoms: C_18  and  O_19
REMARK    8  A    between atoms: C_21  and  C_22
REMARK    9  A    between atoms: C_22  and  C_24
REMARK   10  A    between atoms: C_24  and  O_25
REMARK   11  A    between atoms: O_27  and  C_28
REMARK   12  A    between atoms: C_28  and  C_30
REMARK   13  A    between atoms: C_35  and  C_37
REMARK                            x       y       z     vdW  Elec       q    Type
REMARK                         _______ _______ _______ _____ _____    ______ ____
ROOT
ATOM      1  C   UNL     1      34.529 -23.019 -16.478  0.00  0.00    +0.122 C 
ATOM      2  C   UNL     1      35.308 -21.771 -18.414  0.00  0.00    +0.002 C 
ATOM      3  C   UNL     1      35.569 -22.460 -17.219  0.00  0.00    +0.020 C 
ATOM      4  C   UNL     1      33.971 -21.648 -18.864  0.00  0.00    +0.003 C 
ATOM      5  C   UNL     1      33.215 -22.899 -16.920  0.00  0.00    +0.020 C 
ATOM      6  C   UNL     1      32.936 -22.218 -18.105  0.00  0.00    +0.001 C 
ATOM      7  C   UNL     1      33.709 -20.959 -20.059  0.00  0.00    +0.037 C 
ATOM      8  C   UNL     1      36.343 -21.201 -19.174  0.00  0.00    +0.003 C 
ATOM      9  C   UNL     1      34.750 -20.399 -20.801  0.00  0.00    +0.139 C 
ATOM     10  C   UNL     1      36.064 -20.520 -20.359  0.00  0.00    +0.037 C 
ENDROOT
BRANCH   1  11
ATOM     11  S   UNL     1      34.879 -23.883 -14.975  0.00  0.00    +0.061 S 
ATOM     12  O   UNL     1      35.407 -22.927 -14.022  0.00  0.00    -0.153 OA
ATOM     13  O   UNL     1      33.699 -24.661 -14.651  0.00  0.00    -0.153 OA
BRANCH  11  14
ATOM     14  N   UNL     1      36.118 -24.939 -15.461  0.00  0.00    -0.170 NA
ATOM     15  H   UNL     1      36.669 -24.445 -16.164  0.00  0.00    +0.149 HD
BRANCH  14  16
ATOM     16  C   UNL     1      37.075 -25.466 -14.462  0.00  0.00    +0.174 C 
BRANCH  16  18
ATOM     17  O   UNL     1      37.170 -27.602 -15.621  0.00  0.00    -0.249 OA
ATOM     18  C   UNL     1      37.087 -26.971 -14.574  0.00  0.00    +0.330 C 
BRANCH  18  19
ATOM     19  O   UNL     1      37.014 -27.576 -13.360  0.00  0.00    -0.479 OA
ATOM     20  H   UNL     1      36.182 -27.701 -12.948  0.00  0.00    +0.295 HD
ENDBRANCH  18  19
ENDBRANCH  16  18
BRANCH  16  21
ATOM     21  C   UNL     1      38.447 -24.803 -14.632  0.00  0.00    +0.040 C 
BRANCH  21  22
ATOM     22  C   UNL     1      39.553 -25.274 -13.685  0.00  0.00    +0.111 C 
BRANCH  22  24
ATOM     23  O   UNL     1      41.294 -26.949 -13.713  0.00  0.00    -0.250 OA
ATOM     24  C   UNL     1      40.566 -26.183 -14.333  0.00  0.00    +0.314 C 
BRANCH  24  25
ATOM     25  O   UNL     1      40.602 -26.054 -15.683  0.00  0.00    -0.480 OA
ATOM     26  H   UNL     1      40.097 -25.384 -16.102  0.00  0.00    +0.295 HD
ENDBRANCH  24  25
ENDBRANCH  22  24
ENDBRANCH  21  22
ENDBRANCH  16  21
ENDBRANCH  14  16
ENDBRANCH  11  14
ENDBRANCH   1  11
BRANCH   9  27
ATOM     27  O   UNL     1      34.481 -19.736 -21.959  0.00  0.00    -0.471 OA
BRANCH  27  28
ATOM     28  C   UNL     1      35.568 -19.062 -22.590  0.00  0.00    +0.234 C 
BRANCH  28  30
ATOM     29  F   UNL     1      35.310 -17.155 -20.513  0.00  0.00    -0.204 F 
ATOM     30  C   UNL     1      35.183 -17.633 -22.835  0.00  0.00    +0.049 C 
ATOM     31  C   UNL     1      35.072 -16.744 -21.767  0.00  0.00    +0.140 C 
ATOM     32  C   UNL     1      34.935 -17.195 -24.136  0.00  0.00    +0.002 C 
ATOM     33  C   UNL     1      34.713 -15.416 -21.999  0.00  0.00    +0.040 C 
ATOM     34  C   UNL     1      34.576 -15.867 -24.368  0.00  0.00    +0.010 C 
ATOM     35  C   UNL     1      34.465 -14.977 -23.300  0.00  0.00    +0.071 C 
BRANCH  35  37
ATOM     36  N   UNL     1      33.803 -12.511 -23.731  0.00  0.00    -0.191 NA
ATOM     37  C   UNL     1      34.099 -13.616 -23.537  0.00  0.00    +0.100 C 
ENDBRANCH  35  37
ENDBRANCH  28  30
ENDBRANCH  27  28
ENDBRANCH   9  27
TORSDOF 13
ENDMDL
MODEL 3
REMARK VINA RESULT:     -11.8      1.363      2.029
REMARK  Name = 25058128
REMARK  13 active torsions:
REMARK  status: ('A' for Active; 'I' for Inactive)
REMARK    1  A    between atoms: C_1  and  S_11
REMARK    2  A    between atoms: C_9  and  O_27
REMARK    3  A    between atoms: S_11  and  N_14
REMARK    4  A    between atoms: N_14  and  C_16
REMARK    5  A    between atoms: C_16  and  C_18
REMARK    6  A    between atoms: C_16  and  C_21
REMARK    7  A    between atoms: C_18  and  O_19
REMARK    8  A    between atoms: C_21  and  C_22
REMARK    9  A    between atoms: C_22  and  C_24
REMARK   10  A    between atoms: C_24  and  O_25
REMARK   11  A    between atoms: O_27  and  C_28
REMARK   12  A    between atoms: C_28  and  C_30
REMARK   13  A    between atoms: C_35  and  C_37
REMARK                            x       y       z     vdW  Elec       q    Type
REMARK                         _______ _______ _______ _____ _____    ______ ____
ROOT
ATOM      1  C   UNL     1      34.512 -23.077 -16.371  0.00  0.00    +0.122 C 
ATOM      2  C   UNL     1      35.294 -21.828 -18.306  0.00  0.00    +0.002 C 
ATOM      3  C   UNL     1      35.553 -22.520 -17.111  0.00  0.00    +0.020 C 
ATOM      4  C   UNL     1      33.957 -21.702 -18.755  0.00  0.00    +0.003 C 
ATOM      5  C   UNL     1      33.198 -22.954 -16.813  0.00  0.00    +0.020 C 
ATOM      6  C   UNL     1      32.921 -22.271 -17.998  0.00  0.00    +0.001 C 
ATOM      7  C   UNL     1      33.697 -21.011 -19.950  0.00  0.00    +0.037 C 
ATOM      8  C   UNL     1      36.330 -21.259 -19.064  0.00  0.00    +0.003 C 
ATOM      9  C   UNL     1      34.739 -20.452 -20.691  0.00  0.00    +0.139 C 
ATOM     10  C   UNL     1      36.052 -20.576 -20.249  0.00  0.00    +0.037 C 
ENDROOT
BRANCH   1  11
ATOM     11  S   UNL     1      34.861 -23.944 -14.869  0.00  0.00    +0.061 S 
ATOM     12  O   UNL     1      35.335 -22.980 -13.897  0.00  0.00    -0.153 OA
ATOM     13  O   UNL     1      33.702 -24.766 -14.578  0.00  0.00    -0.153 OA
BRANCH  11  14
ATOM     14  N   UNL     1      36.146 -24.952 -15.339  0.00  0.00    -0.170 NA
ATOM     15  H   UNL     1      36.773 -24.385 -15.909  0.00  0.00    +0.149 HD
BRANCH  14  16
ATOM     16  C   UNL     1      36.982 -25.611 -14.312  0.00  0.00    +0.174 C 
BRANCH  16  18
ATOM     17  O   UNL     1      38.297 -27.656 -14.363  0.00  0.00    -0.249 OA
ATOM     18  C   UNL     1      37.435 -26.943 -14.860  0.00  0.00    +0.330 C 
BRANCH  18  19
ATOM     19  O   UNL     1      36.755 -27.292 -15.984  0.00  0.00    -0.479 OA
ATOM     20  H   UNL     1      36.794 -26.745 -16.744  0.00  0.00    +0.295 HD
ENDBRANCH  18  19
ENDBRANCH  16  18
BRANCH  16  21
ATOM     21  C   UNL     1      38.119 -24.683 -13.869  0.00  0.00    +0.040 C 
BRANCH  21  22
ATOM     22  C   UNL     1      38.569 -24.804 -12.411  0.00  0.00    +0.111 C 
BRANCH  22  24
ATOM     23  O   UNL     1      38.155 -22.566 -11.600  0.00  0.00    -0.250 OA
ATOM     24  C   UNL     1      37.960 -23.771 -11.496  0.00  0.00    +0.314 C 
BRANCH  24  25
ATOM     25  O   UNL     1      37.182 -24.318 -10.529  0.00  0.00    -0.480 OA
ATOM     26  H   UNL     1      37.573 -24.639  -9.740  0.00  0.00    +0.295 HD
ENDBRANCH  24  25
ENDBRANCH  22  24
ENDBRANCH  21  22
ENDBRANCH  16  21
ENDBRANCH  14  16
ENDBRANCH  11  14
ENDBRANCH   1  11
BRANCH   9  27
ATOM     27  O   UNL     1      34.471 -19.787 -21.847  0.00  0.00    -0.471 OA
BRANCH  27  28
ATOM     28  C   UNL     1      35.565 -19.136 -22.491  0.00  0.00    +0.234 C 
BRANCH  28  30
ATOM     29  F   UNL     1      35.325 -17.181 -20.458  0.00  0.00    -0.204 F 
ATOM     30  C   UNL     1      35.192 -17.710 -22.768  0.00  0.00    +0.049 C 
ATOM     31  C   UNL     1      35.090 -16.795 -21.720  0.00  0.00    +0.140 C 
ATOM     32  C   UNL     1      34.947 -17.298 -24.079  0.00  0.00    +0.002 C 
ATOM     33  C   UNL     1      34.742 -15.470 -21.982  0.00  0.00    +0.040 C 
ATOM     34  C   UNL     1      34.599 -15.972 -24.340  0.00  0.00    +0.010 C 
ATOM     35  C   UNL     1      34.497 -15.058 -23.291  0.00  0.00    +0.071 C 
BRANCH  35  37
ATOM     36  N   UNL     1      33.856 -12.597 -23.775  0.00  0.00    -0.191 NA
ATOM     37  C   UNL     1      34.143 -13.700 -23.559  0.00  0.00    +0.100 C 
ENDBRANCH  35  37
ENDBRANCH  28  30
ENDBRANCH  27  28
ENDBRANCH   9  27
TORSDOF 13
ENDMDL
MODEL 4
REMARK VINA RESULT:     -11.5      1.658      3.311
REMARK  Name = 25058128
REMARK  13 active torsions:
REMARK  status: ('A' for Active; 'I' for Inactive)
REMARK    1  A    between atoms: C_1  and  S_11
REMARK    2  A    between atoms: C_9  and  O_27
REMARK    3  A    between atoms: S_11  and  N_14
REMARK    4  A    between atoms: N_14  and  C_16
REMARK    5  A    between atoms: C_16  and  C_18
REMARK    6  A    between atoms: C_16  and  C_21
REMARK    7  A    between atoms: C_18  and  O_19
REMARK    8  A    between atoms: C_21  and  C_22
REMARK    9  A    between atoms: C_22  and  C_24
REMARK   10  A    between atoms: C_24  and  O_25
REMARK   11  A    between atoms: O_27  and  C_28
REMARK   12  A    between atoms: C_28  and  C_30
REMARK   13  A    between atoms: C_35  and  C_37
REMARK                            x       y       z     vdW  Elec       q    Type
REMARK                         _______ _______ _______ _____ _____    ______ ____
ROOT
ATOM      1  C   UNL     1      34.165 -23.690 -15.168  0.00  0.00    +0.122 C 
ATOM      2  C   UNL     1      35.255 -22.524 -17.003  0.00  0.00    +0.002 C 
ATOM      3  C   UNL     1      35.316 -23.165 -15.755  0.00  0.00    +0.020 C 
ATOM      4  C   UNL     1      34.008 -22.416 -17.665  0.00  0.00    +0.003 C 
ATOM      5  C   UNL     1      32.940 -23.584 -15.818  0.00  0.00    +0.020 C 
ATOM      6  C   UNL     1      32.860 -22.951 -17.059  0.00  0.00    +0.001 C 
ATOM      7  C   UNL     1      33.946 -21.776 -18.914  0.00  0.00    +0.037 C 
ATOM      8  C   UNL     1      36.403 -21.988 -17.610  0.00  0.00    +0.003 C 
ATOM      9  C   UNL     1      35.097 -21.249 -19.501  0.00  0.00    +0.139 C 
ATOM     10  C   UNL     1      36.323 -21.355 -18.851  0.00  0.00    +0.037 C 
ENDROOT
BRANCH   1  11
ATOM     11  S   UNL     1      34.264 -24.493 -13.595  0.00  0.00    +0.061 S 
ATOM     12  O   UNL     1      34.470 -23.475 -12.585  0.00  0.00    -0.153 OA
ATOM     13  O   UNL     1      33.127 -25.390 -13.507  0.00  0.00    -0.153 OA
BRANCH  11  14
ATOM     14  N   UNL     1      35.680 -25.417 -13.764  0.00  0.00    -0.170 NA
ATOM     15  H   UNL     1      35.801 -25.593 -14.762  0.00  0.00    +0.149 HD
BRANCH  14  16
ATOM     16  C   UNL     1      36.970 -24.891 -13.264  0.00  0.00    +0.174 C 
BRANCH  16  18
ATOM     17  O   UNL     1      37.517 -24.681 -10.904  0.00  0.00    -0.249 OA
ATOM     18  C   UNL     1      37.155 -25.375 -11.846  0.00  0.00    +0.330 C 
BRANCH  18  19
ATOM     19  O   UNL     1      36.852 -26.692 -11.711  0.00  0.00    -0.479 OA
ATOM     20  H   UNL     1      35.983 -26.994 -11.887  0.00  0.00    +0.295 HD
ENDBRANCH  18  19
ENDBRANCH  16  18
BRANCH  16  21
ATOM     21  C   UNL     1      38.109 -25.265 -14.220  0.00  0.00    +0.040 C 
BRANCH  21  22
ATOM     22  C   UNL     1      39.525 -25.233 -13.639  0.00  0.00    +0.111 C 
BRANCH  22  24
ATOM     23  O   UNL     1      41.319 -26.841 -13.821  0.00  0.00    -0.250 OA
ATOM     24  C   UNL     1      40.506 -26.110 -14.374  0.00  0.00    +0.314 C 
BRANCH  24  25
ATOM     25  O   UNL     1      40.410 -25.993 -15.722  0.00  0.00    -0.480 OA
ATOM     26  H   UNL     1      39.722 -26.434 -16.182  0.00  0.00    +0.295 HD
ENDBRANCH  24  25
ENDBRANCH  22  24
ENDBRANCH  21  22
ENDBRANCH  16  21
ENDBRANCH  14  16
ENDBRANCH  11  14
ENDBRANCH   1  11
BRANCH   9  27
ATOM     27  O   UNL     1      35.022 -20.633 -20.712  0.00  0.00    -0.471 OA
BRANCH  27  28
ATOM     28  C   UNL     1      36.110 -19.787 -21.080  0.00  0.00    +0.234 C 
BRANCH  28  30
ATOM     29  F   UNL     1      35.442 -19.901 -23.828  0.00  0.00    -0.204 F 
ATOM     30  C   UNL     1      35.579 -18.609 -21.842  0.00  0.00    +0.049 C 
ATOM     31  C   UNL     1      35.270 -18.731 -23.196  0.00  0.00    +0.140 C 
ATOM     32  C   UNL     1      35.395 -17.388 -21.192  0.00  0.00    +0.002 C 
ATOM     33  C   UNL     1      34.777 -17.633 -23.901  0.00  0.00    +0.040 C 
ATOM     34  C   UNL     1      34.903 -16.289 -21.898  0.00  0.00    +0.010 C 
ATOM     35  C   UNL     1      34.594 -16.412 -23.253  0.00  0.00    +0.071 C 
BRANCH  35  37
ATOM     36  N   UNL     1      33.675 -14.376 -24.562  0.00  0.00    -0.191 NA
ATOM     37  C   UNL     1      34.087 -15.288 -23.975  0.00  0.00    +0.100 C 
ENDBRANCH  35  37
ENDBRANCH  28  30
ENDBRANCH  27  28
ENDBRANCH   9  27
TORSDOF 13
ENDMDL
MODEL 5
REMARK VINA RESULT:     -11.2      2.899      4.529
REMARK  Name = 25058128
REMARK  13 active torsions:
REMARK  status: ('A' for Active; 'I' for Inactive)
REMARK    1  A    between atoms: C_1  and  S_11
REMARK    2  A    between atoms: C_9  and  O_27
REMARK    3  A    between atoms: S_11  and  N_14
REMARK    4  A    between atoms: N_14  and  C_16
REMARK    5  A    between atoms: C_16  and  C_18
REMARK    6  A    between atoms: C_16  and  C_21
REMARK    7  A    between atoms: C_18  and  O_19
REMARK    8  A    between atoms: C_21  and  C_22
REMARK    9  A    between atoms: C_22  and  C_24
REMARK   10  A    between atoms: C_24  and  O_25
REMARK   11  A    between atoms: O_27  and  C_28
REMARK   12  A    between atoms: C_28  and  C_30
REMARK   13  A    between atoms: C_35  and  C_37
REMARK                            x       y       z     vdW  Elec       q    Type
REMARK                         _______ _______ _______ _____ _____    ______ ____
ROOT
ATOM      1  C   UNL     1      35.276 -22.642 -16.681  0.00  0.00    +0.122 C 
ATOM      2  C   UNL     1      34.198 -21.630 -18.613  0.00  0.00    +0.002 C 
ATOM      3  C   UNL     1      34.120 -22.309 -17.385  0.00  0.00    +0.020 C 
ATOM      4  C   UNL     1      35.470 -21.285 -19.131  0.00  0.00    +0.003 C 
ATOM      5  C   UNL     1      36.526 -22.301 -17.190  0.00  0.00    +0.020 C 
ATOM      6  C   UNL     1      36.623 -21.627 -18.408  0.00  0.00    +0.001 C 
ATOM      7  C   UNL     1      35.549 -20.606 -20.358  0.00  0.00    +0.037 C 
ATOM      8  C   UNL     1      33.045 -21.288 -19.337  0.00  0.00    +0.003 C 
ATOM      9  C   UNL     1      34.392 -20.273 -21.064  0.00  0.00    +0.139 C 
ATOM     10  C   UNL     1      33.143 -20.614 -20.554  0.00  0.00    +0.037 C 
ENDROOT
BRANCH   1  11
ATOM     11  S   UNL     1      35.155 -23.496 -15.137  0.00  0.00    +0.061 S 
ATOM     12  O   UNL     1      35.091 -24.916 -15.416  0.00  0.00    -0.153 OA
ATOM     13  O   UNL     1      36.197 -22.966 -14.279  0.00  0.00    -0.153 OA
BRANCH  11  14
ATOM     14  N   UNL     1      33.647 -22.964 -14.562  0.00  0.00    -0.170 NA
ATOM     15  H   UNL     1      33.381 -22.159 -15.130  0.00  0.00    +0.149 HD
BRANCH  14  16
ATOM     16  C   UNL     1      32.490 -23.887 -14.561  0.00  0.00    +0.174 C 
BRANCH  16  18
ATOM     17  O   UNL     1      31.589 -25.202 -12.724  0.00  0.00    -0.249 OA
ATOM     18  C   UNL     1      32.122 -24.175 -13.126  0.00  0.00    +0.330 C 
BRANCH  18  19
ATOM     19  O   UNL     1      32.471 -23.159 -12.293  0.00  0.00    -0.479 OA
ATOM     20  H   UNL     1      31.884 -22.885 -11.617  0.00  0.00    +0.295 HD
ENDBRANCH  18  19
ENDBRANCH  16  18
BRANCH  16  21
ATOM     21  C   UNL     1      31.347 -23.315 -15.410  0.00  0.00    +0.040 C 
BRANCH  21  22
ATOM     22  C   UNL     1      30.063 -22.944 -14.663  0.00  0.00    +0.111 C 
BRANCH  22  24
ATOM     23  O   UNL     1      27.714 -23.081 -15.208  0.00  0.00    -0.250 OA
ATOM     24  C   UNL     1      28.856 -22.807 -15.556  0.00  0.00    +0.314 C 
BRANCH  24  25
ATOM     25  O   UNL     1      29.167 -22.363 -16.799  0.00  0.00    -0.480 OA
ATOM     26  H   UNL     1      29.880 -21.766 -16.917  0.00  0.00    +0.295 HD
ENDBRANCH  24  25
ENDBRANCH  22  24
ENDBRANCH  21  22
ENDBRANCH  16  21
ENDBRANCH  14  16
ENDBRANCH  11  14
ENDBRANCH   1  11
BRANCH   9  27
ATOM     27  O   UNL     1      34.485 -19.614 -22.251  0.00  0.00    -0.471 OA
BRANCH  27  28
ATOM     28  C   UNL     1      35.650 -18.818 -22.463  0.00  0.00    +0.234 C 
BRANCH  28  30
ATOM     29  F   UNL     1      35.184 -16.936 -20.400  0.00  0.00    -0.204 F 
ATOM     30  C   UNL     1      35.234 -17.401 -22.727  0.00  0.00    +0.049 C 
ATOM     31  C   UNL     1      35.019 -16.524 -21.664  0.00  0.00    +0.140 C 
ATOM     32  C   UNL     1      35.061 -16.962 -24.040  0.00  0.00    +0.002 C 
ATOM     33  C   UNL     1      34.632 -15.207 -21.915  0.00  0.00    +0.040 C 
ATOM     34  C   UNL     1      34.672 -15.645 -24.290  0.00  0.00    +0.010 C 
ATOM     35  C   UNL     1      34.458 -14.768 -23.227  0.00  0.00    +0.071 C 
BRANCH  35  37
ATOM     36  N   UNL     1      33.743 -12.323 -23.689  0.00  0.00    -0.191 NA
ATOM     37  C   UNL     1      34.063 -13.419 -23.482  0.00  0.00    +0.100 C 
ENDBRANCH  35  37
ENDBRANCH  28  30
ENDBRANCH  27  28
ENDBRANCH   9  27
TORSDOF 13
ENDMDL
MODEL 6
REMARK VINA RESULT:     -11.1      3.477     11.015
REMARK  Name = 25058128
REMARK  13 active torsions:
REMARK  status: ('A' for Active; 'I' for Inactive)
REMARK    1  A    between atoms: C_1  and  S_11
REMARK    2  A    between atoms: C_9  and  O_27
REMARK    3  A    between atoms: S_11  and  N_14
REMARK    4  A    between atoms: N_14  and  C_16
REMARK    5  A    between atoms: C_16  and  C_18
REMARK    6  A    between atoms: C_16  and  C_21
REMARK    7  A    between atoms: C_18  and  O_19
REMARK    8  A    between atoms: C_21  and  C_22
REMARK    9  A    between atoms: C_22  and  C_24
REMARK   10  A    between atoms: C_24  and  O_25
REMARK   11  A    between atoms: O_27  and  C_28
REMARK   12  A    between atoms: C_28  and  C_30
REMARK   13  A    between atoms: C_35  and  C_37
REMARK                            x       y       z     vdW  Elec       q    Type
REMARK                         _______ _______ _______ _____ _____    ______ ____
ROOT
ATOM      1  C   UNL     1      35.360 -19.748 -21.065  0.00  0.00    +0.122 C 
ATOM      2  C   UNL     1      34.154 -21.125 -19.463  0.00  0.00    +0.002 C 
ATOM      3  C   UNL     1      34.159 -20.230 -20.546  0.00  0.00    +0.020 C 
ATOM      4  C   UNL     1      35.387 -21.536 -18.901  0.00  0.00    +0.003 C 
ATOM      5  C   UNL     1      36.571 -20.153 -20.513  0.00  0.00    +0.020 C 
ATOM      6  C   UNL     1      36.586 -21.042 -19.437  0.00  0.00    +0.001 C 
ATOM      7  C   UNL     1      35.383 -22.432 -17.819  0.00  0.00    +0.037 C 
ATOM      8  C   UNL     1      32.955 -21.620 -18.926  0.00  0.00    +0.003 C 
ATOM      9  C   UNL     1      34.181 -22.914 -17.298  0.00  0.00    +0.139 C 
ATOM     10  C   UNL     1      32.970 -22.509 -17.850  0.00  0.00    +0.037 C 
ENDROOT
BRANCH   1  11
ATOM     11  S   UNL     1      35.343 -18.622 -22.429  0.00  0.00    +0.061 S 
ATOM     12  O   UNL     1      36.717 -18.302 -22.761  0.00  0.00    -0.153 OA
ATOM     13  O   UNL     1      34.461 -19.187 -23.432  0.00  0.00    -0.153 OA
BRANCH  11  14
ATOM     14  N   UNL     1      34.595 -17.258 -21.745  0.00  0.00    -0.170 NA
ATOM     15  H   UNL     1      34.721 -17.327 -20.735  0.00  0.00    +0.149 HD
BRANCH  14  16
ATOM     16  C   UNL     1      35.033 -15.900 -22.138  0.00  0.00    +0.174 C 
BRANCH  16  18
ATOM     17  O   UNL     1      33.622 -14.959 -23.881  0.00  0.00    -0.249 OA
ATOM     18  C   UNL     1      34.577 -15.653 -23.556  0.00  0.00    +0.330 C 
BRANCH  18  19
ATOM     19  O   UNL     1      35.368 -16.281 -24.465  0.00  0.00    -0.479 OA
ATOM     20  H   UNL     1      36.245 -15.985 -24.607  0.00  0.00    +0.295 HD
ENDBRANCH  18  19
ENDBRANCH  16  18
BRANCH  16  21
ATOM     21  C   UNL     1      34.543 -14.863 -21.120  0.00  0.00    +0.040 C 
BRANCH  21  22
ATOM     22  C   UNL     1      33.066 -14.942 -20.724  0.00  0.00    +0.111 C 
BRANCH  22  24
ATOM     23  O   UNL     1      31.969 -12.946 -19.919  0.00  0.00    -0.250 OA
ATOM     24  C   UNL     1      32.326 -13.636 -20.866  0.00  0.00    +0.314 C 
BRANCH  24  25
ATOM     25  O   UNL     1      32.077 -13.310 -22.159  0.00  0.00    -0.480 OA
ATOM     26  H   UNL     1      31.203 -13.101 -22.429  0.00  0.00    +0.295 HD
ENDBRANCH  24  25
ENDBRANCH  22  24
ENDBRANCH  21  22
ENDBRANCH  16  21
ENDBRANCH  14  16
ENDBRANCH  11  14
ENDBRANCH   1  11
BRANCH   9  27
ATOM     27  O   UNL     1      34.194 -23.782 -16.250  0.00  0.00    -0.471 OA
BRANCH  27  28
ATOM     28  C   UNL     1      34.809 -23.334 -15.043  0.00  0.00    +0.234 C 
BRANCH  28  30
ATOM     29  F   UNL     1      37.306 -22.006 -15.160  0.00  0.00    -0.204 F 
ATOM     30  C   UNL     1      36.120 -24.042 -14.868  0.00  0.00    +0.049 C 
ATOM     31  C   UNL     1      37.316 -23.328 -14.939  0.00  0.00    +0.140 C 
ATOM     32  C   UNL     1      36.141 -25.417 -14.636  0.00  0.00    +0.002 C 
ATOM     33  C   UNL     1      38.533 -23.990 -14.776  0.00  0.00    +0.040 C 
ATOM     34  C   UNL     1      37.359 -26.079 -14.475  0.00  0.00    +0.010 C 
ATOM     35  C   UNL     1      38.555 -25.365 -14.545  0.00  0.00    +0.071 C 
BRANCH  35  37
ATOM     36  N   UNL     1      40.815 -26.591 -14.241  0.00  0.00    -0.191 NA
ATOM     37  C   UNL     1      39.802 -26.042 -14.377  0.00  0.00    +0.100 C 
ENDBRANCH  35  37
ENDBRANCH  28  30
ENDBRANCH  27  28
ENDBRANCH   9  27
TORSDOF 13
ENDMDL
MODEL 7
REMARK VINA RESULT:     -11.0      4.859      8.463
REMARK  Name = 25058128
REMARK  13 active torsions:
REMARK  status: ('A' for Active; 'I' for Inactive)
REMARK    1  A    between atoms: C_1  and  S_11
REMARK    2  A    between atoms: C_9  and  O_27
REMARK    3  A    between atoms: S_11  and  N_14
REMARK    4  A    between atoms: N_14  and  C_16
REMARK    5  A    between atoms: C_16  and  C_18
REMARK    6  A    between atoms: C_16  and  C_21
REMARK    7  A    between atoms: C_18  and  O_19
REMARK    8  A    between atoms: C_21  and  C_22
REMARK    9  A    between atoms: C_22  and  C_24
REMARK   10  A    between atoms: C_24  and  O_25
REMARK   11  A    between atoms: O_27  and  C_28
REMARK   12  A    between atoms: C_28  and  C_30
REMARK   13  A    between atoms: C_35  and  C_37
REMARK                            x       y       z     vdW  Elec       q    Type
REMARK                         _______ _______ _______ _____ _____    ______ ____
ROOT
ATOM      1  C   UNL     1      35.248 -17.180 -21.918  0.00  0.00    +0.122 C 
ATOM      2  C   UNL     1      33.844 -15.365 -21.111  0.00  0.00    +0.002 C 
ATOM      3  C   UNL     1      34.544 -16.561 -20.885  0.00  0.00    +0.020 C 
ATOM      4  C   UNL     1      33.858 -14.789 -22.404  0.00  0.00    +0.003 C 
ATOM      5  C   UNL     1      35.262 -16.613 -23.189  0.00  0.00    +0.020 C 
ATOM      6  C   UNL     1      34.572 -15.425 -23.431  0.00  0.00    +0.001 C 
ATOM      7  C   UNL     1      33.158 -13.592 -22.630  0.00  0.00    +0.037 C 
ATOM      8  C   UNL     1      33.129 -14.728 -20.083  0.00  0.00    +0.003 C 
ATOM      9  C   UNL     1      32.454 -12.973 -21.596  0.00  0.00    +0.139 C 
ATOM     10  C   UNL     1      32.439 -13.540 -20.326  0.00  0.00    +0.037 C 
ENDROOT
BRANCH   1  11
ATOM     11  S   UNL     1      36.123 -18.686 -21.612  0.00  0.00    +0.061 S 
ATOM     12  O   UNL     1      36.823 -19.050 -22.828  0.00  0.00    -0.153 OA
ATOM     13  O   UNL     1      36.856 -18.503 -20.374  0.00  0.00    -0.153 OA
BRANCH  11  14
ATOM     14  N   UNL     1      34.851 -19.780 -21.342  0.00  0.00    -0.170 NA
ATOM     15  H   UNL     1      34.957 -20.530 -22.025  0.00  0.00    +0.149 HD
BRANCH  14  16
ATOM     16  C   UNL     1      34.700 -20.425 -20.020  0.00  0.00    +0.174 C 
BRANCH  16  18
ATOM     17  O   UNL     1      32.288 -20.112 -20.056  0.00  0.00    -0.249 OA
ATOM     18  C   UNL     1      33.256 -20.837 -19.863  0.00  0.00    +0.330 C 
BRANCH  18  19
ATOM     19  O   UNL     1      33.133 -22.139 -19.493  0.00  0.00    -0.479 OA
ATOM     20  H   UNL     1      32.536 -22.701 -19.947  0.00  0.00    +0.295 HD
ENDBRANCH  18  19
ENDBRANCH  16  18
BRANCH  16  21
ATOM     21  C   UNL     1      35.711 -21.567 -19.861  0.00  0.00    +0.040 C 
BRANCH  21  22
ATOM     22  C   UNL     1      36.741 -21.414 -18.738  0.00  0.00    +0.111 C 
BRANCH  22  24
ATOM     23  O   UNL     1      37.020 -22.066 -16.429  0.00  0.00    -0.250 OA
ATOM     24  C   UNL     1      36.354 -22.108 -17.456  0.00  0.00    +0.314 C 
BRANCH  24  25
ATOM     25  O   UNL     1      35.194 -22.802 -17.562  0.00  0.00    -0.480 OA
ATOM     26  H   UNL     1      34.729 -22.815 -18.377  0.00  0.00    +0.295 HD
ENDBRANCH  24  25
ENDBRANCH  22  24
ENDBRANCH  21  22
ENDBRANCH  16  21
ENDBRANCH  14  16
ENDBRANCH  11  14
ENDBRANCH   1  11
BRANCH   9  27
ATOM     27  O   UNL     1      31.782 -11.813 -21.831  0.00  0.00    -0.471 OA
BRANCH  27  28
ATOM     28  C   UNL     1      31.641 -10.911 -20.735  0.00  0.00    +0.234 C 
BRANCH  28  30
ATOM     29  F   UNL     1      32.036  -8.676 -19.042  0.00  0.00    -0.204 F 
ATOM     30  C   UNL     1      31.724  -9.503 -21.246  0.00  0.00    +0.049 C 
ATOM     31  C   UNL     1      31.920  -8.445 -20.357  0.00  0.00    +0.140 C 
ATOM     32  C   UNL     1      31.606  -9.252 -22.613  0.00  0.00    +0.002 C 
ATOM     33  C   UNL     1      31.997  -7.137 -20.837  0.00  0.00    +0.040 C 
ATOM     34  C   UNL     1      31.682  -7.944 -23.092  0.00  0.00    +0.010 C 
ATOM     35  C   UNL     1      31.878  -6.886 -22.203  0.00  0.00    +0.071 C 
BRANCH  35  37
ATOM     36  N   UNL     1      32.024  -4.459 -23.093  0.00  0.00    -0.191 NA
ATOM     37  C   UNL     1      31.958  -5.546 -22.693  0.00  0.00    +0.100 C 
ENDBRANCH  35  37
ENDBRANCH  28  30
ENDBRANCH  27  28
ENDBRANCH   9  27
TORSDOF 13
ENDMDL
MODEL 8
REMARK VINA RESULT:     -10.9      3.315      5.201
REMARK  Name = 25058128
REMARK  13 active torsions:
REMARK  status: ('A' for Active; 'I' for Inactive)
REMARK    1  A    between atoms: C_1  and  S_11
REMARK    2  A    between atoms: C_9  and  O_27
REMARK    3  A    between atoms: S_11  and  N_14
REMARK    4  A    between atoms: N_14  and  C_16
REMARK    5  A    between atoms: C_16  and  C_18
REMARK    6  A    between atoms: C_16  and  C_21
REMARK    7  A    between atoms: C_18  and  O_19
REMARK    8  A    between atoms: C_21  and  C_22
REMARK    9  A    between atoms: C_22  and  C_24
REMARK   10  A    between atoms: C_24  and  O_25
REMARK   11  A    between atoms: O_27  and  C_28
REMARK   12  A    between atoms: C_28  and  C_30
REMARK   13  A    between atoms: C_35  and  C_37
REMARK                            x       y       z     vdW  Elec       q    Type
REMARK                         _______ _______ _______ _____ _____    ______ ____
ROOT
ATOM      1  C   UNL     1      34.397 -22.564 -17.376  0.00  0.00    +0.122 C 
ATOM      2  C   UNL     1      35.451 -21.246 -19.127  0.00  0.00    +0.002 C 
ATOM      3  C   UNL     1      35.543 -22.032 -17.967  0.00  0.00    +0.020 C 
ATOM      4  C   UNL     1      34.179 -20.997 -19.696  0.00  0.00    +0.003 C 
ATOM      5  C   UNL     1      33.147 -22.320 -17.935  0.00  0.00    +0.020 C 
ATOM      6  C   UNL     1      33.036 -21.542 -19.088  0.00  0.00    +0.001 C 
ATOM      7  C   UNL     1      34.087 -20.212 -20.856  0.00  0.00    +0.037 C 
ATOM      8  C   UNL     1      36.594 -20.701 -19.736  0.00  0.00    +0.003 C 
ATOM      9  C   UNL     1      35.233 -19.678 -21.448  0.00  0.00    +0.139 C 
ATOM     10  C   UNL     1      36.483 -19.922 -20.889  0.00  0.00    +0.037 C 
ENDROOT
BRANCH   1  11
ATOM     11  S   UNL     1      34.534 -23.551 -15.915  0.00  0.00    +0.061 S 
ATOM     12  O   UNL     1      34.302 -24.933 -16.286  0.00  0.00    -0.153 OA
ATOM     13  O   UNL     1      35.771 -23.168 -15.262  0.00  0.00    -0.153 OA
BRANCH  11  14
ATOM     14  N   UNL     1      33.226 -22.987 -14.989  0.00  0.00    -0.170 NA
ATOM     15  H   UNL     1      32.958 -22.082 -15.377  0.00  0.00    +0.149 HD
BRANCH  14  16
ATOM     16  C   UNL     1      31.989 -23.793 -14.891  0.00  0.00    +0.174 C 
BRANCH  16  18
ATOM     17  O   UNL     1      31.549 -23.574 -12.509  0.00  0.00    -0.249 OA
ATOM     18  C   UNL     1      31.855 -24.274 -13.466  0.00  0.00    +0.330 C 
BRANCH  18  19
ATOM     19  O   UNL     1      32.098 -25.605 -13.350  0.00  0.00    -0.479 OA
ATOM     20  H   UNL     1      31.606 -26.218 -13.860  0.00  0.00    +0.295 HD
ENDBRANCH  18  19
ENDBRANCH  16  18
BRANCH  16  21
ATOM     21  C   UNL     1      30.786 -22.995 -15.410  0.00  0.00    +0.040 C 
BRANCH  21  22
ATOM     22  C   UNL     1      29.425 -23.692 -15.340  0.00  0.00    +0.111 C 
BRANCH  22  24
ATOM     23  O   UNL     1      28.143 -22.021 -16.525  0.00  0.00    -0.250 OA
ATOM     24  C   UNL     1      28.434 -23.201 -16.365  0.00  0.00    +0.314 C 
BRANCH  24  25
ATOM     25  O   UNL     1      27.881 -24.206 -17.088  0.00  0.00    -0.480 OA
ATOM     26  H   UNL     1      27.074 -24.593 -16.808  0.00  0.00    +0.295 HD
ENDBRANCH  24  25
ENDBRANCH  22  24
ENDBRANCH  21  22
ENDBRANCH  16  21
ENDBRANCH  14  16
ENDBRANCH  11  14
ENDBRANCH   1  11
BRANCH   9  27
ATOM     27  O   UNL     1      35.128 -18.920 -22.573  0.00  0.00    -0.471 OA
BRANCH  27  28
ATOM     28  C   UNL     1      35.912 -17.730 -22.630  0.00  0.00    +0.234 C 
BRANCH  28  30
ATOM     29  F   UNL     1      34.867 -16.118 -24.710  0.00  0.00    -0.204 F 
ATOM     30  C   UNL     1      35.025 -16.546 -22.381  0.00  0.00    +0.049 C 
ATOM     31  C   UNL     1      34.544 -15.792 -23.451  0.00  0.00    +0.140 C 
ATOM     32  C   UNL     1      34.682 -16.200 -21.074  0.00  0.00    +0.002 C 
ATOM     33  C   UNL     1      33.720 -14.691 -23.214  0.00  0.00    +0.040 C 
ATOM     34  C   UNL     1      33.858 -15.098 -20.837  0.00  0.00    +0.010 C 
ATOM     35  C   UNL     1      33.377 -14.344 -21.908  0.00  0.00    +0.071 C 
BRANCH  35  37
ATOM     36  N   UNL     1      31.846 -12.302 -21.470  0.00  0.00    -0.191 NA
ATOM     37  C   UNL     1      32.532 -13.218 -21.666  0.00  0.00    +0.100 C 
ENDBRANCH  35  37
ENDBRANCH  28  30
ENDBRANCH  27  28
ENDBRANCH   9  27
TORSDOF 13
ENDMDL
MODEL 9
REMARK VINA RESULT:     -10.7      3.458     11.216
REMARK  Name = 25058128
REMARK  13 active torsions:
REMARK  status: ('A' for Active; 'I' for Inactive)
REMARK    1  A    between atoms: C_1  and  S_11
REMARK    2  A    between atoms: C_9  and  O_27
REMARK    3  A    between atoms: S_11  and  N_14
REMARK    4  A    between atoms: N_14  and  C_16
REMARK    5  A    between atoms: C_16  and  C_18
REMARK    6  A    between atoms: C_16  and  C_21
REMARK    7  A    between atoms: C_18  and  O_19
REMARK    8  A    between atoms: C_21  and  C_22
REMARK    9  A    between atoms: C_22  and  C_24
REMARK   10  A    between atoms: C_24  and  O_25
REMARK   11  A    between atoms: O_27  and  C_28
REMARK   12  A    between atoms: C_28  and  C_30
REMARK   13  A    between atoms: C_35  and  C_37
REMARK                            x       y       z     vdW  Elec       q    Type
REMARK                         _______ _______ _______ _____ _____    ______ ____
ROOT
ATOM      1  C   UNL     1      34.792 -19.765 -21.120  0.00  0.00    +0.122 C 
ATOM      2  C   UNL     1      35.438 -21.175 -19.246  0.00  0.00    +0.002 C 
ATOM      3  C   UNL     1      35.777 -20.294 -20.287  0.00  0.00    +0.020 C 
ATOM      4  C   UNL     1      34.079 -21.522 -19.050  0.00  0.00    +0.003 C 
ATOM      5  C   UNL     1      33.457 -20.106 -20.927  0.00  0.00    +0.020 C 
ATOM      6  C   UNL     1      33.101 -20.979 -19.898  0.00  0.00    +0.001 C 
ATOM      7  C   UNL     1      33.740 -22.402 -18.009  0.00  0.00    +0.037 C 
ATOM      8  C   UNL     1      36.415 -21.718 -18.397  0.00  0.00    +0.003 C 
ATOM      9  C   UNL     1      34.725 -22.932 -17.175  0.00  0.00    +0.139 C 
ATOM     10  C   UNL     1      36.060 -22.591 -17.369  0.00  0.00    +0.037 C 
ENDROOT
BRANCH   1  11
ATOM     11  S   UNL     1      35.240 -18.658 -22.425  0.00  0.00    +0.061 S 
ATOM     12  O   UNL     1      36.680 -18.492 -22.395  0.00  0.00    -0.153 OA
ATOM     13  O   UNL     1      34.585 -19.135 -23.627  0.00  0.00    -0.153 OA
BRANCH  11  14
ATOM     14  N   UNL     1      34.495 -17.214 -21.928  0.00  0.00    -0.170 NA
ATOM     15  H   UNL     1      34.531 -17.198 -20.909  0.00  0.00    +0.149 HD
BRANCH  14  16
ATOM     16  C   UNL     1      35.021 -15.912 -22.395  0.00  0.00    +0.174 C 
BRANCH  16  18
ATOM     17  O   UNL     1      33.563 -15.057 -24.143  0.00  0.00    -0.249 OA
ATOM     18  C   UNL     1      34.552 -15.699 -23.814  0.00  0.00    +0.330 C 
BRANCH  18  19
ATOM     19  O   UNL     1      35.374 -16.292 -24.719  0.00  0.00    -0.479 OA
ATOM     20  H   UNL     1      35.334 -16.044 -25.621  0.00  0.00    +0.295 HD
ENDBRANCH  18  19
ENDBRANCH  16  18
BRANCH  16  21
ATOM     21  C   UNL     1      34.630 -14.795 -21.419  0.00  0.00    +0.040 C 
BRANCH  21  22
ATOM     22  C   UNL     1      33.217 -14.865 -20.835  0.00  0.00    +0.111 C 
BRANCH  22  24
ATOM     23  O   UNL     1      32.089 -12.869 -20.072  0.00  0.00    -0.250 OA
ATOM     24  C   UNL     1      32.424 -13.593 -21.002  0.00  0.00    +0.314 C 
BRANCH  24  25
ATOM     25  O   UNL     1      32.101 -13.339 -22.294  0.00  0.00    -0.480 OA
ATOM     26  H   UNL     1      32.735 -12.953 -22.867  0.00  0.00    +0.295 HD
ENDBRANCH  24  25
ENDBRANCH  22  24
ENDBRANCH  21  22
ENDBRANCH  16  21
ENDBRANCH  14  16
ENDBRANCH  11  14
ENDBRANCH   1  11
BRANCH   9  27
ATOM     27  O   UNL     1      34.380 -23.783 -16.170  0.00  0.00    -0.471 OA
BRANCH  27  28
ATOM     28  C   UNL     1      34.905 -23.504 -14.873  0.00  0.00    +0.234 C 
BRANCH  28  30
ATOM     29  F   UNL     1      37.357 -22.139 -14.504  0.00  0.00    -0.204 F 
ATOM     30  C   UNL     1      36.218 -24.211 -14.713  0.00  0.00    +0.049 C 
ATOM     31  C   UNL     1      37.392 -23.479 -14.536  0.00  0.00    +0.140 C 
ATOM     32  C   UNL     1      36.264 -25.605 -14.743  0.00  0.00    +0.002 C 
ATOM     33  C   UNL     1      38.611 -24.141 -14.388  0.00  0.00    +0.040 C 
ATOM     34  C   UNL     1      37.484 -26.267 -14.596  0.00  0.00    +0.010 C 
ATOM     35  C   UNL     1      38.657 -25.534 -14.419  0.00  0.00    +0.071 C 
BRANCH  35  37
ATOM     36  N   UNL     1      40.920 -26.762 -14.140  0.00  0.00    -0.191 NA
ATOM     37  C   UNL     1      39.906 -26.211 -14.265  0.00  0.00    +0.100 C 
ENDBRANCH  35  37
ENDBRANCH  28  30
ENDBRANCH  27  28
ENDBRANCH   9  27
TORSDOF 13
ENDMDL
