MODEL 1
REMARK VINA RESULT:     -12.1      0.000      0.000
REMARK  Name = 51039095
REMARK  7 active torsions:
REMARK  status: ('A' for Active; 'I' for Inactive)
REMARK    1  A    between atoms: C_5  and  C_16
REMARK    2  A    between atoms: C_6  and  C_27
REMARK    3  A    between atoms: C_11  and  N_17
REMARK    4  A    between atoms: C_27  and  C_28
REMARK    5  A    between atoms: C_28  and  C_29
REMARK    6  A    between atoms: C_32  and  O_35
REMARK    7  A    between atoms: C_33  and  O_37
REMARK                            x       y       z     vdW  Elec       q    Type
REMARK                         _______ _______ _______ _____ _____    ______ ____
ROOT
ATOM      1  O   UNL     1      34.067 -21.404 -19.596  0.00  0.00    -0.270 OA
ATOM      2  N   UNL     1      36.199 -20.441 -19.774  0.00  0.00    -0.265 N 
ATOM      3  N   UNL     1      36.587 -18.391 -22.549  0.00  0.00    -0.239 N 
ATOM      4  N   UNL     1      37.109 -18.942 -21.440  0.00  0.00    -0.166 NA
ATOM      5  C   UNL     1      35.220 -21.241 -19.168  0.00  0.00    +0.251 C 
ATOM      6  C   UNL     1      35.289 -18.743 -22.781  0.00  0.00    +0.046 C 
ATOM      7  C   UNL     1      36.099 -19.670 -20.959  0.00  0.00    +0.153 C 
ATOM      8  C   UNL     1      34.940 -19.585 -21.753  0.00  0.00    +0.048 C 
ATOM      9  H   UNL     1      37.070 -20.410 -19.317  0.00  0.00    +0.157 HD
ATOM     10  H   UNL     1      37.094 -17.787 -23.138  0.00  0.00    +0.174 HD
ENDROOT
BRANCH   5  16
ATOM     11  C   UNL     1      36.424 -23.285 -15.648  0.00  0.00    +0.048 C 
ATOM     12  C   UNL     1      37.334 -22.478 -16.332  0.00  0.00    +0.015 C 
ATOM     13  C   UNL     1      35.118 -23.420 -16.120  0.00  0.00    +0.015 C 
ATOM     14  C   UNL     1      36.938 -21.807 -17.488  0.00  0.00    +0.006 C 
ATOM     15  C   UNL     1      34.723 -22.747 -17.277  0.00  0.00    +0.006 C 
ATOM     16  C   UNL     1      35.632 -21.941 -17.961  0.00  0.00    +0.054 C 
BRANCH  11  17
ATOM     17  N   UNL     1      36.819 -23.959 -14.488  0.00  0.00    -0.312 N 
ATOM     18  N   UNL     1      37.705 -25.129 -12.044  0.00  0.00    +0.389 N 
ATOM     19  C   UNL     1      38.250 -25.596 -13.323  0.00  0.00    -0.042 C 
ATOM     20  C   UNL     1      36.305 -24.720 -12.198  0.00  0.00    -0.042 C 
ATOM     21  C   UNL     1      38.185 -24.485 -14.382  0.00  0.00    +0.069 C 
ATOM     22  C   UNL     1      36.182 -23.580 -13.219  0.00  0.00    +0.069 C 
ATOM     23  C   UNL     1      35.760 -24.284 -10.839  0.00  0.00    -0.022 C 
ATOM     24  C   UNL     1      39.693 -26.054 -13.115  0.00  0.00    -0.022 C 
ATOM     25  H   UNL     1      38.253 -24.332 -11.717  0.00  0.00    -0.084 HD
ATOM     26  H   UNL     1      37.753 -25.891 -11.369  0.00  0.00    -0.084 HD
ENDBRANCH  11  17
ENDBRANCH   5  16
BRANCH   6  27
ATOM     27  C   UNL     1      34.537 -18.245 -23.943  0.00  0.00    +0.047 C 
BRANCH  27  28
ATOM     28  C   UNL     1      35.084 -16.929 -24.554  0.00  0.00    +0.033 C 
BRANCH  28  29
ATOM     29  C   UNL     1      34.599 -15.698 -23.827  0.00  0.00    -0.016 C 
ATOM     30  C   UNL     1      34.329 -14.528 -24.538  0.00  0.00    +0.033 C 
ATOM     31  C   UNL     1      34.419 -15.730 -22.445  0.00  0.00    +0.033 C 
ATOM     32  C   UNL     1      33.970 -14.594 -21.772  0.00  0.00    +0.141 C 
ATOM     33  C   UNL     1      33.881 -13.392 -23.866  0.00  0.00    +0.141 C 
ATOM     34  C   UNL     1      33.702 -13.423 -22.483  0.00  0.00    +0.074 C 
BRANCH  32  35
ATOM     35  O   UNL     1      33.794 -14.624 -20.422  0.00  0.00    -0.471 OA
ATOM     36  C   UNL     1      32.490 -14.955 -19.947  0.00  0.00    +0.252 C 
ENDBRANCH  32  35
BRANCH  33  37
ATOM     37  O   UNL     1      33.617 -12.250 -24.559  0.00  0.00    -0.471 OA
ATOM     38  C   UNL     1      34.212 -11.046 -24.078  0.00  0.00    +0.252 C 
ENDBRANCH  33  37
ENDBRANCH  28  29
ENDBRANCH  27  28
ENDBRANCH   6  27
TORSDOF 7
ENDMDL
MODEL 2
REMARK VINA RESULT:     -12.1      0.254      1.689
REMARK  Name = 51039095
REMARK  7 active torsions:
REMARK  status: ('A' for Active; 'I' for Inactive)
REMARK    1  A    between atoms: C_5  and  C_16
REMARK    2  A    between atoms: C_6  and  C_27
REMARK    3  A    between atoms: C_11  and  N_17
REMARK    4  A    between atoms: C_27  and  C_28
REMARK    5  A    between atoms: C_28  and  C_29
REMARK    6  A    between atoms: C_32  and  O_35
REMARK    7  A    between atoms: C_33  and  O_37
REMARK                            x       y       z     vdW  Elec       q    Type
REMARK                         _______ _______ _______ _____ _____    ______ ____
ROOT
ATOM      1  O   UNL     1      34.201 -21.407 -19.594  0.00  0.00    -0.270 OA
ATOM      2  N   UNL     1      36.307 -20.387 -19.770  0.00  0.00    -0.265 N 
ATOM      3  N   UNL     1      36.655 -18.359 -22.567  0.00  0.00    -0.239 N 
ATOM      4  N   UNL     1      37.185 -18.883 -21.449  0.00  0.00    -0.166 NA
ATOM      5  C   UNL     1      35.347 -21.207 -19.160  0.00  0.00    +0.251 C 
ATOM      6  C   UNL     1      35.369 -18.750 -22.803  0.00  0.00    +0.046 C 
ATOM      7  C   UNL     1      36.192 -19.633 -20.965  0.00  0.00    +0.153 C 
ATOM      8  C   UNL     1      35.036 -19.589 -21.767  0.00  0.00    +0.048 C 
ATOM      9  H   UNL     1      37.174 -20.326 -19.309  0.00  0.00    +0.157 HD
ATOM     10  H   UNL     1      37.148 -17.748 -23.160  0.00  0.00    +0.174 HD
ENDROOT
BRANCH   5  16
ATOM     11  C   UNL     1      36.579 -23.170 -15.605  0.00  0.00    +0.048 C 
ATOM     12  C   UNL     1      35.267 -23.309 -16.060  0.00  0.00    +0.015 C 
ATOM     13  C   UNL     1      37.486 -22.387 -16.318  0.00  0.00    +0.015 C 
ATOM     14  C   UNL     1      34.863 -22.664 -17.228  0.00  0.00    +0.006 C 
ATOM     15  C   UNL     1      37.081 -21.742 -17.487  0.00  0.00    +0.006 C 
ATOM     16  C   UNL     1      35.770 -21.880 -17.943  0.00  0.00    +0.054 C 
BRANCH  11  17
ATOM     17  N   UNL     1      36.986 -23.817 -14.433  0.00  0.00    -0.312 N 
ATOM     18  N   UNL     1      37.742 -25.333 -12.141  0.00  0.00    +0.389 N 
ATOM     19  C   UNL     1      36.750 -24.261 -12.018  0.00  0.00    -0.042 C 
ATOM     20  C   UNL     1      38.740 -25.000 -13.164  0.00  0.00    -0.042 C 
ATOM     21  C   UNL     1      36.019 -24.039 -13.351  0.00  0.00    +0.069 C 
ATOM     22  C   UNL     1      38.070 -24.804 -14.531  0.00  0.00    +0.069 C 
ATOM     23  C   UNL     1      39.780 -26.117 -13.230  0.00  0.00    -0.022 C 
ATOM     24  C   UNL     1      35.755 -24.623 -10.917  0.00  0.00    -0.022 C 
ATOM     25  H   UNL     1      37.269 -26.199 -12.404  0.00  0.00    -0.084 HD
ATOM     26  H   UNL     1      38.215 -25.448 -11.245  0.00  0.00    -0.084 HD
ENDBRANCH  11  17
ENDBRANCH   5  16
BRANCH   6  27
ATOM     27  C   UNL     1      34.610 -18.287 -23.975  0.00  0.00    +0.047 C 
BRANCH  27  28
ATOM     28  C   UNL     1      35.089 -16.936 -24.564  0.00  0.00    +0.033 C 
BRANCH  28  29
ATOM     29  C   UNL     1      34.569 -15.743 -23.799  0.00  0.00    -0.016 C 
ATOM     30  C   UNL     1      34.271 -14.557 -24.472  0.00  0.00    +0.033 C 
ATOM     31  C   UNL     1      34.384 -15.827 -22.420  0.00  0.00    +0.033 C 
ATOM     32  C   UNL     1      33.903 -14.725 -21.711  0.00  0.00    +0.141 C 
ATOM     33  C   UNL     1      33.789 -13.457 -23.765  0.00  0.00    +0.141 C 
ATOM     34  C   UNL     1      33.606 -13.540 -22.384  0.00  0.00    +0.074 C 
BRANCH  32  35
ATOM     35  O   UNL     1      33.722 -14.806 -20.365  0.00  0.00    -0.471 OA
ATOM     36  C   UNL     1      32.377 -14.894 -19.896  0.00  0.00    +0.252 C 
ENDBRANCH  32  35
BRANCH  33  37
ATOM     37  O   UNL     1      33.498 -12.300 -24.421  0.00  0.00    -0.471 OA
ATOM     38  C   UNL     1      34.197 -11.126 -24.008  0.00  0.00    +0.252 C 
ENDBRANCH  33  37
ENDBRANCH  28  29
ENDBRANCH  27  28
ENDBRANCH   6  27
TORSDOF 7
ENDMDL
MODEL 3
REMARK VINA RESULT:     -12.1      0.259      2.640
REMARK  Name = 51039095
REMARK  7 active torsions:
REMARK  status: ('A' for Active; 'I' for Inactive)
REMARK    1  A    between atoms: C_5  and  C_16
REMARK    2  A    between atoms: C_6  and  C_27
REMARK    3  A    between atoms: C_11  and  N_17
REMARK    4  A    between atoms: C_27  and  C_28
REMARK    5  A    between atoms: C_28  and  C_29
REMARK    6  A    between atoms: C_32  and  O_35
REMARK    7  A    between atoms: C_33  and  O_37
REMARK                            x       y       z     vdW  Elec       q    Type
REMARK                         _______ _______ _______ _____ _____    ______ ____
ROOT
ATOM      1  O   UNL     1      34.184 -21.412 -19.558  0.00  0.00    -0.270 OA
ATOM      2  N   UNL     1      36.297 -20.411 -19.754  0.00  0.00    -0.265 N 
ATOM      3  N   UNL     1      36.638 -18.386 -22.554  0.00  0.00    -0.239 N 
ATOM      4  N   UNL     1      37.174 -18.915 -21.441  0.00  0.00    -0.166 NA
ATOM      5  C   UNL     1      35.336 -21.222 -19.136  0.00  0.00    +0.251 C 
ATOM      6  C   UNL     1      35.346 -18.766 -22.778  0.00  0.00    +0.046 C 
ATOM      7  C   UNL     1      36.179 -19.656 -20.948  0.00  0.00    +0.153 C 
ATOM      8  C   UNL     1      35.016 -19.602 -21.739  0.00  0.00    +0.048 C 
ATOM      9  H   UNL     1      37.170 -20.359 -19.301  0.00  0.00    +0.157 HD
ATOM     10  H   UNL     1      37.131 -17.780 -23.152  0.00  0.00    +0.174 HD
ENDROOT
BRANCH   5  16
ATOM     11  C   UNL     1      36.583 -23.197 -15.592  0.00  0.00    +0.048 C 
ATOM     12  C   UNL     1      35.273 -23.345 -16.049  0.00  0.00    +0.015 C 
ATOM     13  C   UNL     1      37.484 -22.401 -16.300  0.00  0.00    +0.015 C 
ATOM     14  C   UNL     1      34.864 -22.696 -17.213  0.00  0.00    +0.006 C 
ATOM     15  C   UNL     1      37.073 -21.752 -17.465  0.00  0.00    +0.006 C 
ATOM     16  C   UNL     1      35.764 -21.900 -17.922  0.00  0.00    +0.054 C 
BRANCH  11  17
ATOM     17  N   UNL     1      36.995 -23.848 -14.424  0.00  0.00    -0.312 N 
ATOM     18  N   UNL     1      37.760 -25.372 -12.140  0.00  0.00    +0.389 N 
ATOM     19  C   UNL     1      36.777 -24.291 -12.008  0.00  0.00    -0.042 C 
ATOM     20  C   UNL     1      38.750 -25.046 -13.171  0.00  0.00    -0.042 C 
ATOM     21  C   UNL     1      36.036 -24.063 -13.334  0.00  0.00    +0.069 C 
ATOM     22  C   UNL     1      38.070 -24.843 -14.532  0.00  0.00    +0.069 C 
ATOM     23  C   UNL     1      39.781 -26.171 -13.246  0.00  0.00    -0.022 C 
ATOM     24  C   UNL     1      35.789 -24.646 -10.897  0.00  0.00    -0.022 C 
ATOM     25  H   UNL     1      37.278 -26.233 -12.399  0.00  0.00    -0.084 HD
ATOM     26  H   UNL     1      38.239 -25.490 -11.248  0.00  0.00    -0.084 HD
ENDBRANCH  11  17
ENDBRANCH   5  16
BRANCH   6  27
ATOM     27  C   UNL     1      34.581 -18.295 -23.943  0.00  0.00    +0.047 C 
BRANCH  27  28
ATOM     28  C   UNL     1      35.067 -16.949 -24.538  0.00  0.00    +0.033 C 
BRANCH  28  29
ATOM     29  C   UNL     1      34.545 -15.750 -23.784  0.00  0.00    -0.016 C 
ATOM     30  C   UNL     1      34.353 -15.822 -22.404  0.00  0.00    +0.033 C 
ATOM     31  C   UNL     1      34.256 -14.569 -24.467  0.00  0.00    +0.033 C 
ATOM     32  C   UNL     1      33.774 -13.460 -23.773  0.00  0.00    +0.141 C 
ATOM     33  C   UNL     1      33.872 -14.713 -21.709  0.00  0.00    +0.141 C 
ATOM     34  C   UNL     1      33.582 -13.532 -22.392  0.00  0.00    +0.074 C 
BRANCH  32  35
ATOM     35  O   UNL     1      33.493 -12.307 -24.439  0.00  0.00    -0.471 OA
ATOM     36  C   UNL     1      34.351 -11.193 -24.198  0.00  0.00    +0.252 C 
ENDBRANCH  32  35
BRANCH  33  37
ATOM     37  O   UNL     1      33.685 -14.782 -20.362  0.00  0.00    -0.471 OA
ATOM     38  C   UNL     1      32.337 -14.841 -19.896  0.00  0.00    +0.252 C 
ENDBRANCH  33  37
ENDBRANCH  28  29
ENDBRANCH  27  28
ENDBRANCH   6  27
TORSDOF 7
ENDMDL
MODEL 4
REMARK VINA RESULT:     -12.1      0.149      2.201
REMARK  Name = 51039095
REMARK  7 active torsions:
REMARK  status: ('A' for Active; 'I' for Inactive)
REMARK    1  A    between atoms: C_5  and  C_16
REMARK    2  A    between atoms: C_6  and  C_27
REMARK    3  A    between atoms: C_11  and  N_17
REMARK    4  A    between atoms: C_27  and  C_28
REMARK    5  A    between atoms: C_28  and  C_29
REMARK    6  A    between atoms: C_32  and  O_35
REMARK    7  A    between atoms: C_33  and  O_37
REMARK                            x       y       z     vdW  Elec       q    Type
REMARK                         _______ _______ _______ _____ _____    ______ ____
ROOT
ATOM      1  O   UNL     1      34.079 -21.318 -19.716  0.00  0.00    -0.270 OA
ATOM      2  N   UNL     1      36.213 -20.355 -19.864  0.00  0.00    -0.265 N 
ATOM      3  N   UNL     1      36.634 -18.287 -22.621  0.00  0.00    -0.239 N 
ATOM      4  N   UNL     1      37.143 -18.846 -21.510  0.00  0.00    -0.166 NA
ATOM      5  C   UNL     1      35.228 -21.158 -19.274  0.00  0.00    +0.251 C 
ATOM      6  C   UNL     1      35.338 -18.637 -22.870  0.00  0.00    +0.046 C 
ATOM      7  C   UNL     1      36.127 -19.577 -21.044  0.00  0.00    +0.153 C 
ATOM      8  C   UNL     1      34.977 -19.485 -21.851  0.00  0.00    +0.048 C 
ATOM      9  H   UNL     1      37.080 -20.328 -19.397  0.00  0.00    +0.157 HD
ATOM     10  H   UNL     1      37.147 -17.680 -23.200  0.00  0.00    +0.174 HD
ENDROOT
BRANCH   5  16
ATOM     11  C   UNL     1      36.384 -23.221 -15.749  0.00  0.00    +0.048 C 
ATOM     12  C   UNL     1      35.073 -23.317 -16.215  0.00  0.00    +0.015 C 
ATOM     13  C   UNL     1      37.316 -22.448 -16.441  0.00  0.00    +0.015 C 
ATOM     14  C   UNL     1      34.693 -22.639 -17.373  0.00  0.00    +0.006 C 
ATOM     15  C   UNL     1      36.936 -21.770 -17.600  0.00  0.00    +0.006 C 
ATOM     16  C   UNL     1      35.625 -21.866 -18.067  0.00  0.00    +0.054 C 
BRANCH  11  17
ATOM     17  N   UNL     1      36.767 -23.900 -14.587  0.00  0.00    -0.312 N 
ATOM     18  N   UNL     1      37.625 -25.081 -12.139  0.00  0.00    +0.389 N 
ATOM     19  C   UNL     1      38.188 -25.538 -13.414  0.00  0.00    -0.042 C 
ATOM     20  C   UNL     1      36.226 -24.675 -12.309  0.00  0.00    -0.042 C 
ATOM     21  C   UNL     1      38.133 -24.421 -14.466  0.00  0.00    +0.069 C 
ATOM     22  C   UNL     1      36.112 -23.530 -13.325  0.00  0.00    +0.069 C 
ATOM     23  C   UNL     1      35.662 -24.250 -10.954  0.00  0.00    -0.022 C 
ATOM     24  C   UNL     1      39.630 -25.992 -13.189  0.00  0.00    -0.022 C 
ATOM     25  H   UNL     1      38.166 -24.284 -11.801  0.00  0.00    -0.084 HD
ATOM     26  H   UNL     1      37.667 -25.847 -11.467  0.00  0.00    -0.084 HD
ENDBRANCH  11  17
ENDBRANCH   5  16
BRANCH   6  27
ATOM     27  C   UNL     1      34.600 -18.131 -24.037  0.00  0.00    +0.047 C 
BRANCH  27  28
ATOM     28  C   UNL     1      35.094 -16.764 -24.574  0.00  0.00    +0.033 C 
BRANCH  28  29
ATOM     29  C   UNL     1      34.559 -15.593 -23.784  0.00  0.00    -0.016 C 
ATOM     30  C   UNL     1      34.368 -15.709 -22.407  0.00  0.00    +0.033 C 
ATOM     31  C   UNL     1      34.258 -14.396 -24.432  0.00  0.00    +0.033 C 
ATOM     32  C   UNL     1      33.764 -13.313 -23.704  0.00  0.00    +0.141 C 
ATOM     33  C   UNL     1      33.875 -14.627 -21.679  0.00  0.00    +0.141 C 
ATOM     34  C   UNL     1      33.573 -13.429 -22.326  0.00  0.00    +0.074 C 
BRANCH  32  35
ATOM     35  O   UNL     1      33.470 -12.143 -24.335  0.00  0.00    -0.471 OA
ATOM     36  C   UNL     1      34.309 -11.025 -24.050  0.00  0.00    +0.252 C 
ENDBRANCH  32  35
BRANCH  33  37
ATOM     37  O   UNL     1      33.689 -14.738 -20.335  0.00  0.00    -0.471 OA
ATOM     38  C   UNL     1      32.351 -14.937 -19.879  0.00  0.00    +0.252 C 
ENDBRANCH  33  37
ENDBRANCH  28  29
ENDBRANCH  27  28
ENDBRANCH   6  27
TORSDOF 7
ENDMDL
MODEL 5
REMARK VINA RESULT:     -12.0      4.260     13.408
REMARK  Name = 51039095
REMARK  7 active torsions:
REMARK  status: ('A' for Active; 'I' for Inactive)
REMARK    1  A    between atoms: C_5  and  C_16
REMARK    2  A    between atoms: C_6  and  C_27
REMARK    3  A    between atoms: C_11  and  N_17
REMARK    4  A    between atoms: C_27  and  C_28
REMARK    5  A    between atoms: C_28  and  C_29
REMARK    6  A    between atoms: C_32  and  O_35
REMARK    7  A    between atoms: C_33  and  O_37
REMARK                            x       y       z     vdW  Elec       q    Type
REMARK                         _______ _______ _______ _____ _____    ______ ____
ROOT
ATOM      1  O   UNL     1      33.248 -14.135 -20.883  0.00  0.00    -0.270 OA
ATOM      2  N   UNL     1      34.202 -14.271 -23.022  0.00  0.00    -0.265 N 
ATOM      3  N   UNL     1      35.559 -17.381 -23.759  0.00  0.00    -0.239 N 
ATOM      4  N   UNL     1      35.296 -16.118 -24.137  0.00  0.00    -0.166 NA
ATOM      5  C   UNL     1      33.538 -13.619 -21.974  0.00  0.00    +0.251 C 
ATOM      6  C   UNL     1      35.125 -17.681 -22.501  0.00  0.00    +0.046 C 
ATOM      7  C   UNL     1      34.672 -15.607 -23.073  0.00  0.00    +0.153 C 
ATOM      8  C   UNL     1      34.538 -16.535 -22.023  0.00  0.00    +0.048 C 
ATOM      9  H   UNL     1      34.364 -13.730 -23.828  0.00  0.00    +0.157 HD
ATOM     10  H   UNL     1      36.022 -18.029 -24.337  0.00  0.00    +0.174 HD
ENDROOT
BRANCH   5  16
ATOM     11  C   UNL     1      32.560  -9.545 -22.654  0.00  0.00    +0.048 C 
ATOM     12  C   UNL     1      33.533 -10.169 -23.436  0.00  0.00    +0.015 C 
ATOM     13  C   UNL     1      31.908 -10.260 -21.649  0.00  0.00    +0.015 C 
ATOM     14  C   UNL     1      33.854 -11.507 -23.212  0.00  0.00    +0.006 C 
ATOM     15  C   UNL     1      32.230 -11.599 -21.427  0.00  0.00    +0.006 C 
ATOM     16  C   UNL     1      33.201 -12.223 -22.208  0.00  0.00    +0.054 C 
BRANCH  11  17
ATOM     17  N   UNL     1      32.237  -8.202 -22.878  0.00  0.00    -0.312 N 
ATOM     18  N   UNL     1      31.777  -5.411 -23.224  0.00  0.00    +0.389 N 
ATOM     19  C   UNL     1      30.821  -6.225 -22.467  0.00  0.00    -0.042 C 
ATOM     20  C   UNL     1      32.381  -6.196 -24.306  0.00  0.00    -0.042 C 
ATOM     21  C   UNL     1      31.516  -7.446 -21.847  0.00  0.00    +0.069 C 
ATOM     22  C   UNL     1      33.126  -7.413 -23.741  0.00  0.00    +0.069 C 
ATOM     23  C   UNL     1      33.334  -5.302 -25.098  0.00  0.00    -0.022 C 
ATOM     24  C   UNL     1      30.181  -5.364 -21.379  0.00  0.00    -0.022 C 
ATOM     25  H   UNL     1      32.511  -5.085 -22.595  0.00  0.00    -0.084 HD
ATOM     26  H   UNL     1      31.282  -4.617 -23.630  0.00  0.00    -0.084 HD
ENDBRANCH  11  17
ENDBRANCH   5  16
BRANCH   6  27
ATOM     27  C   UNL     1      35.316 -19.011 -21.902  0.00  0.00    +0.047 C 
BRANCH  27  28
ATOM     28  C   UNL     1      34.020 -19.679 -21.377  0.00  0.00    +0.033 C 
BRANCH  28  29
ATOM     29  C   UNL     1      34.267 -20.609 -20.213  0.00  0.00    -0.016 C 
ATOM     30  C   UNL     1      33.193 -21.232 -19.578  0.00  0.00    +0.033 C 
ATOM     31  C   UNL     1      35.569 -20.846 -19.775  0.00  0.00    +0.033 C 
ATOM     32  C   UNL     1      35.799 -21.705 -18.700  0.00  0.00    +0.141 C 
ATOM     33  C   UNL     1      33.422 -22.092 -18.504  0.00  0.00    +0.141 C 
ATOM     34  C   UNL     1      34.724 -22.328 -18.064  0.00  0.00    +0.074 C 
BRANCH  32  35
ATOM     35  O   UNL     1      37.070 -21.936 -18.272  0.00  0.00    -0.471 OA
ATOM     36  C   UNL     1      37.294 -21.906 -16.863  0.00  0.00    +0.252 C 
ENDBRANCH  32  35
BRANCH  33  37
ATOM     37  O   UNL     1      32.375 -22.701 -17.884  0.00  0.00    -0.471 OA
ATOM     38  C   UNL     1      32.585 -23.151 -16.546  0.00  0.00    +0.252 C 
ENDBRANCH  33  37
ENDBRANCH  28  29
ENDBRANCH  27  28
ENDBRANCH   6  27
TORSDOF 7
ENDMDL
MODEL 6
REMARK VINA RESULT:     -11.9      4.226     13.323
REMARK  Name = 51039095
REMARK  7 active torsions:
REMARK  status: ('A' for Active; 'I' for Inactive)
REMARK    1  A    between atoms: C_5  and  C_16
REMARK    2  A    between atoms: C_6  and  C_27
REMARK    3  A    between atoms: C_11  and  N_17
REMARK    4  A    between atoms: C_27  and  C_28
REMARK    5  A    between atoms: C_28  and  C_29
REMARK    6  A    between atoms: C_32  and  O_35
REMARK    7  A    between atoms: C_33  and  O_37
REMARK                            x       y       z     vdW  Elec       q    Type
REMARK                         _______ _______ _______ _____ _____    ______ ____
ROOT
ATOM      1  O   UNL     1      33.263 -14.206 -20.815  0.00  0.00    -0.270 OA
ATOM      2  N   UNL     1      34.251 -14.334 -22.940  0.00  0.00    -0.265 N 
ATOM      3  N   UNL     1      35.633 -17.436 -23.661  0.00  0.00    -0.239 N 
ATOM      4  N   UNL     1      35.370 -16.174 -24.041  0.00  0.00    -0.166 NA
ATOM      5  C   UNL     1      33.568 -13.686 -21.901  0.00  0.00    +0.251 C 
ATOM      6  C   UNL     1      35.180 -17.741 -22.410  0.00  0.00    +0.046 C 
ATOM      7  C   UNL     1      34.727 -15.667 -22.986  0.00  0.00    +0.153 C 
ATOM      8  C   UNL     1      34.581 -16.598 -21.940  0.00  0.00    +0.048 C 
ATOM      9  H   UNL     1      34.423 -13.791 -23.743  0.00  0.00    +0.157 HD
ATOM     10  H   UNL     1      36.107 -18.081 -24.233  0.00  0.00    +0.174 HD
ENDROOT
BRANCH   5  16
ATOM     11  C   UNL     1      32.582  -9.616 -22.589  0.00  0.00    +0.048 C 
ATOM     12  C   UNL     1      33.523 -10.253 -23.399  0.00  0.00    +0.015 C 
ATOM     13  C   UNL     1      31.965 -10.316 -21.553  0.00  0.00    +0.015 C 
ATOM     14  C   UNL     1      33.846 -11.590 -23.173  0.00  0.00    +0.006 C 
ATOM     15  C   UNL     1      32.289 -11.655 -21.328  0.00  0.00    +0.006 C 
ATOM     16  C   UNL     1      33.228 -12.292 -22.137  0.00  0.00    +0.054 C 
BRANCH  11  17
ATOM     17  N   UNL     1      32.257  -8.274 -22.815  0.00  0.00    -0.312 N 
ATOM     18  N   UNL     1      31.791  -5.484 -23.167  0.00  0.00    +0.389 N 
ATOM     19  C   UNL     1      30.838  -6.299 -22.407  0.00  0.00    -0.042 C 
ATOM     20  C   UNL     1      32.397  -6.270 -24.248  0.00  0.00    -0.042 C 
ATOM     21  C   UNL     1      31.536  -7.517 -21.785  0.00  0.00    +0.069 C 
ATOM     22  C   UNL     1      33.144  -7.485 -23.681  0.00  0.00    +0.069 C 
ATOM     23  C   UNL     1      33.347  -5.377 -25.043  0.00  0.00    -0.022 C 
ATOM     24  C   UNL     1      30.197  -5.436 -21.321  0.00  0.00    -0.022 C 
ATOM     25  H   UNL     1      32.526  -5.156 -22.540  0.00  0.00    -0.084 HD
ATOM     26  H   UNL     1      31.295  -4.692 -23.575  0.00  0.00    -0.084 HD
ENDBRANCH  11  17
ENDBRANCH   5  16
BRANCH   6  27
ATOM     27  C   UNL     1      35.369 -19.071 -21.811  0.00  0.00    +0.047 C 
BRANCH  27  28
ATOM     28  C   UNL     1      34.066 -19.752 -21.320  0.00  0.00    +0.033 C 
BRANCH  28  29
ATOM     29  C   UNL     1      34.290 -20.673 -20.145  0.00  0.00    -0.016 C 
ATOM     30  C   UNL     1      35.584 -20.916 -19.685  0.00  0.00    +0.033 C 
ATOM     31  C   UNL     1      33.202 -21.280 -19.519  0.00  0.00    +0.033 C 
ATOM     32  C   UNL     1      33.407 -22.131 -18.433  0.00  0.00    +0.141 C 
ATOM     33  C   UNL     1      35.790 -21.766 -18.599  0.00  0.00    +0.141 C 
ATOM     34  C   UNL     1      34.702 -22.375 -17.973  0.00  0.00    +0.074 C 
BRANCH  32  35
ATOM     35  O   UNL     1      32.346 -22.724 -17.821  0.00  0.00    -0.471 OA
ATOM     36  C   UNL     1      32.520 -23.118 -16.460  0.00  0.00    +0.252 C 
ENDBRANCH  32  35
BRANCH  33  37
ATOM     37  O   UNL     1      37.053 -22.003 -18.149  0.00  0.00    -0.471 OA
ATOM     38  C   UNL     1      37.281 -21.856 -16.748  0.00  0.00    +0.252 C 
ENDBRANCH  33  37
ENDBRANCH  28  29
ENDBRANCH  27  28
ENDBRANCH   6  27
TORSDOF 7
ENDMDL
MODEL 7
REMARK VINA RESULT:     -11.1      1.729      3.140
REMARK  Name = 51039095
REMARK  7 active torsions:
REMARK  status: ('A' for Active; 'I' for Inactive)
REMARK    1  A    between atoms: C_5  and  C_16
REMARK    2  A    between atoms: C_6  and  C_27
REMARK    3  A    between atoms: C_11  and  N_17
REMARK    4  A    between atoms: C_27  and  C_28
REMARK    5  A    between atoms: C_28  and  C_29
REMARK    6  A    between atoms: C_32  and  O_35
REMARK    7  A    between atoms: C_33  and  O_37
REMARK                            x       y       z     vdW  Elec       q    Type
REMARK                         _______ _______ _______ _____ _____    ______ ____
ROOT
ATOM      1  O   UNL     1      34.917 -20.511 -22.127  0.00  0.00    -0.270 OA
ATOM      2  N   UNL     1      35.180 -18.568 -20.839  0.00  0.00    -0.265 N 
ATOM      3  N   UNL     1      35.121 -15.634 -22.695  0.00  0.00    -0.239 N 
ATOM      4  N   UNL     1      35.231 -16.242 -21.502  0.00  0.00    -0.166 NA
ATOM      5  C   UNL     1      35.079 -19.953 -21.030  0.00  0.00    +0.251 C 
ATOM      6  C   UNL     1      34.947 -16.497 -23.739  0.00  0.00    +0.046 C 
ATOM      7  C   UNL     1      35.121 -17.537 -21.809  0.00  0.00    +0.153 C 
ATOM      8  C   UNL     1      34.943 -17.755 -23.188  0.00  0.00    +0.048 C 
ATOM      9  H   UNL     1      35.309 -18.272 -19.909  0.00  0.00    +0.157 HD
ATOM     10  H   UNL     1      35.162 -14.657 -22.806  0.00  0.00    +0.174 HD
ENDROOT
BRANCH   5  16
ATOM     11  C   UNL     1      35.453 -22.338 -17.539  0.00  0.00    +0.048 C 
ATOM     12  C   UNL     1      36.570 -21.684 -18.060  0.00  0.00    +0.015 C 
ATOM     13  C   UNL     1      34.213 -22.207 -18.165  0.00  0.00    +0.015 C 
ATOM     14  C   UNL     1      36.447 -20.900 -19.207  0.00  0.00    +0.006 C 
ATOM     15  C   UNL     1      34.091 -21.423 -19.312  0.00  0.00    +0.006 C 
ATOM     16  C   UNL     1      35.207 -20.769 -19.833  0.00  0.00    +0.054 C 
BRANCH  11  17
ATOM     17  N   UNL     1      35.575 -23.124 -16.388  0.00  0.00    -0.312 N 
ATOM     18  N   UNL     1      35.788 -24.532 -13.919  0.00  0.00    +0.389 N 
ATOM     19  C   UNL     1      36.916 -24.515 -14.856  0.00  0.00    -0.042 C 
ATOM     20  C   UNL     1      34.514 -24.510 -14.645  0.00  0.00    -0.042 C 
ATOM     21  C   UNL     1      36.880 -23.252 -15.730  0.00  0.00    +0.069 C 
ATOM     22  C   UNL     1      34.403 -23.247 -15.510  0.00  0.00    +0.069 C 
ATOM     23  C   UNL     1      33.365 -24.576 -13.640  0.00  0.00    -0.022 C 
ATOM     24  C   UNL     1      38.223 -24.582 -14.066  0.00  0.00    -0.022 C 
ATOM     25  H   UNL     1      35.843 -23.712 -13.314  0.00  0.00    -0.084 HD
ATOM     26  H   UNL     1      35.835 -25.386 -13.363  0.00  0.00    -0.084 HD
ENDBRANCH  11  17
ENDBRANCH   5  16
BRANCH   6  27
ATOM     27  C   UNL     1      34.806 -16.029 -25.127  0.00  0.00    +0.047 C 
BRANCH  27  28
ATOM     28  C   UNL     1      33.558 -15.149 -25.391  0.00  0.00    +0.033 C 
BRANCH  28  29
ATOM     29  C   UNL     1      33.579 -13.852 -24.618  0.00  0.00    -0.016 C 
ATOM     30  C   UNL     1      32.868 -13.740 -23.423  0.00  0.00    +0.033 C 
ATOM     31  C   UNL     1      34.310 -12.767 -25.099  0.00  0.00    +0.033 C 
ATOM     32  C   UNL     1      34.330 -11.568 -24.387  0.00  0.00    +0.141 C 
ATOM     33  C   UNL     1      32.889 -12.542 -22.710  0.00  0.00    +0.141 C 
ATOM     34  C   UNL     1      33.619 -11.456 -23.191  0.00  0.00    +0.074 C 
BRANCH  32  35
ATOM     35  O   UNL     1      35.044 -10.508 -24.855  0.00  0.00    -0.471 OA
ATOM     36  C   UNL     1      35.161  -9.375 -23.996  0.00  0.00    +0.252 C 
ENDBRANCH  32  35
BRANCH  33  37
ATOM     37  O   UNL     1      32.196 -12.432 -21.543  0.00  0.00    -0.471 OA
ATOM     38  C   UNL     1      32.442 -13.424 -20.546  0.00  0.00    +0.252 C 
ENDBRANCH  33  37
ENDBRANCH  28  29
ENDBRANCH  27  28
ENDBRANCH   6  27
TORSDOF 7
ENDMDL
MODEL 8
REMARK VINA RESULT:     -11.1      1.740      2.658
REMARK  Name = 51039095
REMARK  7 active torsions:
REMARK  status: ('A' for Active; 'I' for Inactive)
REMARK    1  A    between atoms: C_5  and  C_16
REMARK    2  A    between atoms: C_6  and  C_27
REMARK    3  A    between atoms: C_11  and  N_17
REMARK    4  A    between atoms: C_27  and  C_28
REMARK    5  A    between atoms: C_28  and  C_29
REMARK    6  A    between atoms: C_32  and  O_35
REMARK    7  A    between atoms: C_33  and  O_37
REMARK                            x       y       z     vdW  Elec       q    Type
REMARK                         _______ _______ _______ _____ _____    ______ ____
ROOT
ATOM      1  O   UNL     1      34.906 -20.506 -22.164  0.00  0.00    -0.270 OA
ATOM      2  N   UNL     1      35.154 -18.566 -20.868  0.00  0.00    -0.265 N 
ATOM      3  N   UNL     1      35.099 -15.627 -22.716  0.00  0.00    -0.239 N 
ATOM      4  N   UNL     1      35.202 -16.238 -21.524  0.00  0.00    -0.166 NA
ATOM      5  C   UNL     1      35.059 -19.951 -21.064  0.00  0.00    +0.251 C 
ATOM      6  C   UNL     1      34.935 -16.487 -23.764  0.00  0.00    +0.046 C 
ATOM      7  C   UNL     1      35.098 -17.532 -21.836  0.00  0.00    +0.153 C 
ATOM      8  C   UNL     1      34.931 -17.747 -23.217  0.00  0.00    +0.048 C 
ATOM      9  H   UNL     1      35.275 -18.273 -19.936  0.00  0.00    +0.157 HD
ATOM     10  H   UNL     1      35.137 -14.650 -22.824  0.00  0.00    +0.174 HD
ENDROOT
BRANCH   5  16
ATOM     11  C   UNL     1      35.410 -22.339 -17.573  0.00  0.00    +0.048 C 
ATOM     12  C   UNL     1      34.164 -22.165 -18.177  0.00  0.00    +0.015 C 
ATOM     13  C   UNL     1      36.541 -21.729 -18.117  0.00  0.00    +0.015 C 
ATOM     14  C   UNL     1      34.049 -21.380 -19.324  0.00  0.00    +0.006 C 
ATOM     15  C   UNL     1      36.425 -20.944 -19.265  0.00  0.00    +0.006 C 
ATOM     16  C   UNL     1      35.180 -20.770 -19.869  0.00  0.00    +0.054 C 
BRANCH  11  17
ATOM     17  N   UNL     1      35.527 -23.126 -16.422  0.00  0.00    -0.312 N 
ATOM     18  N   UNL     1      35.726 -24.536 -13.954  0.00  0.00    +0.389 N 
ATOM     19  C   UNL     1      36.867 -24.500 -14.874  0.00  0.00    -0.042 C 
ATOM     20  C   UNL     1      34.462 -24.531 -14.697  0.00  0.00    -0.042 C 
ATOM     21  C   UNL     1      36.824 -23.237 -15.746  0.00  0.00    +0.069 C 
ATOM     22  C   UNL     1      34.345 -23.267 -15.561  0.00  0.00    +0.069 C 
ATOM     23  C   UNL     1      33.300 -24.616 -13.708  0.00  0.00    -0.022 C 
ATOM     24  C   UNL     1      38.163 -24.551 -14.067  0.00  0.00    -0.022 C 
ATOM     25  H   UNL     1      35.760 -23.717 -13.346  0.00  0.00    -0.084 HD
ATOM     26  H   UNL     1      35.778 -25.390 -13.399  0.00  0.00    -0.084 HD
ENDBRANCH  11  17
ENDBRANCH   5  16
BRANCH   6  27
ATOM     27  C   UNL     1      34.802 -16.016 -25.151  0.00  0.00    +0.047 C 
BRANCH  27  28
ATOM     28  C   UNL     1      33.551 -15.143 -25.423  0.00  0.00    +0.033 C 
BRANCH  28  29
ATOM     29  C   UNL     1      33.565 -13.840 -24.661  0.00  0.00    -0.016 C 
ATOM     30  C   UNL     1      34.241 -12.735 -25.179  0.00  0.00    +0.033 C 
ATOM     31  C   UNL     1      32.901 -13.741 -23.439  0.00  0.00    +0.033 C 
ATOM     32  C   UNL     1      32.913 -12.537 -22.733  0.00  0.00    +0.141 C 
ATOM     33  C   UNL     1      34.252 -11.531 -24.475  0.00  0.00    +0.141 C 
ATOM     34  C   UNL     1      33.589 -11.432 -23.252  0.00  0.00    +0.074 C 
BRANCH  32  35
ATOM     35  O   UNL     1      32.265 -12.439 -21.540  0.00  0.00    -0.471 OA
ATOM     36  C   UNL     1      32.498 -13.478 -20.590  0.00  0.00    +0.252 C 
ENDBRANCH  32  35
BRANCH  33  37
ATOM     37  O   UNL     1      34.910 -10.453 -24.981  0.00  0.00    -0.471 OA
ATOM     38  C   UNL     1      35.330  -9.454 -24.052  0.00  0.00    +0.252 C 
ENDBRANCH  33  37
ENDBRANCH  28  29
ENDBRANCH  27  28
ENDBRANCH   6  27
TORSDOF 7
ENDMDL
MODEL 9
REMARK VINA RESULT:     -11.1      3.632     13.020
REMARK  Name = 51039095
REMARK  7 active torsions:
REMARK  status: ('A' for Active; 'I' for Inactive)
REMARK    1  A    between atoms: C_5  and  C_16
REMARK    2  A    between atoms: C_6  and  C_27
REMARK    3  A    between atoms: C_11  and  N_17
REMARK    4  A    between atoms: C_27  and  C_28
REMARK    5  A    between atoms: C_28  and  C_29
REMARK    6  A    between atoms: C_32  and  O_35
REMARK    7  A    between atoms: C_33  and  O_37
REMARK                            x       y       z     vdW  Elec       q    Type
REMARK                         _______ _______ _______ _____ _____    ______ ____
ROOT
ATOM      1  O   UNL     1      32.870 -15.413 -20.679  0.00  0.00    -0.270 OA
ATOM      2  N   UNL     1      34.597 -15.604 -22.256  0.00  0.00    -0.265 N 
ATOM      3  N   UNL     1      36.055 -18.754 -22.365  0.00  0.00    -0.239 N 
ATOM      4  N   UNL     1      35.998 -17.492 -22.826  0.00  0.00    -0.166 NA
ATOM      5  C   UNL     1      33.586 -14.921 -21.566  0.00  0.00    +0.251 C 
ATOM      6  C   UNL     1      35.145 -19.024 -21.385  0.00  0.00    +0.046 C 
ATOM      7  C   UNL     1      35.013 -16.950 -22.105  0.00  0.00    +0.153 C 
ATOM      8  C   UNL     1      34.446 -17.858 -21.190  0.00  0.00    +0.048 C 
ATOM      9  H   UNL     1      35.082 -15.081 -22.933  0.00  0.00    +0.157 HD
ATOM     10  H   UNL     1      36.693 -19.421 -22.705  0.00  0.00    +0.174 HD
ENDROOT
BRANCH   5  16
ATOM     11  C   UNL     1      33.060 -10.842 -22.614  0.00  0.00    +0.048 C 
ATOM     12  C   UNL     1      32.310 -11.398 -21.578  0.00  0.00    +0.015 C 
ATOM     13  C   UNL     1      33.985 -11.625 -23.306  0.00  0.00    +0.015 C 
ATOM     14  C   UNL     1      32.483 -12.738 -21.234  0.00  0.00    +0.006 C 
ATOM     15  C   UNL     1      34.157 -12.966 -22.961  0.00  0.00    +0.006 C 
ATOM     16  C   UNL     1      33.407 -13.523 -21.925  0.00  0.00    +0.054 C 
BRANCH  11  17
ATOM     17  N   UNL     1      32.888  -9.497 -22.961  0.00  0.00    -0.312 N 
ATOM     18  N   UNL     1      32.644  -6.703 -23.466  0.00  0.00    +0.389 N 
ATOM     19  C   UNL     1      31.444  -7.539 -23.363  0.00  0.00    -0.042 C 
ATOM     20  C   UNL     1      33.754  -7.461 -24.052  0.00  0.00    -0.042 C 
ATOM     21  C   UNL     1      31.709  -8.768 -22.480  0.00  0.00    +0.069 C 
ATOM     22  C   UNL     1      34.091  -8.684 -23.188  0.00  0.00    +0.069 C 
ATOM     23  C   UNL     1      34.969  -6.545 -24.185  0.00  0.00    -0.022 C 
ATOM     24  C   UNL     1      30.299  -6.705 -22.790  0.00  0.00    -0.022 C 
ATOM     25  H   UNL     1      32.911  -6.385 -22.534  0.00  0.00    -0.084 HD
ATOM     26  H   UNL     1      32.438  -5.904 -24.066  0.00  0.00    -0.084 HD
ENDBRANCH  11  17
ENDBRANCH   5  16
BRANCH   6  27
ATOM     27  C   UNL     1      35.046 -20.348 -20.750  0.00  0.00    +0.047 C 
BRANCH  27  28
ATOM     28  C   UNL     1      36.311 -20.789 -19.970  0.00  0.00    +0.033 C 
BRANCH  28  29
ATOM     29  C   UNL     1      35.987 -21.537 -18.699  0.00  0.00    -0.016 C 
ATOM     30  C   UNL     1      36.943 -21.644 -17.689  0.00  0.00    +0.033 C 
ATOM     31  C   UNL     1      34.731 -22.118 -18.534  0.00  0.00    +0.033 C 
ATOM     32  C   UNL     1      34.429 -22.809 -17.360  0.00  0.00    +0.141 C 
ATOM     33  C   UNL     1      36.643 -22.333 -16.515  0.00  0.00    +0.141 C 
ATOM     34  C   UNL     1      35.386 -22.917 -16.350  0.00  0.00    +0.074 C 
BRANCH  32  35
ATOM     35  O   UNL     1      33.203 -23.377 -17.198  0.00  0.00    -0.471 OA
ATOM     36  C   UNL     1      32.605 -23.270 -15.907  0.00  0.00    +0.252 C 
ENDBRANCH  32  35
BRANCH  33  37
ATOM     37  O   UNL     1      37.575 -22.438 -15.529  0.00  0.00    -0.471 OA
ATOM     38  C   UNL     1      37.563 -23.632 -14.748  0.00  0.00    +0.252 C 
ENDBRANCH  33  37
ENDBRANCH  28  29
ENDBRANCH  27  28
ENDBRANCH   6  27
TORSDOF 7
ENDMDL
