MODEL 1
REMARK VINA RESULT:     -12.5      0.000      0.000
REMARK  Name = 448408
REMARK  8 active torsions:
REMARK  status: ('A' for Active; 'I' for Inactive)
REMARK    1  A    between atoms: N_2  and  C_25
REMARK    2  A    between atoms: C_3  and  C_6
REMARK    3  A    between atoms: C_5  and  N_12
REMARK    4  A    between atoms: C_25  and  C_26
REMARK    5  A    between atoms: C_27  and  S_32
REMARK    6  A    between atoms: S_32  and  C_33
REMARK    7  A    between atoms: C_34  and  C_39
REMARK    8  A    between atoms: C_39  and  O_40
REMARK                            x       y       z     vdW  Elec       q    Type
REMARK                         _______ _______ _______ _____ _____    ______ ____
ROOT
ATOM      1  O   UNL     1      32.995 -21.998 -19.757  0.00  0.00    -0.270 OA
ATOM      2  N   UNL     1      34.769 -22.754 -18.469  0.00  0.00    -0.297 N 
ATOM      3  C   UNL     1      34.179 -21.882 -19.392  0.00  0.00    +0.246 C 
ATOM      4  H   UNL     1      35.711 -22.604 -18.224  0.00  0.00    +0.150 HD
ENDROOT
BRANCH   3   6
ATOM      5  C   UNL     1      35.242 -18.702 -21.098  0.00  0.00    +0.090 C 
ATOM      6  C   UNL     1      35.021 -20.830 -19.938  0.00  0.00    +0.055 C 
ATOM      7  C   UNL     1      34.441 -19.727 -20.565  0.00  0.00    +0.023 C 
ATOM      8  C   UNL     1      36.638 -18.812 -20.987  0.00  0.00    +0.018 C 
ATOM      9  C   UNL     1      36.410 -20.925 -19.836  0.00  0.00    +0.005 C 
ATOM     10  C   UNL     1      37.217 -19.916 -20.359  0.00  0.00    +0.002 C 
BRANCH   5  12
ATOM     11  O   UNL     1      34.704 -16.326 -25.687  0.00  0.00    -0.207 OA
ATOM     12  N   UNL     1      34.665 -17.602 -21.722  0.00  0.00    -0.137 N 
ATOM     13  N   UNL     1      34.553 -16.366 -21.168  0.00  0.00    -0.215 N 
ATOM     14  N   UNL     1      34.707 -17.532 -23.112  0.00  0.00    -0.143 NA
ATOM     15  N   UNL     1      34.424 -14.176 -22.277  0.00  0.00    -0.309 NA
ATOM     16  N   UNL     1      34.511 -14.242 -24.688  0.00  0.00    -0.251 NA
ATOM     17  N   UNL     1      34.320 -12.218 -23.585  0.00  0.00    -0.283 N 
ATOM     18  C   UNL     1      34.517 -15.449 -22.166  0.00  0.00    +0.243 C 
ATOM     19  C   UNL     1      34.620 -16.267 -23.384  0.00  0.00    +0.241 C 
ATOM     20  C   UNL     1      34.615 -15.613 -24.698  0.00  0.00    +0.239 C 
ATOM     21  C   UNL     1      34.423 -13.590 -23.546  0.00  0.00    +0.208 C 
ATOM     22  H   UNL     1      34.505 -16.170 -20.204  0.00  0.00    +0.175 HD
ATOM     23  H   UNL     1      34.252 -11.705 -22.748  0.00  0.00    +0.156 HD
ATOM     24  H   UNL     1      34.314 -11.750 -24.451  0.00  0.00    +0.156 HD
ENDBRANCH   5  12
ENDBRANCH   3   6
BRANCH   2  25
ATOM     25  C   UNL     1      34.071 -23.862 -17.857  0.00  0.00    +0.117 C 
BRANCH  25  26
ATOM     26  C   UNL     1      33.500 -23.494 -16.518  0.00  0.00    +0.003 C 
ATOM     27  C   UNL     1      34.315 -23.152 -15.442  0.00  0.00    +0.027 C 
ATOM     28  C   UNL     1      32.115 -23.506 -16.377  0.00  0.00    -0.002 C 
ATOM     29  C   UNL     1      33.740 -22.819 -14.217  0.00  0.00    +0.006 C 
ATOM     30  C   UNL     1      31.541 -23.172 -15.151  0.00  0.00    -0.000 C 
ATOM     31  C   UNL     1      32.352 -22.828 -14.071  0.00  0.00    +0.000 C 
BRANCH  27  32
ATOM     32  S   UNL     1      36.097 -23.125 -15.579  0.00  0.00    -0.087 S 
BRANCH  32  33
ATOM     33  C   UNL     1      36.570 -23.912 -14.046  0.00  0.00    +0.028 C 
ATOM     34  C   UNL     1      36.547 -25.300 -13.895  0.00  0.00    +0.013 C 
ATOM     35  C   UNL     1      36.969 -23.103 -12.981  0.00  0.00    +0.006 C 
ATOM     36  C   UNL     1      36.924 -25.876 -12.682  0.00  0.00    -0.001 C 
ATOM     37  C   UNL     1      37.345 -23.680 -11.768  0.00  0.00    +0.000 C 
ATOM     38  C   UNL     1      37.323 -25.066 -11.618  0.00  0.00    -0.000 C 
BRANCH  34  39
ATOM     39  C   UNL     1      36.129 -26.210 -15.004  0.00  0.00    +0.164 C 
BRANCH  39  40
ATOM     40  O   UNL     1      37.281 -26.823 -15.567  0.00  0.00    -0.377 OA
ATOM     41  H   UNL     1      37.112 -27.770 -15.697  0.00  0.00    +0.211 HD
ENDBRANCH  39  40
ENDBRANCH  34  39
ENDBRANCH  32  33
ENDBRANCH  27  32
ENDBRANCH  25  26
ENDBRANCH   2  25
TORSDOF 8
ENDMDL
MODEL 2
REMARK VINA RESULT:     -12.1      1.201      1.542
REMARK  Name = 448408
REMARK  8 active torsions:
REMARK  status: ('A' for Active; 'I' for Inactive)
REMARK    1  A    between atoms: N_2  and  C_25
REMARK    2  A    between atoms: C_3  and  C_6
REMARK    3  A    between atoms: C_5  and  N_12
REMARK    4  A    between atoms: C_25  and  C_26
REMARK    5  A    between atoms: C_27  and  S_32
REMARK    6  A    between atoms: S_32  and  C_33
REMARK    7  A    between atoms: C_34  and  C_39
REMARK    8  A    between atoms: C_39  and  O_40
REMARK                            x       y       z     vdW  Elec       q    Type
REMARK                         _______ _______ _______ _____ _____    ______ ____
ROOT
ATOM      1  O   UNL     1      32.836 -21.417 -20.027  0.00  0.00    -0.270 OA
ATOM      2  N   UNL     1      34.194 -22.540 -18.520  0.00  0.00    -0.297 N 
ATOM      3  C   UNL     1      33.951 -21.567 -19.496  0.00  0.00    +0.246 C 
ATOM      4  H   UNL     1      35.101 -22.604 -18.142  0.00  0.00    +0.150 HD
ENDROOT
BRANCH   3   6
ATOM      5  C   UNL     1      35.944 -18.798 -21.084  0.00  0.00    +0.090 C 
ATOM      6  C   UNL     1      35.077 -20.736 -19.894  0.00  0.00    +0.055 C 
ATOM      7  C   UNL     1      34.866 -19.610 -20.691  0.00  0.00    +0.023 C 
ATOM      8  C   UNL     1      37.237 -19.143 -20.658  0.00  0.00    +0.018 C 
ATOM      9  C   UNL     1      36.368 -21.065 -19.479  0.00  0.00    +0.005 C 
ATOM     10  C   UNL     1      37.447 -20.269 -19.861  0.00  0.00    +0.002 C 
BRANCH   5  12
ATOM     11  O   UNL     1      33.372 -14.290 -21.323  0.00  0.00    -0.207 OA
ATOM     12  N   UNL     1      35.734 -17.675 -21.877  0.00  0.00    -0.137 N 
ATOM     13  N   UNL     1      35.662 -17.688 -23.235  0.00  0.00    -0.215 N 
ATOM     14  N   UNL     1      35.013 -16.611 -21.341  0.00  0.00    -0.143 NA
ATOM     15  N   UNL     1      34.481 -16.142 -24.738  0.00  0.00    -0.309 NA
ATOM     16  N   UNL     1      33.284 -14.357 -23.639  0.00  0.00    -0.251 NA
ATOM     17  N   UNL     1      33.267 -14.523 -25.946  0.00  0.00    -0.283 N 
ATOM     18  C   UNL     1      34.898 -16.641 -23.634  0.00  0.00    +0.243 C 
ATOM     19  C   UNL     1      34.517 -15.995 -22.369  0.00  0.00    +0.241 C 
ATOM     20  C   UNL     1      33.669 -14.797 -22.394  0.00  0.00    +0.239 C 
ATOM     21  C   UNL     1      33.675 -15.001 -24.721  0.00  0.00    +0.208 C 
ATOM     22  H   UNL     1      36.092 -18.346 -23.828  0.00  0.00    +0.175 HD
ATOM     23  H   UNL     1      33.543 -14.983 -26.771  0.00  0.00    +0.156 HD
ATOM     24  H   UNL     1      32.697 -13.722 -25.996  0.00  0.00    +0.156 HD
ENDBRANCH   5  12
ENDBRANCH   3   6
BRANCH   2  25
ATOM     25  C   UNL     1      33.186 -23.457 -18.038  0.00  0.00    +0.117 C 
BRANCH  25  26
ATOM     26  C   UNL     1      32.864 -23.226 -16.590  0.00  0.00    +0.003 C 
ATOM     27  C   UNL     1      33.852 -23.238 -15.609  0.00  0.00    +0.027 C 
ATOM     28  C   UNL     1      31.535 -22.998 -16.248  0.00  0.00    -0.002 C 
ATOM     29  C   UNL     1      33.506 -23.021 -14.276  0.00  0.00    +0.006 C 
ATOM     30  C   UNL     1      31.189 -22.780 -14.915  0.00  0.00    -0.000 C 
ATOM     31  C   UNL     1      32.174 -22.791 -13.929  0.00  0.00    +0.000 C 
BRANCH  27  32
ATOM     32  S   UNL     1      35.572 -23.528 -16.003  0.00  0.00    -0.087 S 
BRANCH  32  33
ATOM     33  C   UNL     1      36.215 -24.000 -14.404  0.00  0.00    +0.028 C 
ATOM     34  C   UNL     1      36.439 -25.336 -14.068  0.00  0.00    +0.013 C 
ATOM     35  C   UNL     1      36.493 -22.993 -13.478  0.00  0.00    +0.006 C 
ATOM     36  C   UNL     1      36.943 -25.664 -12.809  0.00  0.00    -0.001 C 
ATOM     37  C   UNL     1      36.996 -23.322 -12.219  0.00  0.00    +0.000 C 
ATOM     38  C   UNL     1      37.221 -24.657 -11.885  0.00  0.00    -0.000 C 
BRANCH  34  39
ATOM     39  C   UNL     1      36.157 -26.451 -15.023  0.00  0.00    +0.164 C 
BRANCH  39  40
ATOM     40  O   UNL     1      37.377 -26.881 -15.613  0.00  0.00    -0.377 OA
ATOM     41  H   UNL     1      37.208 -27.652 -16.177  0.00  0.00    +0.211 HD
ENDBRANCH  39  40
ENDBRANCH  34  39
ENDBRANCH  32  33
ENDBRANCH  27  32
ENDBRANCH  25  26
ENDBRANCH   2  25
TORSDOF 8
ENDMDL
MODEL 3
REMARK VINA RESULT:     -12.0      2.237      3.044
REMARK  Name = 448408
REMARK  8 active torsions:
REMARK  status: ('A' for Active; 'I' for Inactive)
REMARK    1  A    between atoms: N_2  and  C_25
REMARK    2  A    between atoms: C_3  and  C_6
REMARK    3  A    between atoms: C_5  and  N_12
REMARK    4  A    between atoms: C_25  and  C_26
REMARK    5  A    between atoms: C_27  and  S_32
REMARK    6  A    between atoms: S_32  and  C_33
REMARK    7  A    between atoms: C_34  and  C_39
REMARK    8  A    between atoms: C_39  and  O_40
REMARK                            x       y       z     vdW  Elec       q    Type
REMARK                         _______ _______ _______ _____ _____    ______ ____
ROOT
ATOM      1  O   UNL     1      37.694 -19.568 -19.451  0.00  0.00    -0.270 OA
ATOM      2  N   UNL     1      35.967 -21.115 -19.391  0.00  0.00    -0.297 N 
ATOM      3  C   UNL     1      36.622 -19.994 -19.917  0.00  0.00    +0.246 C 
ATOM      4  H   UNL     1      35.121 -21.397 -19.808  0.00  0.00    +0.150 HD
ENDROOT
BRANCH   3   6
ATOM      5  C   UNL     1      35.183 -17.266 -22.071  0.00  0.00    +0.090 C 
ATOM      6  C   UNL     1      35.980 -19.318 -21.032  0.00  0.00    +0.055 C 
ATOM      7  C   UNL     1      35.802 -17.934 -21.001  0.00  0.00    +0.023 C 
ATOM      8  C   UNL     1      34.746 -18.021 -23.173  0.00  0.00    +0.018 C 
ATOM      9  C   UNL     1      35.540 -20.053 -22.134  0.00  0.00    +0.005 C 
ATOM     10  C   UNL     1      34.924 -19.405 -23.204  0.00  0.00    +0.002 C 
BRANCH   5  12
ATOM     11  O   UNL     1      32.161 -13.497 -20.161  0.00  0.00    -0.207 OA
ATOM     12  N   UNL     1      35.007 -15.887 -22.041  0.00  0.00    -0.137 N 
ATOM     13  N   UNL     1      35.235 -15.053 -23.089  0.00  0.00    -0.215 N 
ATOM     14  N   UNL     1      34.054 -15.361 -21.172  0.00  0.00    -0.143 NA
ATOM     15  N   UNL     1      34.220 -12.869 -23.580  0.00  0.00    -0.309 NA
ATOM     16  N   UNL     1      32.590 -12.111 -21.969  0.00  0.00    -0.251 NA
ATOM     17  N   UNL     1      33.098 -10.809 -23.813  0.00  0.00    -0.283 N 
ATOM     18  C   UNL     1      34.448 -13.958 -22.946  0.00  0.00    +0.243 C 
ATOM     19  C   UNL     1      33.718 -14.224 -21.696  0.00  0.00    +0.241 C 
ATOM     20  C   UNL     1      32.748 -13.241 -21.202  0.00  0.00    +0.239 C 
ATOM     21  C   UNL     1      33.288 -11.957 -23.077  0.00  0.00    +0.208 C 
ATOM     22  H   UNL     1      35.866 -15.216 -23.827  0.00  0.00    +0.175 HD
ATOM     23  H   UNL     1      33.605 -10.667 -24.644  0.00  0.00    +0.156 HD
ATOM     24  H   UNL     1      32.453 -10.130 -23.507  0.00  0.00    +0.156 HD
ENDBRANCH   5  12
ENDBRANCH   3   6
BRANCH   2  25
ATOM     25  C   UNL     1      36.466 -21.878 -18.269  0.00  0.00    +0.117 C 
BRANCH  25  26
ATOM     26  C   UNL     1      35.352 -22.405 -17.411  0.00  0.00    +0.003 C 
ATOM     27  C   UNL     1      35.564 -22.790 -16.090  0.00  0.00    +0.027 C 
ATOM     28  C   UNL     1      34.085 -22.502 -17.978  0.00  0.00    -0.002 C 
ATOM     29  C   UNL     1      34.500 -23.275 -15.331  0.00  0.00    +0.006 C 
ATOM     30  C   UNL     1      33.021 -22.987 -17.219  0.00  0.00    -0.000 C 
ATOM     31  C   UNL     1      33.228 -23.373 -15.895  0.00  0.00    +0.000 C 
BRANCH  27  32
ATOM     32  S   UNL     1      37.175 -22.684 -15.322  0.00  0.00    -0.087 S 
BRANCH  32  33
ATOM     33  C   UNL     1      37.191 -24.182 -14.349  0.00  0.00    +0.028 C 
ATOM     34  C   UNL     1      37.252 -24.152 -12.954  0.00  0.00    +0.013 C 
ATOM     35  C   UNL     1      37.141 -25.407 -15.017  0.00  0.00    +0.006 C 
ATOM     36  C   UNL     1      37.262 -25.344 -12.230  0.00  0.00    -0.001 C 
ATOM     37  C   UNL     1      37.152 -26.599 -14.292  0.00  0.00    +0.000 C 
ATOM     38  C   UNL     1      37.212 -26.567 -12.899  0.00  0.00    -0.000 C 
BRANCH  34  39
ATOM     39  C   UNL     1      37.306 -22.867 -12.192  0.00  0.00    +0.164 C 
BRANCH  39  40
ATOM     40  O   UNL     1      38.368 -22.927 -11.249  0.00  0.00    -0.377 OA
ATOM     41  H   UNL     1      39.121 -23.398 -11.640  0.00  0.00    +0.211 HD
ENDBRANCH  39  40
ENDBRANCH  34  39
ENDBRANCH  32  33
ENDBRANCH  27  32
ENDBRANCH  25  26
ENDBRANCH   2  25
TORSDOF 8
ENDMDL
MODEL 4
REMARK VINA RESULT:     -11.8      3.527     11.209
REMARK  Name = 448408
REMARK  8 active torsions:
REMARK  status: ('A' for Active; 'I' for Inactive)
REMARK    1  A    between atoms: N_2  and  C_25
REMARK    2  A    between atoms: C_3  and  C_6
REMARK    3  A    between atoms: C_5  and  N_12
REMARK    4  A    between atoms: C_25  and  C_26
REMARK    5  A    between atoms: C_27  and  S_32
REMARK    6  A    between atoms: S_32  and  C_33
REMARK    7  A    between atoms: C_34  and  C_39
REMARK    8  A    between atoms: C_39  and  O_40
REMARK                            x       y       z     vdW  Elec       q    Type
REMARK                         _______ _______ _______ _____ _____    ______ ____
ROOT
ATOM      1  O   UNL     1      33.810 -23.288 -19.830  0.00  0.00    -0.270 OA
ATOM      2  N   UNL     1      33.647 -21.054 -19.231  0.00  0.00    -0.297 N 
ATOM      3  C   UNL     1      33.614 -22.426 -18.955  0.00  0.00    +0.246 C 
ATOM      4  H   UNL     1      33.483 -20.426 -18.491  0.00  0.00    +0.150 HD
ENDROOT
BRANCH   3   6
ATOM      5  C   UNL     1      34.020 -23.802 -15.477  0.00  0.00    +0.090 C 
ATOM      6  C   UNL     1      33.313 -22.817 -17.587  0.00  0.00    +0.055 C 
ATOM      7  C   UNL     1      34.296 -23.418 -16.801  0.00  0.00    +0.023 C 
ATOM      8  C   UNL     1      32.733 -23.569 -14.963  0.00  0.00    +0.018 C 
ATOM      9  C   UNL     1      32.040 -22.592 -17.062  0.00  0.00    +0.005 C 
ATOM     10  C   UNL     1      31.750 -22.967 -15.751  0.00  0.00    +0.002 C 
BRANCH   5  12
ATOM     11  O   UNL     1      37.751 -22.808 -12.000  0.00  0.00    -0.207 OA
ATOM     12  N   UNL     1      35.000 -24.400 -14.692  0.00  0.00    -0.137 N 
ATOM     13  N   UNL     1      35.760 -25.459 -15.075  0.00  0.00    -0.215 N 
ATOM     14  N   UNL     1      35.658 -23.618 -13.746  0.00  0.00    -0.143 NA
ATOM     15  N   UNL     1      38.014 -26.098 -14.330  0.00  0.00    -0.309 NA
ATOM     16  N   UNL     1      39.005 -24.632 -12.689  0.00  0.00    -0.251 NA
ATOM     17  N   UNL     1      40.165 -26.483 -13.448  0.00  0.00    -0.283 N 
ATOM     18  C   UNL     1      36.935 -25.411 -14.400  0.00  0.00    +0.243 C 
ATOM     19  C   UNL     1      36.800 -24.206 -13.567  0.00  0.00    +0.241 C 
ATOM     20  C   UNL     1      37.899 -23.816 -12.676  0.00  0.00    +0.239 C 
ATOM     21  C   UNL     1      39.038 -25.694 -13.469  0.00  0.00    +0.208 C 
ATOM     22  H   UNL     1      35.502 -26.146 -15.733  0.00  0.00    +0.175 HD
ATOM     23  H   UNL     1      40.218 -27.283 -14.020  0.00  0.00    +0.156 HD
ATOM     24  H   UNL     1      40.920 -26.248 -12.861  0.00  0.00    +0.156 HD
ENDBRANCH   5  12
ENDBRANCH   3   6
BRANCH   2  25
ATOM     25  C   UNL     1      33.909 -20.509 -20.544  0.00  0.00    +0.117 C 
BRANCH  25  26
ATOM     26  C   UNL     1      35.310 -19.985 -20.665  0.00  0.00    +0.003 C 
ATOM     27  C   UNL     1      35.685 -19.125 -21.694  0.00  0.00    +0.027 C 
ATOM     28  C   UNL     1      36.238 -20.387 -19.710  0.00  0.00    -0.002 C 
ATOM     29  C   UNL     1      36.999 -18.664 -21.767  0.00  0.00    +0.006 C 
ATOM     30  C   UNL     1      37.552 -19.926 -19.783  0.00  0.00    -0.000 C 
ATOM     31  C   UNL     1      37.933 -19.064 -20.811  0.00  0.00    +0.000 C 
BRANCH  27  32
ATOM     32  S   UNL     1      34.525 -18.583 -22.942  0.00  0.00    -0.087 S 
BRANCH  32  33
ATOM     33  C   UNL     1      34.539 -16.816 -22.680  0.00  0.00    +0.028 C 
ATOM     34  C   UNL     1      34.668 -15.917 -23.740  0.00  0.00    +0.013 C 
ATOM     35  C   UNL     1      34.418 -16.338 -21.374  0.00  0.00    +0.006 C 
ATOM     36  C   UNL     1      34.674 -14.544 -23.494  0.00  0.00    -0.001 C 
ATOM     37  C   UNL     1      34.425 -14.965 -21.128  0.00  0.00    +0.000 C 
ATOM     38  C   UNL     1      34.553 -14.068 -22.188  0.00  0.00    -0.000 C 
BRANCH  34  39
ATOM     39  C   UNL     1      34.800 -16.377 -25.156  0.00  0.00    +0.164 C 
BRANCH  39  40
ATOM     40  O   UNL     1      34.015 -15.540 -25.995  0.00  0.00    -0.377 OA
ATOM     41  H   UNL     1      33.682 -14.788 -25.481  0.00  0.00    +0.211 HD
ENDBRANCH  39  40
ENDBRANCH  34  39
ENDBRANCH  32  33
ENDBRANCH  27  32
ENDBRANCH  25  26
ENDBRANCH   2  25
TORSDOF 8
ENDMDL
MODEL 5
REMARK VINA RESULT:     -11.8      1.704      3.898
REMARK  Name = 448408
REMARK  8 active torsions:
REMARK  status: ('A' for Active; 'I' for Inactive)
REMARK    1  A    between atoms: N_2  and  C_25
REMARK    2  A    between atoms: C_3  and  C_6
REMARK    3  A    between atoms: C_5  and  N_12
REMARK    4  A    between atoms: C_25  and  C_26
REMARK    5  A    between atoms: C_27  and  S_32
REMARK    6  A    between atoms: S_32  and  C_33
REMARK    7  A    between atoms: C_34  and  C_39
REMARK    8  A    between atoms: C_39  and  O_40
REMARK                            x       y       z     vdW  Elec       q    Type
REMARK                         _______ _______ _______ _____ _____    ______ ____
ROOT
ATOM      1  O   UNL     1      33.091 -22.600 -19.490  0.00  0.00    -0.270 OA
ATOM      2  N   UNL     1      34.529 -22.720 -17.676  0.00  0.00    -0.297 N 
ATOM      3  C   UNL     1      34.128 -22.218 -18.919  0.00  0.00    +0.246 C 
ATOM      4  H   UNL     1      35.362 -22.374 -17.281  0.00  0.00    +0.150 HD
ENDROOT
BRANCH   3   6
ATOM      5  C   UNL     1      35.271 -19.179 -20.820  0.00  0.00    +0.090 C 
ATOM      6  C   UNL     1      34.997 -21.234 -19.545  0.00  0.00    +0.055 C 
ATOM      7  C   UNL     1      34.445 -20.139 -20.210  0.00  0.00    +0.023 C 
ATOM      8  C   UNL     1      36.664 -19.347 -20.747  0.00  0.00    +0.018 C 
ATOM      9  C   UNL     1      36.383 -21.386 -19.481  0.00  0.00    +0.005 C 
ATOM     10  C   UNL     1      37.216 -20.442 -20.081  0.00  0.00    +0.002 C 
BRANCH   5  12
ATOM     11  O   UNL     1      34.917 -16.870 -25.461  0.00  0.00    -0.207 OA
ATOM     12  N   UNL     1      34.721 -18.087 -21.482  0.00  0.00    -0.137 N 
ATOM     13  N   UNL     1      34.592 -16.843 -20.951  0.00  0.00    -0.215 N 
ATOM     14  N   UNL     1      34.817 -18.038 -22.871  0.00  0.00    -0.143 NA
ATOM     15  N   UNL     1      34.513 -14.670 -22.097  0.00  0.00    -0.309 NA
ATOM     16  N   UNL     1      34.692 -14.772 -24.501  0.00  0.00    -0.251 NA
ATOM     17  N   UNL     1      34.465 -12.731 -23.436  0.00  0.00    -0.283 N 
ATOM     18  C   UNL     1      34.597 -15.941 -21.963  0.00  0.00    +0.243 C 
ATOM     19  C   UNL     1      34.745 -16.777 -23.164  0.00  0.00    +0.241 C 
ATOM     20  C   UNL     1      34.792 -16.143 -24.487  0.00  0.00    +0.239 C 
ATOM     21  C   UNL     1      34.562 -14.102 -23.373  0.00  0.00    +0.208 C 
ATOM     22  H   UNL     1      34.508 -16.632 -19.992  0.00  0.00    +0.175 HD
ATOM     23  H   UNL     1      34.366 -12.205 -22.610  0.00  0.00    +0.156 HD
ATOM     24  H   UNL     1      34.493 -12.276 -24.309  0.00  0.00    +0.156 HD
ENDBRANCH   5  12
ENDBRANCH   3   6
BRANCH   2  25
ATOM     25  C   UNL     1      33.787 -23.719 -16.940  0.00  0.00    +0.117 C 
BRANCH  25  26
ATOM     26  C   UNL     1      34.402 -24.001 -15.600  0.00  0.00    +0.003 C 
ATOM     27  C   UNL     1      33.879 -23.468 -14.426  0.00  0.00    +0.027 C 
ATOM     28  C   UNL     1      35.527 -24.820 -15.561  0.00  0.00    -0.002 C 
ATOM     29  C   UNL     1      34.485 -23.756 -13.203  0.00  0.00    +0.006 C 
ATOM     30  C   UNL     1      36.133 -25.109 -14.339  0.00  0.00    -0.000 C 
ATOM     31  C   UNL     1      35.612 -24.577 -13.160  0.00  0.00    +0.000 C 
BRANCH  27  32
ATOM     32  S   UNL     1      32.437 -22.411 -14.429  0.00  0.00    -0.087 S 
BRANCH  32  33
ATOM     33  C   UNL     1      31.124 -23.622 -14.431  0.00  0.00    +0.028 C 
ATOM     34  C   UNL     1      30.125 -23.621 -15.407  0.00  0.00    +0.013 C 
ATOM     35  C   UNL     1      31.110 -24.588 -13.424  0.00  0.00    +0.006 C 
ATOM     36  C   UNL     1      29.116 -24.584 -15.375  0.00  0.00    -0.001 C 
ATOM     37  C   UNL     1      30.101 -25.550 -13.392  0.00  0.00    +0.000 C 
ATOM     38  C   UNL     1      29.104 -25.548 -14.367  0.00  0.00    -0.000 C 
BRANCH  34  39
ATOM     39  C   UNL     1      30.094 -22.609 -16.507  0.00  0.00    +0.164 C 
BRANCH  39  40
ATOM     40  O   UNL     1      28.768 -22.121 -16.657  0.00  0.00    -0.377 OA
ATOM     41  H   UNL     1      28.311 -22.158 -15.802  0.00  0.00    +0.211 HD
ENDBRANCH  39  40
ENDBRANCH  34  39
ENDBRANCH  32  33
ENDBRANCH  27  32
ENDBRANCH  25  26
ENDBRANCH   2  25
TORSDOF 8
ENDMDL
MODEL 6
REMARK VINA RESULT:     -11.7      5.067     13.087
REMARK  Name = 448408
REMARK  8 active torsions:
REMARK  status: ('A' for Active; 'I' for Inactive)
REMARK    1  A    between atoms: N_2  and  C_25
REMARK    2  A    between atoms: C_3  and  C_6
REMARK    3  A    between atoms: C_5  and  N_12
REMARK    4  A    between atoms: C_25  and  C_26
REMARK    5  A    between atoms: C_27  and  S_32
REMARK    6  A    between atoms: S_32  and  C_33
REMARK    7  A    between atoms: C_34  and  C_39
REMARK    8  A    between atoms: C_39  and  O_40
REMARK                            x       y       z     vdW  Elec       q    Type
REMARK                         _______ _______ _______ _____ _____    ______ ____
ROOT
ATOM      1  O   UNL     1      34.571 -14.589 -20.770  0.00  0.00    -0.270 OA
ATOM      2  N   UNL     1      33.194 -14.170 -22.588  0.00  0.00    -0.297 N 
ATOM      3  C   UNL     1      34.106 -14.949 -21.866  0.00  0.00    +0.246 C 
ATOM      4  H   UNL     1      32.867 -14.515 -23.450  0.00  0.00    +0.150 HD
ENDROOT
BRANCH   3   6
ATOM      5  C   UNL     1      35.215 -18.527 -22.219  0.00  0.00    +0.090 C 
ATOM      6  C   UNL     1      34.518 -16.209 -22.466  0.00  0.00    +0.055 C 
ATOM      7  C   UNL     1      34.815 -17.303 -21.654  0.00  0.00    +0.023 C 
ATOM      8  C   UNL     1      35.309 -18.624 -23.617  0.00  0.00    +0.018 C 
ATOM      9  C   UNL     1      34.616 -16.321 -23.853  0.00  0.00    +0.005 C 
ATOM     10  C   UNL     1      35.011 -17.528 -24.428  0.00  0.00    +0.002 C 
BRANCH   5  12
ATOM     11  O   UNL     1      33.067 -22.255 -19.306  0.00  0.00    -0.207 OA
ATOM     12  N   UNL     1      35.511 -19.619 -21.410  0.00  0.00    -0.137 N 
ATOM     13  N   UNL     1      36.574 -19.692 -20.565  0.00  0.00    -0.215 N 
ATOM     14  N   UNL     1      34.462 -20.425 -20.976  0.00  0.00    -0.143 NA
ATOM     15  N   UNL     1      36.824 -21.004 -18.502  0.00  0.00    -0.309 NA
ATOM     16  N   UNL     1      34.909 -22.344 -17.900  0.00  0.00    -0.251 NA
ATOM     17  N   UNL     1      36.801 -22.356 -16.571  0.00  0.00    -0.283 N 
ATOM     18  C   UNL     1      36.262 -20.543 -19.556  0.00  0.00    +0.243 C 
ATOM     19  C   UNL     1      34.894 -20.974 -19.884  0.00  0.00    +0.241 C 
ATOM     20  C   UNL     1      34.203 -21.921 -19.001  0.00  0.00    +0.239 C 
ATOM     21  C   UNL     1      36.132 -21.904 -17.685  0.00  0.00    +0.208 C 
ATOM     22  H   UNL     1      37.426 -19.210 -20.669  0.00  0.00    +0.175 HD
ATOM     23  H   UNL     1      37.717 -22.045 -16.385  0.00  0.00    +0.156 HD
ATOM     24  H   UNL     1      36.364 -22.992 -15.959  0.00  0.00    +0.156 HD
ENDBRANCH   5  12
ENDBRANCH   3   6
BRANCH   2  25
ATOM     25  C   UNL     1      32.709 -12.885 -22.138  0.00  0.00    +0.117 C 
BRANCH  25  26
ATOM     26  C   UNL     1      33.333 -11.751 -22.898  0.00  0.00    +0.003 C 
ATOM     27  C   UNL     1      32.939 -10.431 -22.701  0.00  0.00    +0.027 C 
ATOM     28  C   UNL     1      34.329 -12.059 -23.820  0.00  0.00    -0.002 C 
ATOM     29  C   UNL     1      33.546  -9.410 -23.431  0.00  0.00    +0.006 C 
ATOM     30  C   UNL     1      34.937 -11.038 -24.551  0.00  0.00    -0.000 C 
ATOM     31  C   UNL     1      34.546  -9.714 -24.356  0.00  0.00    +0.000 C 
BRANCH  27  32
ATOM     32  S   UNL     1      31.664  -9.991 -21.527  0.00  0.00    -0.087 S 
BRANCH  32  33
ATOM     33  C   UNL     1      31.545  -8.228 -21.795  0.00  0.00    +0.028 C 
ATOM     34  C   UNL     1      32.054  -7.309 -20.875  0.00  0.00    +0.013 C 
ATOM     35  C   UNL     1      30.923  -7.775 -22.959  0.00  0.00    +0.006 C 
ATOM     36  C   UNL     1      31.942  -5.941 -21.120  0.00  0.00    -0.001 C 
ATOM     37  C   UNL     1      30.811  -6.406 -23.204  0.00  0.00    +0.000 C 
ATOM     38  C   UNL     1      31.320  -5.489 -22.284  0.00  0.00    -0.000 C 
BRANCH  34  39
ATOM     39  C   UNL     1      32.729  -7.744 -19.614  0.00  0.00    +0.164 C 
BRANCH  39  40
ATOM     40  O   UNL     1      33.499  -6.665 -19.100  0.00  0.00    -0.377 OA
ATOM     41  H   UNL     1      34.381  -6.678 -19.502  0.00  0.00    +0.211 HD
ENDBRANCH  39  40
ENDBRANCH  34  39
ENDBRANCH  32  33
ENDBRANCH  27  32
ENDBRANCH  25  26
ENDBRANCH   2  25
TORSDOF 8
ENDMDL
MODEL 7
REMARK VINA RESULT:     -11.4      1.930      2.738
REMARK  Name = 448408
REMARK  8 active torsions:
REMARK  status: ('A' for Active; 'I' for Inactive)
REMARK    1  A    between atoms: N_2  and  C_25
REMARK    2  A    between atoms: C_3  and  C_6
REMARK    3  A    between atoms: C_5  and  N_12
REMARK    4  A    between atoms: C_25  and  C_26
REMARK    5  A    between atoms: C_27  and  S_32
REMARK    6  A    between atoms: S_32  and  C_33
REMARK    7  A    between atoms: C_34  and  C_39
REMARK    8  A    between atoms: C_39  and  O_40
REMARK                            x       y       z     vdW  Elec       q    Type
REMARK                         _______ _______ _______ _____ _____    ______ ____
ROOT
ATOM      1  O   UNL     1      37.369 -18.707 -20.046  0.00  0.00    -0.270 OA
ATOM      2  N   UNL     1      36.108 -20.652 -20.027  0.00  0.00    -0.297 N 
ATOM      3  C   UNL     1      36.511 -19.432 -20.580  0.00  0.00    +0.246 C 
ATOM      4  H   UNL     1      35.423 -21.175 -20.503  0.00  0.00    +0.150 HD
ENDROOT
BRANCH   3   6
ATOM      5  C   UNL     1      34.727 -17.311 -23.126  0.00  0.00    +0.090 C 
ATOM      6  C   UNL     1      35.861 -19.019 -21.815  0.00  0.00    +0.055 C 
ATOM      7  C   UNL     1      35.358 -17.724 -21.939  0.00  0.00    +0.023 C 
ATOM      8  C   UNL     1      34.614 -18.230 -24.182  0.00  0.00    +0.018 C 
ATOM      9  C   UNL     1      35.740 -19.920 -22.874  0.00  0.00    +0.005 C 
ATOM     10  C   UNL     1      35.117 -19.526 -24.057  0.00  0.00    +0.002 C 
BRANCH   5  12
ATOM     11  O   UNL     1      33.210 -13.752 -26.593  0.00  0.00    -0.207 OA
ATOM     12  N   UNL     1      34.227 -16.020 -23.251  0.00  0.00    -0.137 N 
ATOM     13  N   UNL     1      34.577 -14.972 -22.459  0.00  0.00    -0.215 N 
ATOM     14  N   UNL     1      33.814 -15.589 -24.509  0.00  0.00    -0.143 NA
ATOM     15  N   UNL     1      34.562 -12.569 -22.974  0.00  0.00    -0.309 NA
ATOM     16  N   UNL     1      33.819 -12.002 -25.200  0.00  0.00    -0.251 NA
ATOM     17  N   UNL     1      34.452 -10.337 -23.724  0.00  0.00    -0.283 N 
ATOM     18  C   UNL     1      34.409 -13.826 -23.164  0.00  0.00    +0.243 C 
ATOM     19  C   UNL     1      33.918 -14.298 -24.469  0.00  0.00    +0.241 C 
ATOM     20  C   UNL     1      33.614 -13.323 -25.522  0.00  0.00    +0.239 C 
ATOM     21  C   UNL     1      34.263 -11.671 -24.003  0.00  0.00    +0.208 C 
ATOM     22  H   UNL     1      34.900 -15.035 -21.531  0.00  0.00    +0.175 HD
ATOM     23  H   UNL     1      34.782 -10.061 -22.838  0.00  0.00    +0.156 HD
ATOM     24  H   UNL     1      34.257  -9.659 -24.410  0.00  0.00    +0.156 HD
ENDBRANCH   5  12
ENDBRANCH   3   6
BRANCH   2  25
ATOM     25  C   UNL     1      36.641 -21.186 -18.794  0.00  0.00    +0.117 C 
BRANCH  25  26
ATOM     26  C   UNL     1      35.613 -21.968 -18.030  0.00  0.00    +0.003 C 
ATOM     27  C   UNL     1      35.874 -22.480 -16.762  0.00  0.00    +0.027 C 
ATOM     28  C   UNL     1      34.374 -22.173 -18.631  0.00  0.00    -0.002 C 
ATOM     29  C   UNL     1      34.888 -23.202 -16.090  0.00  0.00    +0.006 C 
ATOM     30  C   UNL     1      33.388 -22.895 -17.959  0.00  0.00    -0.000 C 
ATOM     31  C   UNL     1      33.645 -23.409 -16.688  0.00  0.00    +0.000 C 
BRANCH  27  32
ATOM     32  S   UNL     1      37.450 -22.242 -15.953  0.00  0.00    -0.087 S 
BRANCH  32  33
ATOM     33  C   UNL     1      37.265 -23.298 -14.524  0.00  0.00    +0.028 C 
ATOM     34  C   UNL     1      38.138 -24.360 -14.278  0.00  0.00    +0.013 C 
ATOM     35  C   UNL     1      36.215 -23.042 -13.641  0.00  0.00    +0.006 C 
ATOM     36  C   UNL     1      37.961 -25.162 -13.151  0.00  0.00    -0.001 C 
ATOM     37  C   UNL     1      36.038 -23.845 -12.514  0.00  0.00    +0.000 C 
ATOM     38  C   UNL     1      36.911 -24.905 -12.269  0.00  0.00    -0.000 C 
BRANCH  34  39
ATOM     39  C   UNL     1      39.278 -24.676 -15.192  0.00  0.00    +0.164 C 
BRANCH  39  40
ATOM     40  O   UNL     1      39.562 -26.067 -15.122  0.00  0.00    -0.377 OA
ATOM     41  H   UNL     1      40.429 -26.199 -14.709  0.00  0.00    +0.211 HD
ENDBRANCH  39  40
ENDBRANCH  34  39
ENDBRANCH  32  33
ENDBRANCH  27  32
ENDBRANCH  25  26
ENDBRANCH   2  25
TORSDOF 8
ENDMDL
MODEL 8
REMARK VINA RESULT:     -11.3      6.505     13.694
REMARK  Name = 448408
REMARK  8 active torsions:
REMARK  status: ('A' for Active; 'I' for Inactive)
REMARK    1  A    between atoms: N_2  and  C_25
REMARK    2  A    between atoms: C_3  and  C_6
REMARK    3  A    between atoms: C_5  and  N_12
REMARK    4  A    between atoms: C_25  and  C_26
REMARK    5  A    between atoms: C_27  and  S_32
REMARK    6  A    between atoms: S_32  and  C_33
REMARK    7  A    between atoms: C_34  and  C_39
REMARK    8  A    between atoms: C_39  and  O_40
REMARK                            x       y       z     vdW  Elec       q    Type
REMARK                         _______ _______ _______ _____ _____    ______ ____
ROOT
ATOM      1  O   UNL     1      34.899 -10.549 -24.008  0.00  0.00    -0.270 OA
ATOM      2  N   UNL     1      32.695 -10.868 -23.362  0.00  0.00    -0.297 N 
ATOM      3  C   UNL     1      33.892 -11.278 -23.962  0.00  0.00    +0.246 C 
ATOM      4  H   UNL     1      31.937 -11.496 -23.361  0.00  0.00    +0.150 HD
ENDROOT
BRANCH   3   6
ATOM      5  C   UNL     1      34.478 -14.964 -24.432  0.00  0.00    +0.090 C 
ATOM      6  C   UNL     1      33.910 -12.602 -24.563  0.00  0.00    +0.055 C 
ATOM      7  C   UNL     1      34.454 -13.679 -23.864  0.00  0.00    +0.023 C 
ATOM      8  C   UNL     1      33.945 -15.141 -25.719  0.00  0.00    +0.018 C 
ATOM      9  C   UNL     1      33.383 -12.794 -25.842  0.00  0.00    +0.005 C 
ATOM     10  C   UNL     1      33.401 -14.063 -26.419  0.00  0.00    +0.002 C 
BRANCH   5  12
ATOM     11  O   UNL     1      34.876 -20.145 -24.417  0.00  0.00    -0.207 OA
ATOM     12  N   UNL     1      35.020 -16.038 -23.734  0.00  0.00    -0.137 N 
ATOM     13  N   UNL     1      35.115 -16.114 -22.380  0.00  0.00    -0.215 N 
ATOM     14  N   UNL     1      34.950 -17.305 -24.310  0.00  0.00    -0.143 NA
ATOM     15  N   UNL     1      35.175 -18.106 -20.941  0.00  0.00    -0.309 NA
ATOM     16  N   UNL     1      35.043 -20.216 -22.105  0.00  0.00    -0.251 NA
ATOM     17  N   UNL     1      35.211 -20.167 -19.799  0.00  0.00    -0.283 N 
ATOM     18  C   UNL     1      35.112 -17.422 -22.022  0.00  0.00    +0.243 C 
ATOM     19  C   UNL     1      35.003 -18.127 -23.309  0.00  0.00    +0.241 C 
ATOM     20  C   UNL     1      34.969 -19.594 -23.329  0.00  0.00    +0.239 C 
ATOM     21  C   UNL     1      35.138 -19.502 -21.001  0.00  0.00    +0.208 C 
ATOM     22  H   UNL     1      35.177 -15.349 -21.764  0.00  0.00    +0.175 HD
ATOM     23  H   UNL     1      35.283 -19.660 -18.958  0.00  0.00    +0.156 HD
ATOM     24  H   UNL     1      35.190 -21.152 -19.780  0.00  0.00    +0.156 HD
ENDBRANCH   5  12
ENDBRANCH   3   6
BRANCH   2  25
ATOM     25  C   UNL     1      32.513  -9.574 -22.744  0.00  0.00    +0.117 C 
BRANCH  25  26
ATOM     26  C   UNL     1      32.042  -9.692 -21.324  0.00  0.00    +0.003 C 
ATOM     27  C   UNL     1      32.432  -8.784 -20.344  0.00  0.00    +0.027 C 
ATOM     28  C   UNL     1      31.193 -10.749 -21.007  0.00  0.00    -0.002 C 
ATOM     29  C   UNL     1      31.970  -8.934 -19.036  0.00  0.00    +0.006 C 
ATOM     30  C   UNL     1      30.731 -10.899 -19.700  0.00  0.00    -0.000 C 
ATOM     31  C   UNL     1      31.119  -9.992 -18.715  0.00  0.00    +0.000 C 
BRANCH  27  32
ATOM     32  S   UNL     1      33.521  -7.413 -20.706  0.00  0.00    -0.087 S 
BRANCH  32  33
ATOM     33  C   UNL     1      32.421  -6.330 -21.604  0.00  0.00    +0.028 C 
ATOM     34  C   UNL     1      32.724  -5.875 -22.889  0.00  0.00    +0.013 C 
ATOM     35  C   UNL     1      31.231  -5.935 -20.990  0.00  0.00    +0.006 C 
ATOM     36  C   UNL     1      31.839  -5.030 -23.558  0.00  0.00    -0.001 C 
ATOM     37  C   UNL     1      30.346  -5.089 -21.659  0.00  0.00    +0.000 C 
ATOM     38  C   UNL     1      30.650  -4.637 -22.943  0.00  0.00    -0.000 C 
BRANCH  34  39
ATOM     39  C   UNL     1      33.984  -6.268 -23.590  0.00  0.00    +0.164 C 
BRANCH  39  40
ATOM     40  O   UNL     1      34.136  -5.475 -24.760  0.00  0.00    -0.377 OA
ATOM     41  H   UNL     1      34.148  -4.537 -24.515  0.00  0.00    +0.211 HD
ENDBRANCH  39  40
ENDBRANCH  34  39
ENDBRANCH  32  33
ENDBRANCH  27  32
ENDBRANCH  25  26
ENDBRANCH   2  25
TORSDOF 8
ENDMDL
MODEL 9
REMARK VINA RESULT:     -11.2      2.595      4.414
REMARK  Name = 448408
REMARK  8 active torsions:
REMARK  status: ('A' for Active; 'I' for Inactive)
REMARK    1  A    between atoms: N_2  and  C_25
REMARK    2  A    between atoms: C_3  and  C_6
REMARK    3  A    between atoms: C_5  and  N_12
REMARK    4  A    between atoms: C_25  and  C_26
REMARK    5  A    between atoms: C_27  and  S_32
REMARK    6  A    between atoms: S_32  and  C_33
REMARK    7  A    between atoms: C_34  and  C_39
REMARK    8  A    between atoms: C_39  and  O_40
REMARK                            x       y       z     vdW  Elec       q    Type
REMARK                         _______ _______ _______ _____ _____    ______ ____
ROOT
ATOM      1  O   UNL     1      32.899 -20.597 -20.368  0.00  0.00    -0.270 OA
ATOM      2  N   UNL     1      34.457 -21.787 -19.131  0.00  0.00    -0.297 N 
ATOM      3  C   UNL     1      34.082 -20.782 -20.029  0.00  0.00    +0.246 C 
ATOM      4  H   UNL     1      35.412 -21.878 -18.907  0.00  0.00    +0.150 HD
ENDROOT
BRANCH   3   6
ATOM      5  C   UNL     1      35.853 -18.071 -21.945  0.00  0.00    +0.090 C 
ATOM      6  C   UNL     1      35.146 -19.961 -20.584  0.00  0.00    +0.055 C 
ATOM      7  C   UNL     1      34.835 -18.874 -21.401  0.00  0.00    +0.023 C 
ATOM      8  C   UNL     1      37.189 -18.387 -21.649  0.00  0.00    +0.018 C 
ATOM      9  C   UNL     1      36.479 -20.261 -20.299  0.00  0.00    +0.005 C 
ATOM     10  C   UNL     1      37.499 -19.474 -20.831  0.00  0.00    +0.002 C 
BRANCH   5  12
ATOM     11  O   UNL     1      33.304 -13.545 -22.060  0.00  0.00    -0.207 OA
ATOM     12  N   UNL     1      35.543 -16.987 -22.759  0.00  0.00    -0.137 N 
ATOM     13  N   UNL     1      35.284 -17.067 -24.091  0.00  0.00    -0.215 N 
ATOM     14  N   UNL     1      34.910 -15.887 -22.184  0.00  0.00    -0.143 NA
ATOM     15  N   UNL     1      33.918 -15.582 -25.495  0.00  0.00    -0.309 NA
ATOM     16  N   UNL     1      32.896 -13.728 -24.335  0.00  0.00    -0.251 NA
ATOM     17  N   UNL     1      32.559 -14.009 -26.606  0.00  0.00    -0.283 N 
ATOM     18  C   UNL     1      34.480 -16.030 -24.435  0.00  0.00    +0.243 C 
ATOM     19  C   UNL     1      34.281 -15.317 -23.164  0.00  0.00    +0.241 C 
ATOM     20  C   UNL     1      33.446 -14.110 -23.134  0.00  0.00    +0.239 C 
ATOM     21  C   UNL     1      33.129 -14.430 -25.426  0.00  0.00    +0.208 C 
ATOM     22  H   UNL     1      35.623 -17.760 -24.703  0.00  0.00    +0.175 HD
ATOM     23  H   UNL     1      32.715 -14.513 -27.437  0.00  0.00    +0.156 HD
ATOM     24  H   UNL     1      31.993 -13.203 -26.619  0.00  0.00    +0.156 HD
ENDBRANCH   5  12
ENDBRANCH   3   6
BRANCH   2  25
ATOM     25  C   UNL     1      33.520 -22.699 -18.514  0.00  0.00    +0.117 C 
BRANCH  25  26
ATOM     26  C   UNL     1      33.828 -22.922 -17.061  0.00  0.00    +0.003 C 
ATOM     27  C   UNL     1      32.836 -22.872 -16.086  0.00  0.00    +0.027 C 
ATOM     28  C   UNL     1      35.149 -23.182 -16.710  0.00  0.00    -0.002 C 
ATOM     29  C   UNL     1      33.169 -23.084 -14.748  0.00  0.00    +0.006 C 
ATOM     30  C   UNL     1      35.482 -23.395 -15.373  0.00  0.00    -0.000 C 
ATOM     31  C   UNL     1      34.492 -23.346 -14.392  0.00  0.00    +0.000 C 
BRANCH  27  32
ATOM     32  S   UNL     1      31.127 -22.540 -16.492  0.00  0.00    -0.087 S 
BRANCH  32  33
ATOM     33  C   UNL     1      30.296 -23.794 -15.529  0.00  0.00    +0.028 C 
ATOM     34  C   UNL     1      28.906 -23.930 -15.543  0.00  0.00    +0.013 C 
ATOM     35  C   UNL     1      31.071 -24.652 -14.747  0.00  0.00    +0.006 C 
ATOM     36  C   UNL     1      28.294 -24.923 -14.777  0.00  0.00    -0.001 C 
ATOM     37  C   UNL     1      30.458 -25.644 -13.981  0.00  0.00    +0.000 C 
ATOM     38  C   UNL     1      29.070 -25.779 -13.996  0.00  0.00    -0.000 C 
BRANCH  34  39
ATOM     39  C   UNL     1      28.032 -23.038 -16.363  0.00  0.00    +0.164 C 
BRANCH  39  40
ATOM     40  O   UNL     1      27.589 -23.745 -17.514  0.00  0.00    -0.377 OA
ATOM     41  H   UNL     1      27.428 -24.673 -17.281  0.00  0.00    +0.211 HD
ENDBRANCH  39  40
ENDBRANCH  34  39
ENDBRANCH  32  33
ENDBRANCH  27  32
ENDBRANCH  25  26
ENDBRANCH   2  25
TORSDOF 8
ENDMDL
