MODEL 1
REMARK VINA RESULT:     -11.3      0.000      0.000
REMARK  Name = 5497056
REMARK  11 active torsions:
REMARK  status: ('A' for Active; 'I' for Inactive)
REMARK    1  A    between atoms: N_2  and  C_22
REMARK    2  A    between atoms: C_3  and  C_5
REMARK    3  A    between atoms: C_8  and  C_11
REMARK    4  A    between atoms: C_13  and  C_17
REMARK    5  A    between atoms: C_17  and  N_18
REMARK    6  A    between atoms: C_22  and  C_24
REMARK    7  A    between atoms: C_24  and  C_26
REMARK    8  A    between atoms: C_24  and  C_29
REMARK    9  A    between atoms: C_26  and  O_27
REMARK   10  A    between atoms: C_29  and  C_30
REMARK   11  A    between atoms: C_33  and  C_38
REMARK                            x       y       z     vdW  Elec       q    Type
REMARK                         _______ _______ _______ _____ _____    ______ ____
ROOT
ATOM      1  O   UNL     1      33.737 -24.213 -18.569  0.00  0.00    -0.270 OA
ATOM      2  N   UNL     1      33.690 -22.759 -16.763  0.00  0.00    -0.302 N 
ATOM      3  C   UNL     1      33.799 -23.076 -18.109  0.00  0.00    +0.246 C 
ATOM      4  H   UNL     1      33.755 -21.815 -16.492  0.00  0.00    +0.150 HD
ENDROOT
BRANCH   3   5
ATOM      5  C   UNL     1      34.034 -21.933 -19.027  0.00  0.00    +0.053 C 
ATOM      6  C   UNL     1      32.956 -21.173 -19.484  0.00  0.00    +0.005 C 
ATOM      7  C   UNL     1      35.331 -21.618 -19.434  0.00  0.00    +0.005 C 
ATOM      8  C   UNL     1      34.473 -19.784 -20.752  0.00  0.00    -0.000 C 
ATOM      9  C   UNL     1      33.176 -20.099 -20.347  0.00  0.00    +0.000 C 
ATOM     10  C   UNL     1      35.550 -20.544 -20.295  0.00  0.00    +0.000 C 
BRANCH   8  11
ATOM     11  C   UNL     1      34.700 -18.669 -21.646  0.00  0.00    -0.000 C 
ATOM     12  C   UNL     1      34.609 -17.362 -21.168  0.00  0.00    -0.006 C 
ATOM     13  C   UNL     1      34.828 -16.288 -22.031  0.00  0.00    -0.044 C 
ATOM     14  C   UNL     1      35.009 -18.903 -22.986  0.00  0.00    -0.000 C 
ATOM     15  C   UNL     1      35.137 -16.521 -23.371  0.00  0.00    -0.006 C 
ATOM     16  C   UNL     1      35.228 -17.828 -23.849  0.00  0.00    -0.000 C 
BRANCH  13  17
ATOM     17  C   UNL     1      34.732 -14.890 -21.520  0.00  0.00    -0.059 C 
BRANCH  17  18
ATOM     18  N   UNL     1      34.685 -13.903 -22.600  0.00  0.00    +0.383 N 
ATOM     19  H   UNL     1      34.253 -13.045 -22.257  0.00  0.00    -0.089 HD
ATOM     20  H   UNL     1      34.136 -14.273 -23.376  0.00  0.00    -0.089 HD
ATOM     21  H   UNL     1      35.633 -13.704 -22.919  0.00  0.00    -0.089 HD
ENDBRANCH  17  18
ENDBRANCH  13  17
ENDBRANCH   8  11
ENDBRANCH   3   5
BRANCH   2  22
ATOM     22  C   UNL     1      33.487 -23.763 -15.745  0.00  0.00    +0.083 C 
ATOM     23  C   UNL     1      32.190 -23.485 -14.985  0.00  0.00    +0.022 C 
BRANCH  22  24
ATOM     24  C   UNL     1      34.701 -23.905 -14.800  0.00  0.00    +0.121 C 
BRANCH  24  26
ATOM     25  O   UNL     1      35.895 -21.832 -14.333  0.00  0.00    -0.250 OA
ATOM     26  C   UNL     1      35.732 -22.809 -15.052  0.00  0.00    +0.319 C 
BRANCH  26  27
ATOM     27  O   UNL     1      36.429 -23.088 -16.192  0.00  0.00    -0.444 OA
ATOM     28  C   UNL     1      37.524 -22.210 -16.474  0.00  0.00    +0.256 C 
ENDBRANCH  26  27
ENDBRANCH  24  26
BRANCH  24  29
ATOM     29  C   UNL     1      35.368 -25.290 -14.920  0.00  0.00    +0.039 C 
BRANCH  29  30
ATOM     30  C   UNL     1      36.582 -25.436 -14.032  0.00  0.00    -0.021 C 
ATOM     31  C   UNL     1      37.818 -25.765 -14.588  0.00  0.00    -0.002 C 
ATOM     32  C   UNL     1      36.466 -25.242 -12.655  0.00  0.00    -0.004 C 
ATOM     33  C   UNL     1      38.938 -25.901 -13.768  0.00  0.00    +0.030 C 
ATOM     34  C   UNL     1      37.586 -25.378 -11.835  0.00  0.00    -0.000 C 
ATOM     35  C   UNL     1      38.822 -25.707 -12.390  0.00  0.00    +0.003 C 
BRANCH  33  38
ATOM     36  N   UNL     1      41.194 -26.927 -13.609  0.00  0.00    -0.343 N 
ATOM     37  N   UNL     1      40.499 -25.909 -15.594  0.00  0.00    -0.285 NA
ATOM     38  C   UNL     1      40.226 -26.246 -14.346  0.00  0.00    +0.117 C 
ATOM     39  H   UNL     1      42.060 -27.150 -14.020  0.00  0.00    +0.144 HD
ATOM     40  H   UNL     1      41.011 -27.184 -12.676  0.00  0.00    +0.144 HD
ATOM     41  H   UNL     1      41.371 -26.141 -15.988  0.00  0.00    +0.188 HD
ENDBRANCH  33  38
ENDBRANCH  29  30
ENDBRANCH  24  29
ENDBRANCH  22  24
ENDBRANCH   2  22
TORSDOF 11
ENDMDL
MODEL 2
REMARK VINA RESULT:     -11.2      2.261      3.501
REMARK  Name = 5497056
REMARK  11 active torsions:
REMARK  status: ('A' for Active; 'I' for Inactive)
REMARK    1  A    between atoms: N_2  and  C_22
REMARK    2  A    between atoms: C_3  and  C_5
REMARK    3  A    between atoms: C_8  and  C_11
REMARK    4  A    between atoms: C_13  and  C_17
REMARK    5  A    between atoms: C_17  and  N_18
REMARK    6  A    between atoms: C_22  and  C_24
REMARK    7  A    between atoms: C_24  and  C_26
REMARK    8  A    between atoms: C_24  and  C_29
REMARK    9  A    between atoms: C_26  and  O_27
REMARK   10  A    between atoms: C_29  and  C_30
REMARK   11  A    between atoms: C_33  and  C_38
REMARK                            x       y       z     vdW  Elec       q    Type
REMARK                         _______ _______ _______ _____ _____    ______ ____
ROOT
ATOM      1  O   UNL     1      33.080 -24.450 -17.464  0.00  0.00    -0.270 OA
ATOM      2  N   UNL     1      31.850 -22.671 -16.629  0.00  0.00    -0.302 N 
ATOM      3  C   UNL     1      32.799 -23.255 -17.454  0.00  0.00    +0.246 C 
ATOM      4  H   UNL     1      31.697 -21.701 -16.695  0.00  0.00    +0.150 HD
ENDROOT
BRANCH   3   5
ATOM      5  C   UNL     1      33.526 -22.331 -18.361  0.00  0.00    +0.053 C 
ATOM      6  C   UNL     1      32.816 -21.426 -19.150  0.00  0.00    +0.005 C 
ATOM      7  C   UNL     1      34.919 -22.366 -18.424  0.00  0.00    +0.005 C 
ATOM      8  C   UNL     1      34.891 -20.593 -20.065  0.00  0.00    -0.000 C 
ATOM      9  C   UNL     1      33.498 -20.557 -20.002  0.00  0.00    +0.000 C 
ATOM     10  C   UNL     1      35.602 -21.498 -19.275  0.00  0.00    +0.000 C 
BRANCH   8  11
ATOM     11  C   UNL     1      35.598 -19.690 -20.948  0.00  0.00    -0.000 C 
ATOM     12  C   UNL     1      34.918 -19.055 -21.986  0.00  0.00    -0.006 C 
ATOM     13  C   UNL     1      35.600 -18.185 -22.837  0.00  0.00    -0.044 C 
ATOM     14  C   UNL     1      36.960 -19.457 -20.760  0.00  0.00    -0.000 C 
ATOM     15  C   UNL     1      36.962 -17.952 -22.649  0.00  0.00    -0.006 C 
ATOM     16  C   UNL     1      37.643 -18.587 -21.610  0.00  0.00    -0.000 C 
BRANCH  13  17
ATOM     17  C   UNL     1      34.872 -17.504 -23.947  0.00  0.00    -0.059 C 
BRANCH  17  18
ATOM     18  N   UNL     1      35.334 -16.131 -24.157  0.00  0.00    +0.383 N 
ATOM     19  H   UNL     1      36.318 -16.060 -23.897  0.00  0.00    -0.089 HD
ATOM     20  H   UNL     1      34.783 -15.495 -23.580  0.00  0.00    -0.089 HD
ATOM     21  H   UNL     1      35.222 -15.883 -25.140  0.00  0.00    -0.089 HD
ENDBRANCH  17  18
ENDBRANCH  13  17
ENDBRANCH   8  11
ENDBRANCH   3   5
BRANCH   2  22
ATOM     22  C   UNL     1      31.078 -23.433 -15.675  0.00  0.00    +0.083 C 
ATOM     23  C   UNL     1      30.119 -22.514 -14.921  0.00  0.00    +0.022 C 
BRANCH  22  24
ATOM     24  C   UNL     1      31.966 -24.264 -14.721  0.00  0.00    +0.121 C 
BRANCH  24  26
ATOM     25  O   UNL     1      31.154 -24.919 -12.519  0.00  0.00    -0.250 OA
ATOM     26  C   UNL     1      31.123 -25.064 -13.734  0.00  0.00    +0.319 C 
BRANCH  26  27
ATOM     27  O   UNL     1      30.342 -25.953 -14.412  0.00  0.00    -0.444 OA
ATOM     28  C   UNL     1      28.929 -25.769 -14.266  0.00  0.00    +0.256 C 
ENDBRANCH  26  27
ENDBRANCH  24  26
BRANCH  24  29
ATOM     29  C   UNL     1      32.976 -23.383 -13.957  0.00  0.00    +0.039 C 
BRANCH  29  30
ATOM     30  C   UNL     1      34.408 -23.651 -14.358  0.00  0.00    -0.021 C 
ATOM     31  C   UNL     1      34.908 -24.953 -14.333  0.00  0.00    -0.002 C 
ATOM     32  C   UNL     1      35.231 -22.596 -14.752  0.00  0.00    -0.004 C 
ATOM     33  C   UNL     1      36.230 -25.200 -14.702  0.00  0.00    +0.030 C 
ATOM     34  C   UNL     1      36.554 -22.843 -15.120  0.00  0.00    -0.000 C 
ATOM     35  C   UNL     1      37.054 -24.144 -15.096  0.00  0.00    +0.003 C 
BRANCH  33  38
ATOM     36  N   UNL     1      37.180 -27.145 -13.485  0.00  0.00    -0.343 N 
ATOM     37  N   UNL     1      36.831 -27.255 -15.793  0.00  0.00    -0.285 NA
ATOM     38  C   UNL     1      36.752 -26.557 -14.674  0.00  0.00    +0.117 C 
ATOM     39  H   UNL     1      37.531 -28.065 -13.489  0.00  0.00    +0.144 HD
ATOM     40  H   UNL     1      37.132 -26.640 -12.640  0.00  0.00    +0.144 HD
ATOM     41  H   UNL     1      37.184 -28.173 -15.776  0.00  0.00    +0.188 HD
ENDBRANCH  33  38
ENDBRANCH  29  30
ENDBRANCH  24  29
ENDBRANCH  22  24
ENDBRANCH   2  22
TORSDOF 11
ENDMDL
MODEL 3
REMARK VINA RESULT:     -10.9      3.956     11.039
REMARK  Name = 5497056
REMARK  11 active torsions:
REMARK  status: ('A' for Active; 'I' for Inactive)
REMARK    1  A    between atoms: N_2  and  C_22
REMARK    2  A    between atoms: C_3  and  C_5
REMARK    3  A    between atoms: C_8  and  C_11
REMARK    4  A    between atoms: C_13  and  C_17
REMARK    5  A    between atoms: C_17  and  N_18
REMARK    6  A    between atoms: C_22  and  C_24
REMARK    7  A    between atoms: C_24  and  C_26
REMARK    8  A    between atoms: C_24  and  C_29
REMARK    9  A    between atoms: C_26  and  O_27
REMARK   10  A    between atoms: C_29  and  C_30
REMARK   11  A    between atoms: C_33  and  C_38
REMARK                            x       y       z     vdW  Elec       q    Type
REMARK                         _______ _______ _______ _____ _____    ______ ____
ROOT
ATOM      1  O   UNL     1      36.815 -21.721 -19.981  0.00  0.00    -0.270 OA
ATOM      2  N   UNL     1      35.223 -20.051 -20.214  0.00  0.00    -0.302 N 
ATOM      3  C   UNL     1      35.754 -21.200 -19.648  0.00  0.00    +0.246 C 
ATOM      4  H   UNL     1      34.362 -19.711 -19.877  0.00  0.00    +0.150 HD
ENDROOT
BRANCH   3   5
ATOM      5  C   UNL     1      34.938 -21.834 -18.581  0.00  0.00    +0.053 C 
ATOM      6  C   UNL     1      35.558 -22.347 -17.441  0.00  0.00    +0.005 C 
ATOM      7  C   UNL     1      33.552 -21.916 -18.717  0.00  0.00    +0.005 C 
ATOM      8  C   UNL     1      33.406 -23.023 -16.575  0.00  0.00    -0.000 C 
ATOM      9  C   UNL     1      34.791 -22.942 -16.438  0.00  0.00    +0.000 C 
ATOM     10  C   UNL     1      32.786 -22.510 -17.714  0.00  0.00    +0.000 C 
BRANCH   8  11
ATOM     11  C   UNL     1      32.612 -23.639 -15.533  0.00  0.00    -0.000 C 
ATOM     12  C   UNL     1      31.239 -23.808 -15.710  0.00  0.00    -0.006 C 
ATOM     13  C   UNL     1      30.475 -24.403 -14.706  0.00  0.00    -0.044 C 
ATOM     14  C   UNL     1      33.222 -24.064 -14.353  0.00  0.00    -0.000 C 
ATOM     15  C   UNL     1      31.085 -24.827 -13.525  0.00  0.00    -0.006 C 
ATOM     16  C   UNL     1      32.458 -24.659 -13.348  0.00  0.00    -0.000 C 
BRANCH  13  17
ATOM     17  C   UNL     1      29.007 -24.585 -14.895  0.00  0.00    -0.059 C 
BRANCH  17  18
ATOM     18  N   UNL     1      28.571 -24.234 -16.247  0.00  0.00    +0.383 N 
ATOM     19  H   UNL     1      28.671 -25.045 -16.858  0.00  0.00    -0.089 HD
ATOM     20  H   UNL     1      29.144 -23.469 -16.602  0.00  0.00    -0.089 HD
ATOM     21  H   UNL     1      27.593 -23.944 -16.224  0.00  0.00    -0.089 HD
ENDBRANCH  17  18
ENDBRANCH  13  17
ENDBRANCH   8  11
ENDBRANCH   3   5
BRANCH   2  22
ATOM     22  C   UNL     1      35.885 -19.335 -21.280  0.00  0.00    +0.083 C 
ATOM     23  C   UNL     1      37.265 -18.868 -20.820  0.00  0.00    +0.022 C 
BRANCH  22  24
ATOM     24  C   UNL     1      35.028 -18.177 -21.838  0.00  0.00    +0.121 C 
BRANCH  24  26
ATOM     25  O   UNL     1      34.385 -19.191 -23.958  0.00  0.00    -0.250 OA
ATOM     26  C   UNL     1      34.904 -18.260 -23.355  0.00  0.00    +0.319 C 
BRANCH  26  27
ATOM     27  O   UNL     1      35.456 -17.149 -23.923  0.00  0.00    -0.444 OA
ATOM     28  C   UNL     1      34.764 -16.632 -25.065  0.00  0.00    +0.256 C 
ENDBRANCH  26  27
ENDBRANCH  24  26
BRANCH  24  29
ATOM     29  C   UNL     1      35.586 -16.797 -21.431  0.00  0.00    +0.039 C 
BRANCH  29  30
ATOM     30  C   UNL     1      34.502 -15.765 -21.223  0.00  0.00    -0.021 C 
ATOM     31  C   UNL     1      34.457 -14.629 -22.030  0.00  0.00    -0.002 C 
ATOM     32  C   UNL     1      33.548 -15.948 -20.222  0.00  0.00    -0.004 C 
ATOM     33  C   UNL     1      33.458 -13.675 -21.837  0.00  0.00    +0.030 C 
ATOM     34  C   UNL     1      32.549 -14.994 -20.028  0.00  0.00    -0.000 C 
ATOM     35  C   UNL     1      32.503 -13.857 -20.835  0.00  0.00    +0.003 C 
BRANCH  33  38
ATOM     36  N   UNL     1      34.250 -12.349 -23.781  0.00  0.00    -0.343 N 
ATOM     37  N   UNL     1      32.562 -11.516 -22.396  0.00  0.00    -0.285 NA
ATOM     38  C   UNL     1      33.411 -12.489 -22.677  0.00  0.00    +0.117 C 
ATOM     39  H   UNL     1      34.202 -11.537 -24.336  0.00  0.00    +0.144 HD
ATOM     40  H   UNL     1      34.892 -13.062 -24.006  0.00  0.00    +0.144 HD
ATOM     41  H   UNL     1      32.530 -10.713 -22.963  0.00  0.00    +0.188 HD
ENDBRANCH  33  38
ENDBRANCH  29  30
ENDBRANCH  24  29
ENDBRANCH  22  24
ENDBRANCH   2  22
TORSDOF 11
ENDMDL
MODEL 4
REMARK VINA RESULT:     -10.8      1.468      2.468
REMARK  Name = 5497056
REMARK  11 active torsions:
REMARK  status: ('A' for Active; 'I' for Inactive)
REMARK    1  A    between atoms: N_2  and  C_22
REMARK    2  A    between atoms: C_3  and  C_5
REMARK    3  A    between atoms: C_8  and  C_11
REMARK    4  A    between atoms: C_13  and  C_17
REMARK    5  A    between atoms: C_17  and  N_18
REMARK    6  A    between atoms: C_22  and  C_24
REMARK    7  A    between atoms: C_24  and  C_26
REMARK    8  A    between atoms: C_24  and  C_29
REMARK    9  A    between atoms: C_26  and  O_27
REMARK   10  A    between atoms: C_29  and  C_30
REMARK   11  A    between atoms: C_33  and  C_38
REMARK                            x       y       z     vdW  Elec       q    Type
REMARK                         _______ _______ _______ _____ _____    ______ ____
ROOT
ATOM      1  O   UNL     1      33.774 -24.261 -17.968  0.00  0.00    -0.270 OA
ATOM      2  N   UNL     1      32.867 -22.666 -16.550  0.00  0.00    -0.302 N 
ATOM      3  C   UNL     1      33.468 -23.098 -17.723  0.00  0.00    +0.246 C 
ATOM      4  H   UNL     1      32.661 -21.709 -16.447  0.00  0.00    +0.150 HD
ENDROOT
BRANCH   3   5
ATOM      5  C   UNL     1      33.772 -22.041 -18.721  0.00  0.00    +0.053 C 
ATOM      6  C   UNL     1      32.741 -21.264 -19.250  0.00  0.00    +0.005 C 
ATOM      7  C   UNL     1      35.088 -21.825 -19.131  0.00  0.00    +0.005 C 
ATOM      8  C   UNL     1      34.343 -20.055 -20.597  0.00  0.00    -0.000 C 
ATOM      9  C   UNL     1      33.027 -20.271 -20.188  0.00  0.00    +0.000 C 
ATOM     10  C   UNL     1      35.373 -20.833 -20.069  0.00  0.00    +0.000 C 
BRANCH   8  11
ATOM     11  C   UNL     1      34.637 -19.025 -21.569  0.00  0.00    -0.000 C 
ATOM     12  C   UNL     1      34.602 -17.682 -21.195  0.00  0.00    -0.006 C 
ATOM     13  C   UNL     1      34.886 -16.689 -22.133  0.00  0.00    -0.044 C 
ATOM     14  C   UNL     1      34.956 -19.376 -22.881  0.00  0.00    -0.000 C 
ATOM     15  C   UNL     1      35.205 -17.040 -23.445  0.00  0.00    -0.006 C 
ATOM     16  C   UNL     1      35.240 -18.384 -23.819  0.00  0.00    -0.000 C 
BRANCH  13  17
ATOM     17  C   UNL     1      34.850 -15.253 -21.733  0.00  0.00    -0.059 C 
BRANCH  17  18
ATOM     18  N   UNL     1      33.908 -14.474 -22.537  0.00  0.00    +0.383 N 
ATOM     19  H   UNL     1      33.549 -13.697 -21.982  0.00  0.00    -0.089 HD
ATOM     20  H   UNL     1      33.133 -15.070 -22.827  0.00  0.00    -0.089 HD
ATOM     21  H   UNL     1      34.385 -14.111 -23.362  0.00  0.00    -0.089 HD
ENDBRANCH  17  18
ENDBRANCH  13  17
ENDBRANCH   8  11
ENDBRANCH   3   5
BRANCH   2  22
ATOM     22  C   UNL     1      32.533 -23.569 -15.473  0.00  0.00    +0.083 C 
ATOM     23  C   UNL     1      31.349 -23.022 -14.677  0.00  0.00    +0.022 C 
BRANCH  22  24
ATOM     24  C   UNL     1      33.746 -23.895 -14.573  0.00  0.00    +0.121 C 
BRANCH  24  26
ATOM     25  O   UNL     1      32.446 -25.303 -13.067  0.00  0.00    -0.250 OA
ATOM     26  C   UNL     1      33.301 -24.440 -13.220  0.00  0.00    +0.319 C 
BRANCH  26  27
ATOM     27  O   UNL     1      33.999 -23.821 -12.224  0.00  0.00    -0.444 OA
ATOM     28  C   UNL     1      34.989 -24.625 -11.573  0.00  0.00    +0.256 C 
ENDBRANCH  26  27
ENDBRANCH  24  26
BRANCH  24  29
ATOM     29  C   UNL     1      34.661 -22.671 -14.371  0.00  0.00    +0.039 C 
BRANCH  29  30
ATOM     30  C   UNL     1      36.064 -22.897 -14.886  0.00  0.00    -0.021 C 
ATOM     31  C   UNL     1      36.832 -23.944 -14.379  0.00  0.00    -0.002 C 
ATOM     32  C   UNL     1      36.591 -22.057 -15.867  0.00  0.00    -0.004 C 
ATOM     33  C   UNL     1      38.128 -24.152 -14.853  0.00  0.00    +0.030 C 
ATOM     34  C   UNL     1      37.887 -22.264 -16.341  0.00  0.00    -0.000 C 
ATOM     35  C   UNL     1      38.656 -23.311 -15.835  0.00  0.00    +0.003 C 
BRANCH  33  38
ATOM     36  N   UNL     1      38.859 -25.611 -12.982  0.00  0.00    -0.343 N 
ATOM     37  N   UNL     1      39.750 -25.904 -15.122  0.00  0.00    -0.285 NA
ATOM     38  C   UNL     1      38.930 -25.243 -14.324  0.00  0.00    +0.117 C 
ATOM     39  H   UNL     1      39.412 -26.353 -12.644  0.00  0.00    +0.144 HD
ATOM     40  H   UNL     1      38.256 -25.129 -12.370  0.00  0.00    +0.144 HD
ATOM     41  H   UNL     1      40.294 -26.643 -14.765  0.00  0.00    +0.188 HD
ENDBRANCH  33  38
ENDBRANCH  29  30
ENDBRANCH  24  29
ENDBRANCH  22  24
ENDBRANCH   2  22
TORSDOF 11
ENDMDL
MODEL 5
REMARK VINA RESULT:     -10.8      6.009     10.796
REMARK  Name = 5497056
REMARK  11 active torsions:
REMARK  status: ('A' for Active; 'I' for Inactive)
REMARK    1  A    between atoms: N_2  and  C_22
REMARK    2  A    between atoms: C_3  and  C_5
REMARK    3  A    between atoms: C_8  and  C_11
REMARK    4  A    between atoms: C_13  and  C_17
REMARK    5  A    between atoms: C_17  and  N_18
REMARK    6  A    between atoms: C_22  and  C_24
REMARK    7  A    between atoms: C_24  and  C_26
REMARK    8  A    between atoms: C_24  and  C_29
REMARK    9  A    between atoms: C_26  and  O_27
REMARK   10  A    between atoms: C_29  and  C_30
REMARK   11  A    between atoms: C_33  and  C_38
REMARK                            x       y       z     vdW  Elec       q    Type
REMARK                         _______ _______ _______ _____ _____    ______ ____
ROOT
ATOM      1  O   UNL     1      32.114 -14.302 -20.913  0.00  0.00    -0.270 OA
ATOM      2  N   UNL     1      33.883 -14.442 -22.405  0.00  0.00    -0.302 N 
ATOM      3  C   UNL     1      32.891 -13.775 -21.703  0.00  0.00    +0.246 C 
ATOM      4  H   UNL     1      34.458 -13.928 -23.018  0.00  0.00    +0.150 HD
ENDROOT
BRANCH   3   5
ATOM      5  C   UNL     1      32.774 -12.319 -21.973  0.00  0.00    +0.053 C 
ATOM      6  C   UNL     1      33.509 -11.740 -23.008  0.00  0.00    +0.005 C 
ATOM      7  C   UNL     1      31.929 -11.529 -21.193  0.00  0.00    +0.005 C 
ATOM      8  C   UNL     1      32.554  -9.584 -22.482  0.00  0.00    -0.000 C 
ATOM      9  C   UNL     1      33.399 -10.373 -23.262  0.00  0.00    +0.000 C 
ATOM     10  C   UNL     1      31.818 -10.163 -21.447  0.00  0.00    +0.000 C 
BRANCH   8  11
ATOM     11  C   UNL     1      32.440  -8.166 -22.747  0.00  0.00    -0.000 C 
ATOM     12  C   UNL     1      31.469  -7.409 -22.091  0.00  0.00    -0.006 C 
ATOM     13  C   UNL     1      31.360  -6.043 -22.348  0.00  0.00    -0.044 C 
ATOM     14  C   UNL     1      33.302  -7.557 -23.659  0.00  0.00    -0.000 C 
ATOM     15  C   UNL     1      32.222  -5.433 -23.260  0.00  0.00    -0.006 C 
ATOM     16  C   UNL     1      33.193  -6.190 -23.916  0.00  0.00    -0.000 C 
BRANCH  13  17
ATOM     17  C   UNL     1      30.323  -5.233 -21.646  0.00  0.00    -0.059 C 
BRANCH  17  18
ATOM     18  N   UNL     1      30.353  -3.824 -22.042  0.00  0.00    +0.383 N 
ATOM     19  H   UNL     1      29.403  -3.501 -22.223  0.00  0.00    -0.089 HD
ATOM     20  H   UNL     1      30.914  -3.719 -22.887  0.00  0.00    -0.089 HD
ATOM     21  H   UNL     1      30.764  -3.269 -21.291  0.00  0.00    -0.089 HD
ENDBRANCH  17  18
ENDBRANCH  13  17
ENDBRANCH   8  11
ENDBRANCH   3   5
BRANCH   2  22
ATOM     22  C   UNL     1      34.106 -15.863 -22.270  0.00  0.00    +0.083 C 
ATOM     23  C   UNL     1      34.698 -16.174 -20.896  0.00  0.00    +0.022 C 
BRANCH  22  24
ATOM     24  C   UNL     1      34.958 -16.442 -23.421  0.00  0.00    +0.121 C 
BRANCH  24  26
ATOM     25  O   UNL     1      35.292 -15.868 -25.766  0.00  0.00    -0.250 OA
ATOM     26  C   UNL     1      34.609 -15.787 -24.754  0.00  0.00    +0.319 C 
BRANCH  26  27
ATOM     27  O   UNL     1      33.433 -15.104 -24.636  0.00  0.00    -0.444 OA
ATOM     28  C   UNL     1      33.026 -14.374 -25.798  0.00  0.00    +0.256 C 
ENDBRANCH  26  27
ENDBRANCH  24  26
BRANCH  24  29
ATOM     29  C   UNL     1      34.811 -17.973 -23.535  0.00  0.00    +0.039 C 
BRANCH  29  30
ATOM     30  C   UNL     1      35.404 -18.708 -22.355  0.00  0.00    -0.021 C 
ATOM     31  C   UNL     1      34.607 -19.561 -21.593  0.00  0.00    -0.002 C 
ATOM     32  C   UNL     1      36.748 -18.532 -22.027  0.00  0.00    -0.004 C 
ATOM     33  C   UNL     1      35.153 -20.238 -20.502  0.00  0.00    +0.030 C 
ATOM     34  C   UNL     1      37.295 -19.208 -20.936  0.00  0.00    -0.000 C 
ATOM     35  C   UNL     1      36.498 -20.061 -20.174  0.00  0.00    +0.003 C 
BRANCH  33  38
ATOM     36  N   UNL     1      34.879 -22.148 -18.939  0.00  0.00    -0.343 N 
ATOM     37  N   UNL     1      33.009 -20.974 -19.704  0.00  0.00    -0.285 NA
ATOM     38  C   UNL     1      34.322 -21.126 -19.706  0.00  0.00    +0.117 C 
ATOM     39  H   UNL     1      34.298 -22.739 -18.408  0.00  0.00    +0.144 HD
ATOM     40  H   UNL     1      35.855 -22.281 -18.931  0.00  0.00    +0.144 HD
ATOM     41  H   UNL     1      32.445 -21.574 -19.165  0.00  0.00    +0.188 HD
ENDBRANCH  33  38
ENDBRANCH  29  30
ENDBRANCH  24  29
ENDBRANCH  22  24
ENDBRANCH   2  22
TORSDOF 11
ENDMDL
MODEL 6
REMARK VINA RESULT:     -10.8      7.762     15.795
REMARK  Name = 5497056
REMARK  11 active torsions:
REMARK  status: ('A' for Active; 'I' for Inactive)
REMARK    1  A    between atoms: N_2  and  C_22
REMARK    2  A    between atoms: C_3  and  C_5
REMARK    3  A    between atoms: C_8  and  C_11
REMARK    4  A    between atoms: C_13  and  C_17
REMARK    5  A    between atoms: C_17  and  N_18
REMARK    6  A    between atoms: C_22  and  C_24
REMARK    7  A    between atoms: C_24  and  C_26
REMARK    8  A    between atoms: C_24  and  C_29
REMARK    9  A    between atoms: C_26  and  O_27
REMARK   10  A    between atoms: C_29  and  C_30
REMARK   11  A    between atoms: C_33  and  C_38
REMARK                            x       y       z     vdW  Elec       q    Type
REMARK                         _______ _______ _______ _____ _____    ______ ____
ROOT
ATOM      1  O   UNL     1      30.667 -11.263 -20.754  0.00  0.00    -0.270 OA
ATOM      2  N   UNL     1      32.216 -10.102 -22.029  0.00  0.00    -0.302 N 
ATOM      3  C   UNL     1      31.668 -11.243 -21.464  0.00  0.00    +0.246 C 
ATOM      4  H   UNL     1      33.024 -10.190 -22.585  0.00  0.00    +0.150 HD
ENDROOT
BRANCH   3   5
ATOM      5  C   UNL     1      32.388 -12.513 -21.739  0.00  0.00    +0.053 C 
ATOM      6  C   UNL     1      32.361 -13.547 -20.803  0.00  0.00    +0.005 C 
ATOM      7  C   UNL     1      33.092 -12.672 -22.933  0.00  0.00    +0.005 C 
ATOM      8  C   UNL     1      33.740 -14.899 -22.255  0.00  0.00    -0.000 C 
ATOM      9  C   UNL     1      33.037 -14.739 -21.061  0.00  0.00    +0.000 C 
ATOM     10  C   UNL     1      33.767 -13.864 -23.191  0.00  0.00    +0.000 C 
BRANCH   8  11
ATOM     11  C   UNL     1      34.440 -16.137 -22.522  0.00  0.00    -0.000 C 
ATOM     12  C   UNL     1      34.946 -16.893 -21.465  0.00  0.00    -0.006 C 
ATOM     13  C   UNL     1      35.621 -18.087 -21.723  0.00  0.00    -0.044 C 
ATOM     14  C   UNL     1      34.608 -16.572 -23.836  0.00  0.00    -0.000 C 
ATOM     15  C   UNL     1      35.789 -18.522 -23.038  0.00  0.00    -0.006 C 
ATOM     16  C   UNL     1      35.282 -17.766 -24.094  0.00  0.00    -0.000 C 
BRANCH  13  17
ATOM     17  C   UNL     1      36.161 -18.897 -20.594  0.00  0.00    -0.059 C 
BRANCH  17  18
ATOM     18  N   UNL     1      37.602 -18.715 -20.416  0.00  0.00    +0.383 N 
ATOM     19  H   UNL     1      38.030 -18.489 -21.314  0.00  0.00    -0.089 HD
ATOM     20  H   UNL     1      38.012 -19.574 -20.051  0.00  0.00    -0.089 HD
ATOM     21  H   UNL     1      37.769 -17.953 -19.759  0.00  0.00    -0.089 HD
ENDBRANCH  17  18
ENDBRANCH  13  17
ENDBRANCH   8  11
ENDBRANCH   3   5
BRANCH   2  22
ATOM     22  C   UNL     1      31.646  -8.789 -21.833  0.00  0.00    +0.083 C 
ATOM     23  C   UNL     1      30.930  -8.333 -23.103  0.00  0.00    +0.022 C 
BRANCH  22  24
ATOM     24  C   UNL     1      32.686  -7.758 -21.342  0.00  0.00    +0.121 C 
BRANCH  24  26
ATOM     25  O   UNL     1      33.272  -6.773 -19.191  0.00  0.00    -0.250 OA
ATOM     26  C   UNL     1      32.661  -7.625 -19.823  0.00  0.00    +0.319 C 
BRANCH  26  27
ATOM     27  O   UNL     1      31.861  -8.594 -19.290  0.00  0.00    -0.444 OA
ATOM     28  C   UNL     1      32.540  -9.612 -18.547  0.00  0.00    +0.256 C 
ENDBRANCH  26  27
ENDBRANCH  24  26
BRANCH  24  29
ATOM     29  C   UNL     1      32.482  -6.375 -21.994  0.00  0.00    +0.039 C 
BRANCH  29  30
ATOM     30  C   UNL     1      33.388  -6.147 -23.182  0.00  0.00    -0.021 C 
ATOM     31  C   UNL     1      32.992  -5.287 -24.205  0.00  0.00    -0.002 C 
ATOM     32  C   UNL     1      34.618  -6.799 -23.255  0.00  0.00    -0.004 C 
ATOM     33  C   UNL     1      33.827  -5.078 -25.303  0.00  0.00    +0.030 C 
ATOM     34  C   UNL     1      35.454  -6.591 -24.354  0.00  0.00    -0.000 C 
ATOM     35  C   UNL     1      35.059  -5.731 -25.377  0.00  0.00    +0.003 C 
BRANCH  33  38
ATOM     36  N   UNL     1      34.019  -4.224 -27.627  0.00  0.00    -0.343 N 
ATOM     37  N   UNL     1      32.450  -3.305 -26.160  0.00  0.00    -0.285 NA
ATOM     38  C   UNL     1      33.415  -4.182 -26.372  0.00  0.00    +0.117 C 
ATOM     39  H   UNL     1      33.725  -3.608 -28.336  0.00  0.00    +0.144 HD
ATOM     40  H   UNL     1      34.743  -4.869 -27.804  0.00  0.00    +0.144 HD
ATOM     41  H   UNL     1      32.170  -2.698 -26.882  0.00  0.00    +0.188 HD
ENDBRANCH  33  38
ENDBRANCH  29  30
ENDBRANCH  24  29
ENDBRANCH  22  24
ENDBRANCH   2  22
TORSDOF 11
ENDMDL
MODEL 7
REMARK VINA RESULT:     -10.7      6.598     14.664
REMARK  Name = 5497056
REMARK  11 active torsions:
REMARK  status: ('A' for Active; 'I' for Inactive)
REMARK    1  A    between atoms: N_2  and  C_22
REMARK    2  A    between atoms: C_3  and  C_5
REMARK    3  A    between atoms: C_8  and  C_11
REMARK    4  A    between atoms: C_13  and  C_17
REMARK    5  A    between atoms: C_17  and  N_18
REMARK    6  A    between atoms: C_22  and  C_24
REMARK    7  A    between atoms: C_24  and  C_26
REMARK    8  A    between atoms: C_24  and  C_29
REMARK    9  A    between atoms: C_26  and  O_27
REMARK   10  A    between atoms: C_29  and  C_30
REMARK   11  A    between atoms: C_33  and  C_38
REMARK                            x       y       z     vdW  Elec       q    Type
REMARK                         _______ _______ _______ _____ _____    ______ ____
ROOT
ATOM      1  O   UNL     1      33.344 -13.725 -24.817  0.00  0.00    -0.270 OA
ATOM      2  N   UNL     1      33.697 -12.576 -22.834  0.00  0.00    -0.302 N 
ATOM      3  C   UNL     1      33.699 -13.703 -23.642  0.00  0.00    +0.246 C 
ATOM      4  H   UNL     1      34.000 -12.662 -21.901  0.00  0.00    +0.150 HD
ENDROOT
BRANCH   3   5
ATOM      5  C   UNL     1      34.145 -14.964 -22.995  0.00  0.00    +0.053 C 
ATOM      6  C   UNL     1      34.138 -15.074 -21.604  0.00  0.00    +0.005 C 
ATOM      7  C   UNL     1      34.571 -16.037 -23.777  0.00  0.00    +0.005 C 
ATOM      8  C   UNL     1      34.982 -17.332 -21.779  0.00  0.00    -0.000 C 
ATOM      9  C   UNL     1      34.558 -16.258 -20.997  0.00  0.00    +0.000 C 
ATOM     10  C   UNL     1      34.989 -17.221 -23.170  0.00  0.00    +0.000 C 
BRANCH   8  11
ATOM     11  C   UNL     1      35.416 -18.559 -21.148  0.00  0.00    -0.000 C 
ATOM     12  C   UNL     1      34.472 -19.471 -20.675  0.00  0.00    -0.006 C 
ATOM     13  C   UNL     1      34.891 -20.654 -20.066  0.00  0.00    -0.044 C 
ATOM     14  C   UNL     1      36.777 -18.830 -21.013  0.00  0.00    -0.000 C 
ATOM     15  C   UNL     1      36.253 -20.925 -19.930  0.00  0.00    -0.006 C 
ATOM     16  C   UNL     1      37.196 -20.013 -20.404  0.00  0.00    -0.000 C 
BRANCH  13  17
ATOM     17  C   UNL     1      33.883 -21.630 -19.561  0.00  0.00    -0.059 C 
BRANCH  17  18
ATOM     18  N   UNL     1      34.498 -22.866 -19.075  0.00  0.00    +0.383 N 
ATOM     19  H   UNL     1      35.282 -22.638 -18.464  0.00  0.00    -0.089 HD
ATOM     20  H   UNL     1      34.832 -23.416 -19.867  0.00  0.00    -0.089 HD
ATOM     21  H   UNL     1      33.807 -23.407 -18.554  0.00  0.00    -0.089 HD
ENDBRANCH  17  18
ENDBRANCH  13  17
ENDBRANCH   8  11
ENDBRANCH   3   5
BRANCH   2  22
ATOM     22  C   UNL     1      33.266 -11.282 -23.309  0.00  0.00    +0.083 C 
ATOM     23  C   UNL     1      34.439 -10.542 -23.950  0.00  0.00    +0.022 C 
BRANCH  22  24
ATOM     24  C   UNL     1      32.573 -10.446 -22.210  0.00  0.00    +0.121 C 
BRANCH  24  26
ATOM     25  O   UNL     1      30.682 -11.860 -21.605  0.00  0.00    -0.250 OA
ATOM     26  C   UNL     1      31.738 -11.327 -21.287  0.00  0.00    +0.319 C 
BRANCH  26  27
ATOM     27  O   UNL     1      32.346 -11.422 -20.069  0.00  0.00    -0.444 OA
ATOM     28  C   UNL     1      31.520 -11.107 -18.943  0.00  0.00    +0.256 C 
ENDBRANCH  26  27
ENDBRANCH  24  26
BRANCH  24  29
ATOM     29  C   UNL     1      31.696  -9.325 -22.803  0.00  0.00    +0.039 C 
BRANCH  29  30
ATOM     30  C   UNL     1      31.894  -7.997 -22.110  0.00  0.00    -0.021 C 
ATOM     31  C   UNL     1      31.422  -6.825 -22.700  0.00  0.00    -0.002 C 
ATOM     32  C   UNL     1      32.550  -7.943 -20.880  0.00  0.00    -0.004 C 
ATOM     33  C   UNL     1      31.606  -5.599 -22.061  0.00  0.00    +0.030 C 
ATOM     34  C   UNL     1      32.735  -6.717 -20.241  0.00  0.00    -0.000 C 
ATOM     35  C   UNL     1      32.263  -5.545 -20.831  0.00  0.00    +0.003 C 
BRANCH  33  38
ATOM     36  N   UNL     1      30.197  -3.554 -22.025  0.00  0.00    -0.343 N 
ATOM     37  N   UNL     1      31.538  -4.029 -23.879  0.00  0.00    -0.285 NA
ATOM     38  C   UNL     1      31.115  -4.376 -22.676  0.00  0.00    +0.117 C 
ATOM     39  H   UNL     1      29.878  -2.731 -22.461  0.00  0.00    +0.144 HD
ATOM     40  H   UNL     1      29.867  -3.797 -21.129  0.00  0.00    +0.144 HD
ATOM     41  H   UNL     1      31.207  -3.202 -24.297  0.00  0.00    +0.188 HD
ENDBRANCH  33  38
ENDBRANCH  29  30
ENDBRANCH  24  29
ENDBRANCH  22  24
ENDBRANCH   2  22
TORSDOF 11
ENDMDL
MODEL 8
REMARK VINA RESULT:     -10.7      1.871      2.452
REMARK  Name = 5497056
REMARK  11 active torsions:
REMARK  status: ('A' for Active; 'I' for Inactive)
REMARK    1  A    between atoms: N_2  and  C_22
REMARK    2  A    between atoms: C_3  and  C_5
REMARK    3  A    between atoms: C_8  and  C_11
REMARK    4  A    between atoms: C_13  and  C_17
REMARK    5  A    between atoms: C_17  and  N_18
REMARK    6  A    between atoms: C_22  and  C_24
REMARK    7  A    between atoms: C_24  and  C_26
REMARK    8  A    between atoms: C_24  and  C_29
REMARK    9  A    between atoms: C_26  and  O_27
REMARK   10  A    between atoms: C_29  and  C_30
REMARK   11  A    between atoms: C_33  and  C_38
REMARK                            x       y       z     vdW  Elec       q    Type
REMARK                         _______ _______ _______ _____ _____    ______ ____
ROOT
ATOM      1  O   UNL     1      34.046 -23.999 -19.090  0.00  0.00    -0.270 OA
ATOM      2  N   UNL     1      33.748 -22.662 -17.219  0.00  0.00    -0.302 N 
ATOM      3  C   UNL     1      33.978 -22.890 -18.568  0.00  0.00    +0.246 C 
ATOM      4  H   UNL     1      33.712 -21.732 -16.896  0.00  0.00    +0.150 HD
ENDROOT
BRANCH   3   5
ATOM      5  C   UNL     1      34.178 -21.680 -19.405  0.00  0.00    +0.053 C 
ATOM      6  C   UNL     1      35.464 -21.310 -19.800  0.00  0.00    +0.005 C 
ATOM      7  C   UNL     1      33.081 -20.914 -19.798  0.00  0.00    +0.005 C 
ATOM      8  C   UNL     1      34.554 -19.407 -20.980  0.00  0.00    -0.000 C 
ATOM      9  C   UNL     1      35.652 -20.173 -20.586  0.00  0.00    +0.000 C 
ATOM     10  C   UNL     1      33.269 -19.778 -20.585  0.00  0.00    +0.000 C 
BRANCH   8  11
ATOM     11  C   UNL     1      34.751 -18.229 -21.797  0.00  0.00    -0.000 C 
ATOM     12  C   UNL     1      34.610 -16.960 -21.237  0.00  0.00    -0.006 C 
ATOM     13  C   UNL     1      34.800 -15.825 -22.025  0.00  0.00    -0.044 C 
ATOM     14  C   UNL     1      35.082 -18.365 -23.145  0.00  0.00    -0.000 C 
ATOM     15  C   UNL     1      35.130 -15.960 -23.374  0.00  0.00    -0.006 C 
ATOM     16  C   UNL     1      35.272 -17.230 -23.934  0.00  0.00    -0.000 C 
BRANCH  13  17
ATOM     17  C   UNL     1      34.650 -14.468 -21.426  0.00  0.00    -0.059 C 
BRANCH  17  18
ATOM     18  N   UNL     1      34.612 -13.412 -22.440  0.00  0.00    +0.383 N 
ATOM     19  H   UNL     1      35.424 -13.498 -23.051  0.00  0.00    -0.089 HD
ATOM     20  H   UNL     1      34.625 -12.500 -21.983  0.00  0.00    -0.089 HD
ATOM     21  H   UNL     1      33.759 -13.503 -22.992  0.00  0.00    -0.089 HD
ENDBRANCH  17  18
ENDBRANCH  13  17
ENDBRANCH   8  11
ENDBRANCH   3   5
BRANCH   2  22
ATOM     22  C   UNL     1      33.560 -23.736 -16.272  0.00  0.00    +0.083 C 
ATOM     23  C   UNL     1      32.157 -23.667 -15.672  0.00  0.00    +0.022 C 
BRANCH  22  24
ATOM     24  C   UNL     1      34.661 -23.772 -15.189  0.00  0.00    +0.121 C 
BRANCH  24  26
ATOM     25  O   UNL     1      35.780 -21.658 -14.720  0.00  0.00    -0.250 OA
ATOM     26  C   UNL     1      35.690 -22.667 -15.407  0.00  0.00    +0.319 C 
BRANCH  26  27
ATOM     27  O   UNL     1      36.480 -22.980 -16.475  0.00  0.00    -0.444 OA
ATOM     28  C   UNL     1      37.655 -22.177 -16.628  0.00  0.00    +0.256 C 
ENDBRANCH  26  27
ENDBRANCH  24  26
BRANCH  24  29
ATOM     29  C   UNL     1      35.366 -25.142 -15.126  0.00  0.00    +0.039 C 
BRANCH  29  30
ATOM     30  C   UNL     1      36.249 -25.291 -13.908  0.00  0.00    -0.021 C 
ATOM     31  C   UNL     1      35.837 -24.773 -12.681  0.00  0.00    -0.002 C 
ATOM     32  C   UNL     1      37.477 -25.944 -14.013  0.00  0.00    -0.004 C 
ATOM     33  C   UNL     1      36.653 -24.909 -11.557  0.00  0.00    +0.030 C 
ATOM     34  C   UNL     1      38.293 -26.080 -12.889  0.00  0.00    -0.000 C 
ATOM     35  C   UNL     1      37.881 -25.563 -11.661  0.00  0.00    +0.003 C 
BRANCH  33  38
ATOM     36  N   UNL     1      36.728 -23.161  -9.794  0.00  0.00    -0.343 N 
ATOM     37  N   UNL     1      35.343 -25.027  -9.546  0.00  0.00    -0.285 NA
ATOM     38  C   UNL     1      36.224 -24.368 -10.277  0.00  0.00    +0.117 C 
ATOM     39  H   UNL     1      36.425 -22.814  -8.925  0.00  0.00    +0.144 HD
ATOM     40  H   UNL     1      37.389 -22.657 -10.323  0.00  0.00    +0.144 HD
ATOM     41  H   UNL     1      35.052 -24.663  -8.679  0.00  0.00    +0.188 HD
ENDBRANCH  33  38
ENDBRANCH  29  30
ENDBRANCH  24  29
ENDBRANCH  22  24
ENDBRANCH   2  22
TORSDOF 11
ENDMDL
MODEL 9
REMARK VINA RESULT:     -10.4      1.779      2.717
REMARK  Name = 5497056
REMARK  11 active torsions:
REMARK  status: ('A' for Active; 'I' for Inactive)
REMARK    1  A    between atoms: N_2  and  C_22
REMARK    2  A    between atoms: C_3  and  C_5
REMARK    3  A    between atoms: C_8  and  C_11
REMARK    4  A    between atoms: C_13  and  C_17
REMARK    5  A    between atoms: C_17  and  N_18
REMARK    6  A    between atoms: C_22  and  C_24
REMARK    7  A    between atoms: C_24  and  C_26
REMARK    8  A    between atoms: C_24  and  C_29
REMARK    9  A    between atoms: C_26  and  O_27
REMARK   10  A    between atoms: C_29  and  C_30
REMARK   11  A    between atoms: C_33  and  C_38
REMARK                            x       y       z     vdW  Elec       q    Type
REMARK                         _______ _______ _______ _____ _____    ______ ____
ROOT
ATOM      1  O   UNL     1      33.810 -24.202 -18.182  0.00  0.00    -0.270 OA
ATOM      2  N   UNL     1      32.342 -22.811 -17.047  0.00  0.00    -0.302 N 
ATOM      3  C   UNL     1      33.274 -23.108 -18.031  0.00  0.00    +0.246 C 
ATOM      4  H   UNL     1      31.969 -21.900 -17.008  0.00  0.00    +0.150 HD
ENDROOT
BRANCH   3   5
ATOM      5  C   UNL     1      33.645 -21.988 -18.932  0.00  0.00    +0.053 C 
ATOM      6  C   UNL     1      34.982 -21.775 -19.267  0.00  0.00    +0.005 C 
ATOM      7  C   UNL     1      32.656 -21.148 -19.446  0.00  0.00    +0.005 C 
ATOM      8  C   UNL     1      34.342 -19.884 -20.627  0.00  0.00    -0.000 C 
ATOM      9  C   UNL     1      35.331 -20.723 -20.114  0.00  0.00    +0.000 C 
ATOM     10  C   UNL     1      33.004 -20.097 -20.293  0.00  0.00    +0.000 C 
BRANCH   8  11
ATOM     11  C   UNL     1      34.705 -18.793 -21.507  0.00  0.00    -0.000 C 
ATOM     12  C   UNL     1      34.549 -17.474 -21.083  0.00  0.00    -0.006 C 
ATOM     13  C   UNL     1      34.899 -16.424 -21.932  0.00  0.00    -0.044 C 
ATOM     14  C   UNL     1      35.211 -19.064 -22.778  0.00  0.00    -0.000 C 
ATOM     15  C   UNL     1      35.405 -16.694 -23.204  0.00  0.00    -0.006 C 
ATOM     16  C   UNL     1      35.561 -18.013 -23.627  0.00  0.00    -0.000 C 
BRANCH  13  17
ATOM     17  C   UNL     1      34.734 -15.012 -21.479  0.00  0.00    -0.059 C 
BRANCH  17  18
ATOM     18  N   UNL     1      34.003 -14.914 -20.214  0.00  0.00    +0.383 N 
ATOM     19  H   UNL     1      34.338 -15.632 -19.572  0.00  0.00    -0.089 HD
ATOM     20  H   UNL     1      33.007 -15.048 -20.385  0.00  0.00    -0.089 HD
ATOM     21  H   UNL     1      34.157 -13.992 -19.805  0.00  0.00    -0.089 HD
ENDBRANCH  17  18
ENDBRANCH  13  17
ENDBRANCH   8  11
ENDBRANCH   3   5
BRANCH   2  22
ATOM     22  C   UNL     1      31.899 -23.786 -16.079  0.00  0.00    +0.083 C 
ATOM     23  C   UNL     1      30.391 -23.669 -15.868  0.00  0.00    +0.022 C 
BRANCH  22  24
ATOM     24  C   UNL     1      32.686 -23.706 -14.752  0.00  0.00    +0.121 C 
BRANCH  24  26
ATOM     25  O   UNL     1      31.548 -21.841 -13.672  0.00  0.00    -0.250 OA
ATOM     26  C   UNL     1      31.867 -23.023 -13.662  0.00  0.00    +0.319 C 
BRANCH  26  27
ATOM     27  O   UNL     1      31.554 -23.927 -12.688  0.00  0.00    -0.444 OA
ATOM     28  C   UNL     1      31.776 -25.299 -13.029  0.00  0.00    +0.256 C 
ENDBRANCH  26  27
ENDBRANCH  24  26
BRANCH  24  29
ATOM     29  C   UNL     1      34.038 -22.983 -14.924  0.00  0.00    +0.039 C 
BRANCH  29  30
ATOM     30  C   UNL     1      35.187 -23.731 -14.288  0.00  0.00    -0.021 C 
ATOM     31  C   UNL     1      35.667 -24.901 -14.875  0.00  0.00    -0.002 C 
ATOM     32  C   UNL     1      35.766 -23.251 -13.114  0.00  0.00    -0.004 C 
ATOM     33  C   UNL     1      36.727 -25.592 -14.287  0.00  0.00    +0.030 C 
ATOM     34  C   UNL     1      36.826 -23.942 -12.525  0.00  0.00    -0.000 C 
ATOM     35  C   UNL     1      37.307 -25.113 -13.111  0.00  0.00    +0.003 C 
BRANCH  33  38
ATOM     36  N   UNL     1      36.585 -27.395 -15.989  0.00  0.00    -0.343 N 
ATOM     37  N   UNL     1      38.310 -27.396 -14.413  0.00  0.00    -0.285 NA
ATOM     38  C   UNL     1      37.227 -26.813 -14.897  0.00  0.00    +0.117 C 
ATOM     39  H   UNL     1      36.940 -28.222 -16.387  0.00  0.00    +0.144 HD
ATOM     40  H   UNL     1      35.774 -26.978 -16.363  0.00  0.00    +0.144 HD
ATOM     41  H   UNL     1      38.650 -28.222 -14.825  0.00  0.00    +0.188 HD
ENDBRANCH  33  38
ENDBRANCH  29  30
ENDBRANCH  24  29
ENDBRANCH  22  24
ENDBRANCH   2  22
TORSDOF 11
ENDMDL
