MODEL 1
REMARK VINA RESULT:     -11.3      0.000      0.000
REMARK  Name = 449162
REMARK  12 active torsions:
REMARK  status: ('A' for Active; 'I' for Inactive)
REMARK    1  A    between atoms: C_1  and  C_9
REMARK    2  A    between atoms: C_3  and  C_19
REMARK    3  A    between atoms: C_10  and  C_16
REMARK    4  A    between atoms: C_11  and  C_13
REMARK    5  A    between atoms: C_13  and  O_14
REMARK    6  A    between atoms: C_16  and  O_17
REMARK    7  A    between atoms: C_20  and  C_21
REMARK    8  A    between atoms: C_21  and  O_22
REMARK    9  A    between atoms: O_22  and  C_23
REMARK   10  A    between atoms: C_24  and  C_32
REMARK   11  A    between atoms: C_25  and  O_29
REMARK   12  A    between atoms: C_32  and  O_33
REMARK                            x       y       z     vdW  Elec       q    Type
REMARK                         _______ _______ _______ _____ _____    ______ ____
ROOT
ATOM      1  C   UNL     1      34.576 -20.264 -20.685  0.00  0.00    +0.037 C 
ATOM      2  C   UNL     1      35.687 -20.623 -19.922  0.00  0.00    +0.003 C 
ATOM      3  C   UNL     1      35.535 -21.469 -18.823  0.00  0.00    -0.000 C 
ATOM      4  C   UNL     1      33.313 -20.750 -20.349  0.00  0.00    +0.003 C 
ATOM      5  C   UNL     1      34.272 -21.956 -18.487  0.00  0.00    -0.000 C 
ATOM      6  C   UNL     1      33.161 -21.596 -19.249  0.00  0.00    +0.000 C 
ENDROOT
BRANCH   1   9
ATOM      7  O   UNL     1      34.599 -19.987 -23.030  0.00  0.00    -0.353 OA
ATOM      8  N   UNL     1      34.772 -19.035 -24.026  0.00  0.00    -0.071 NA
ATOM      9  C   UNL     1      34.732 -19.389 -21.821  0.00  0.00    +0.175 A 
ATOM     10  C   UNL     1      34.989 -18.059 -21.980  0.00  0.00    +0.071 A 
ATOM     11  C   UNL     1      35.004 -17.891 -23.375  0.00  0.00    +0.196 A 
BRANCH  11  13
ATOM     12  O   UNL     1      34.988 -16.534 -25.325  0.00  0.00    -0.243 OA
ATOM     13  C   UNL     1      35.229 -16.684 -24.118  0.00  0.00    +0.359 C 
BRANCH  13  14
ATOM     14  O   UNL     1      35.754 -15.645 -23.390  0.00  0.00    -0.476 OA
ATOM     15  H   UNL     1      35.991 -14.846 -23.819  0.00  0.00    +0.295 HD
ENDBRANCH  13  14
ENDBRANCH  11  13
BRANCH  10  16
ATOM     16  C   UNL     1      35.203 -17.042 -20.937  0.00  0.00    +0.169 C 
BRANCH  16  17
ATOM     17  O   UNL     1      34.216 -16.005 -20.969  0.00  0.00    -0.377 OA
ATOM     18  H   UNL     1      33.361 -16.364 -20.683  0.00  0.00    +0.211 HD
ENDBRANCH  16  17
ENDBRANCH  10  16
ENDBRANCH   1   9
BRANCH   3  19
ATOM     19  C   UNL     1      36.695 -21.843 -18.028  0.00  0.00    -0.001 C 
ATOM     20  C   UNL     1      36.683 -22.181 -16.719  0.00  0.00    +0.021 C 
BRANCH  20  21
ATOM     21  C   UNL     1      37.901 -22.574 -15.947  0.00  0.00    +0.232 C 
BRANCH  21  22
ATOM     22  O   UNL     1      37.751 -23.918 -15.509  0.00  0.00    -0.470 OA
BRANCH  22  23
ATOM     23  C   UNL     1      37.386 -24.104 -14.202  0.00  0.00    +0.148 C 
ATOM     24  C   UNL     1      37.399 -25.375 -13.636  0.00  0.00    +0.143 C 
ATOM     25  C   UNL     1      37.022 -25.542 -12.302  0.00  0.00    +0.143 C 
ATOM     26  C   UNL     1      37.000 -22.999 -13.450  0.00  0.00    +0.037 C 
ATOM     27  C   UNL     1      36.635 -24.438 -11.544  0.00  0.00    +0.037 C 
ATOM     28  C   UNL     1      36.624 -23.167 -12.117  0.00  0.00    +0.006 C 
BRANCH  25  29
ATOM     29  O   UNL     1      37.027 -26.775 -11.722  0.00  0.00    -0.505 OA
ATOM     30  H   UNL     1      37.490 -27.482 -12.128  0.00  0.00    +0.292 HD
ENDBRANCH  25  29
BRANCH  24  32
ATOM     31  O   UNL     1      37.121 -27.031 -15.328  0.00  0.00    -0.245 OA
ATOM     32  C   UNL     1      37.804 -26.529 -14.430  0.00  0.00    +0.347 C 
BRANCH  32  33
ATOM     33  O   UNL     1      39.037 -26.985 -14.053  0.00  0.00    -0.441 OA
ATOM     34  C   UNL     1      40.154 -26.145 -14.361  0.00  0.00    +0.256 C 
ENDBRANCH  32  33
ENDBRANCH  24  32
ENDBRANCH  22  23
ENDBRANCH  21  22
ENDBRANCH  20  21
ENDBRANCH   3  19
TORSDOF 12
ENDMDL
MODEL 2
REMARK VINA RESULT:     -11.2      2.575      3.749
REMARK  Name = 449162
REMARK  12 active torsions:
REMARK  status: ('A' for Active; 'I' for Inactive)
REMARK    1  A    between atoms: C_1  and  C_9
REMARK    2  A    between atoms: C_3  and  C_19
REMARK    3  A    between atoms: C_10  and  C_16
REMARK    4  A    between atoms: C_11  and  C_13
REMARK    5  A    between atoms: C_13  and  O_14
REMARK    6  A    between atoms: C_16  and  O_17
REMARK    7  A    between atoms: C_20  and  C_21
REMARK    8  A    between atoms: C_21  and  O_22
REMARK    9  A    between atoms: O_22  and  C_23
REMARK   10  A    between atoms: C_24  and  C_32
REMARK   11  A    between atoms: C_25  and  O_29
REMARK   12  A    between atoms: C_32  and  O_33
REMARK                            x       y       z     vdW  Elec       q    Type
REMARK                         _______ _______ _______ _____ _____    ______ ____
ROOT
ATOM      1  C   UNL     1      35.485 -18.181 -22.256  0.00  0.00    +0.037 C 
ATOM      2  C   UNL     1      34.597 -19.005 -21.565  0.00  0.00    +0.003 C 
ATOM      3  C   UNL     1      35.079 -19.920 -20.629  0.00  0.00    -0.000 C 
ATOM      4  C   UNL     1      36.855 -18.270 -22.009  0.00  0.00    +0.003 C 
ATOM      5  C   UNL     1      36.449 -20.010 -20.382  0.00  0.00    -0.000 C 
ATOM      6  C   UNL     1      37.336 -19.185 -21.072  0.00  0.00    +0.000 C 
ENDROOT
BRANCH   1   9
ATOM      7  O   UNL     1      35.032 -17.653 -24.513  0.00  0.00    -0.353 OA
ATOM      8  N   UNL     1      34.528 -16.651 -25.331  0.00  0.00    -0.071 NA
ATOM      9  C   UNL     1      34.988 -17.235 -23.225  0.00  0.00    +0.175 A 
ATOM     10  C   UNL     1      34.467 -15.976 -23.157  0.00  0.00    +0.071 A 
ATOM     11  C   UNL     1      34.196 -15.659 -24.499  0.00  0.00    +0.196 A 
BRANCH  11  13
ATOM     12  O   UNL     1      33.966 -13.302 -24.690  0.00  0.00    -0.243 OA
ATOM     13  C   UNL     1      33.634 -14.448 -25.026  0.00  0.00    +0.359 C 
BRANCH  13  14
ATOM     14  O   UNL     1      32.654 -14.628 -25.971  0.00  0.00    -0.476 OA
ATOM     15  H   UNL     1      32.528 -13.986 -26.641  0.00  0.00    +0.295 HD
ENDBRANCH  13  14
ENDBRANCH  11  13
BRANCH  10  16
ATOM     16  C   UNL     1      34.242 -15.147 -21.961  0.00  0.00    +0.169 C 
BRANCH  16  17
ATOM     17  O   UNL     1      34.938 -13.896 -22.020  0.00  0.00    -0.377 OA
ATOM     18  H   UNL     1      35.451 -13.772 -21.206  0.00  0.00    +0.211 HD
ENDBRANCH  16  17
ENDBRANCH  10  16
ENDBRANCH   1   9
BRANCH   3  19
ATOM     19  C   UNL     1      34.152 -20.779 -19.909  0.00  0.00    -0.001 C 
ATOM     20  C   UNL     1      34.489 -21.729 -19.007  0.00  0.00    +0.021 C 
BRANCH  20  21
ATOM     21  C   UNL     1      33.497 -22.579 -18.280  0.00  0.00    +0.232 C 
BRANCH  21  22
ATOM     22  O   UNL     1      34.159 -23.242 -17.212  0.00  0.00    -0.470 OA
BRANCH  22  23
ATOM     23  C   UNL     1      33.449 -23.406 -16.051  0.00  0.00    +0.148 C 
ATOM     24  C   UNL     1      34.050 -23.954 -14.923  0.00  0.00    +0.143 C 
ATOM     25  C   UNL     1      33.307 -24.112 -13.752  0.00  0.00    +0.143 C 
ATOM     26  C   UNL     1      32.115 -23.013 -16.021  0.00  0.00    +0.037 C 
ATOM     27  C   UNL     1      31.969 -23.721 -13.716  0.00  0.00    +0.037 C 
ATOM     28  C   UNL     1      31.373 -23.171 -14.851  0.00  0.00    +0.006 C 
BRANCH  25  29
ATOM     29  O   UNL     1      33.871 -24.646 -12.632  0.00  0.00    -0.505 OA
ATOM     30  H   UNL     1      33.439 -25.341 -12.175  0.00  0.00    +0.292 HD
ENDBRANCH  25  29
BRANCH  24  32
ATOM     31  O   UNL     1      36.404 -23.581 -14.950  0.00  0.00    -0.245 OA
ATOM     32  C   UNL     1      35.449 -24.364 -14.961  0.00  0.00    +0.347 C 
BRANCH  32  33
ATOM     33  O   UNL     1      35.569 -25.725 -15.009  0.00  0.00    -0.441 OA
ATOM     34  C   UNL     1      36.791 -26.281 -14.512  0.00  0.00    +0.256 C 
ENDBRANCH  32  33
ENDBRANCH  24  32
ENDBRANCH  22  23
ENDBRANCH  21  22
ENDBRANCH  20  21
ENDBRANCH   3  19
TORSDOF 12
ENDMDL
MODEL 3
REMARK VINA RESULT:     -11.0      1.203      2.192
REMARK  Name = 449162
REMARK  12 active torsions:
REMARK  status: ('A' for Active; 'I' for Inactive)
REMARK    1  A    between atoms: C_1  and  C_9
REMARK    2  A    between atoms: C_3  and  C_19
REMARK    3  A    between atoms: C_10  and  C_16
REMARK    4  A    between atoms: C_11  and  C_13
REMARK    5  A    between atoms: C_13  and  O_14
REMARK    6  A    between atoms: C_16  and  O_17
REMARK    7  A    between atoms: C_20  and  C_21
REMARK    8  A    between atoms: C_21  and  O_22
REMARK    9  A    between atoms: O_22  and  C_23
REMARK   10  A    between atoms: C_24  and  C_32
REMARK   11  A    between atoms: C_25  and  O_29
REMARK   12  A    between atoms: C_32  and  O_33
REMARK                            x       y       z     vdW  Elec       q    Type
REMARK                         _______ _______ _______ _____ _____    ______ ____
ROOT
ATOM      1  C   UNL     1      34.544 -20.119 -20.819  0.00  0.00    +0.037 C 
ATOM      2  C   UNL     1      35.667 -20.561 -20.120  0.00  0.00    +0.003 C 
ATOM      3  C   UNL     1      35.517 -21.409 -19.024  0.00  0.00    -0.000 C 
ATOM      4  C   UNL     1      33.270 -20.526 -20.422  0.00  0.00    +0.003 C 
ATOM      5  C   UNL     1      34.243 -21.817 -18.626  0.00  0.00    -0.000 C 
ATOM      6  C   UNL     1      33.120 -21.375 -19.325  0.00  0.00    +0.000 C 
ENDROOT
BRANCH   1   9
ATOM      7  O   UNL     1      34.559 -19.835 -23.164  0.00  0.00    -0.353 OA
ATOM      8  N   UNL     1      34.731 -18.880 -24.158  0.00  0.00    -0.071 NA
ATOM      9  C   UNL     1      34.697 -19.241 -21.954  0.00  0.00    +0.175 A 
ATOM     10  C   UNL     1      34.957 -17.911 -22.109  0.00  0.00    +0.071 A 
ATOM     11  C   UNL     1      34.968 -17.738 -23.504  0.00  0.00    +0.196 A 
BRANCH  11  13
ATOM     12  O   UNL     1      34.992 -16.389 -25.459  0.00  0.00    -0.243 OA
ATOM     13  C   UNL     1      35.193 -16.530 -24.244  0.00  0.00    +0.359 C 
BRANCH  13  14
ATOM     14  O   UNL     1      35.669 -15.476 -23.502  0.00  0.00    -0.476 OA
ATOM     15  H   UNL     1      36.459 -15.571 -23.009  0.00  0.00    +0.295 HD
ENDBRANCH  13  14
ENDBRANCH  11  13
BRANCH  10  16
ATOM     16  C   UNL     1      35.177 -16.897 -21.063  0.00  0.00    +0.169 C 
BRANCH  16  17
ATOM     17  O   UNL     1      34.108 -15.949 -20.984  0.00  0.00    -0.377 OA
ATOM     18  H   UNL     1      33.299 -16.396 -20.687  0.00  0.00    +0.211 HD
ENDBRANCH  16  17
ENDBRANCH  10  16
ENDBRANCH   1   9
BRANCH   3  19
ATOM     19  C   UNL     1      36.689 -21.869 -18.295  0.00  0.00    -0.001 C 
ATOM     20  C   UNL     1      36.811 -21.935 -16.950  0.00  0.00    +0.021 C 
BRANCH  20  21
ATOM     21  C   UNL     1      38.032 -22.431 -16.246  0.00  0.00    +0.232 C 
BRANCH  21  22
ATOM     22  O   UNL     1      37.683 -22.781 -14.914  0.00  0.00    -0.470 OA
BRANCH  22  23
ATOM     23  C   UNL     1      38.071 -24.021 -14.478  0.00  0.00    +0.148 C 
ATOM     24  C   UNL     1      37.247 -24.770 -13.645  0.00  0.00    +0.143 C 
ATOM     25  C   UNL     1      37.663 -26.030 -13.213  0.00  0.00    +0.143 C 
ATOM     26  C   UNL     1      39.306 -24.517 -14.884  0.00  0.00    +0.037 C 
ATOM     27  C   UNL     1      38.899 -26.533 -13.616  0.00  0.00    +0.037 C 
ATOM     28  C   UNL     1      39.721 -25.776 -14.451  0.00  0.00    +0.006 C 
BRANCH  25  29
ATOM     29  O   UNL     1      36.875 -26.786 -12.397  0.00  0.00    -0.505 OA
ATOM     30  H   UNL     1      36.924 -27.722 -12.433  0.00  0.00    +0.292 HD
ENDBRANCH  25  29
BRANCH  24  32
ATOM     31  O   UNL     1      35.772 -23.579 -12.198  0.00  0.00    -0.245 OA
ATOM     32  C   UNL     1      35.953 -24.244 -13.224  0.00  0.00    +0.347 C 
BRANCH  32  33
ATOM     33  O   UNL     1      34.966 -24.581 -14.108  0.00  0.00    -0.441 OA
ATOM     34  C   UNL     1      34.246 -23.500 -14.708  0.00  0.00    +0.256 C 
ENDBRANCH  32  33
ENDBRANCH  24  32
ENDBRANCH  22  23
ENDBRANCH  21  22
ENDBRANCH  20  21
ENDBRANCH   3  19
TORSDOF 12
ENDMDL
MODEL 4
REMARK VINA RESULT:     -10.9      3.511     11.181
REMARK  Name = 449162
REMARK  12 active torsions:
REMARK  status: ('A' for Active; 'I' for Inactive)
REMARK    1  A    between atoms: C_1  and  C_9
REMARK    2  A    between atoms: C_3  and  C_19
REMARK    3  A    between atoms: C_10  and  C_16
REMARK    4  A    between atoms: C_11  and  C_13
REMARK    5  A    between atoms: C_13  and  O_14
REMARK    6  A    between atoms: C_16  and  O_17
REMARK    7  A    between atoms: C_20  and  C_21
REMARK    8  A    between atoms: C_21  and  O_22
REMARK    9  A    between atoms: O_22  and  C_23
REMARK   10  A    between atoms: C_24  and  C_32
REMARK   11  A    between atoms: C_25  and  O_29
REMARK   12  A    between atoms: C_32  and  O_33
REMARK                            x       y       z     vdW  Elec       q    Type
REMARK                         _______ _______ _______ _____ _____    ______ ____
ROOT
ATOM      1  C   UNL     1      34.216 -22.074 -18.057  0.00  0.00    +0.037 C 
ATOM      2  C   UNL     1      33.904 -21.327 -19.193  0.00  0.00    +0.003 C 
ATOM      3  C   UNL     1      34.925 -20.821 -19.997  0.00  0.00    -0.000 C 
ATOM      4  C   UNL     1      35.549 -22.316 -17.726  0.00  0.00    +0.003 C 
ATOM      5  C   UNL     1      36.259 -21.061 -19.666  0.00  0.00    -0.000 C 
ATOM      6  C   UNL     1      36.570 -21.808 -18.530  0.00  0.00    +0.000 C 
ENDROOT
BRANCH   1   9
ATOM      7  O   UNL     1      31.904 -22.304 -17.635  0.00  0.00    -0.353 OA
ATOM      8  N   UNL     1      30.995 -22.867 -16.747  0.00  0.00    -0.071 NA
ATOM      9  C   UNL     1      33.161 -22.599 -17.225  0.00  0.00    +0.175 A 
ATOM     10  C   UNL     1      33.121 -23.346 -16.084  0.00  0.00    +0.071 A 
ATOM     11  C   UNL     1      31.745 -23.484 -15.830  0.00  0.00    +0.196 A 
BRANCH  11  13
ATOM     12  O   UNL     1      30.454 -25.226 -14.859  0.00  0.00    -0.243 OA
ATOM     13  C   UNL     1      31.112 -24.182 -14.747  0.00  0.00    +0.359 C 
BRANCH  13  14
ATOM     14  O   UNL     1      31.279 -23.607 -13.511  0.00  0.00    -0.476 OA
ATOM     15  H   UNL     1      31.178 -22.682 -13.408  0.00  0.00    +0.295 HD
ENDBRANCH  13  14
ENDBRANCH  11  13
BRANCH  10  16
ATOM     16  C   UNL     1      34.251 -23.879 -15.304  0.00  0.00    +0.169 C 
BRANCH  16  17
ATOM     17  O   UNL     1      34.361 -23.273 -14.011  0.00  0.00    -0.377 OA
ATOM     18  H   UNL     1      34.673 -22.359 -14.108  0.00  0.00    +0.211 HD
ENDBRANCH  16  17
ENDBRANCH  10  16
ENDBRANCH   1   9
BRANCH   3  19
ATOM     19  C   UNL     1      34.599 -20.041 -21.181  0.00  0.00    -0.001 C 
ATOM     20  C   UNL     1      35.404 -19.135 -21.781  0.00  0.00    +0.021 C 
BRANCH  20  21
ATOM     21  C   UNL     1      35.029 -18.369 -23.008  0.00  0.00    +0.232 C 
BRANCH  21  22
ATOM     22  O   UNL     1      35.383 -17.005 -22.822  0.00  0.00    -0.470 OA
BRANCH  22  23
ATOM     23  C   UNL     1      34.680 -16.080 -23.548  0.00  0.00    +0.148 C 
ATOM     24  C   UNL     1      34.107 -14.976 -22.925  0.00  0.00    +0.143 C 
ATOM     25  C   UNL     1      33.396 -14.046 -23.684  0.00  0.00    +0.143 C 
ATOM     26  C   UNL     1      34.550 -16.264 -24.921  0.00  0.00    +0.037 C 
ATOM     27  C   UNL     1      33.262 -14.225 -25.061  0.00  0.00    +0.037 C 
ATOM     28  C   UNL     1      33.839 -15.334 -25.678  0.00  0.00    +0.006 C 
BRANCH  25  29
ATOM     29  O   UNL     1      32.825 -12.954 -23.100  0.00  0.00    -0.505 OA
ATOM     30  H   UNL     1      33.342 -12.386 -22.564  0.00  0.00    +0.292 HD
ENDBRANCH  25  29
BRANCH  24  32
ATOM     31  O   UNL     1      35.004 -13.964 -20.961  0.00  0.00    -0.245 OA
ATOM     32  C   UNL     1      34.248 -14.788 -21.485  0.00  0.00    +0.347 C 
BRANCH  32  33
ATOM     33  O   UNL     1      33.435 -15.640 -20.790  0.00  0.00    -0.441 OA
ATOM     34  C   UNL     1      32.444 -15.040 -19.949  0.00  0.00    +0.256 C 
ENDBRANCH  32  33
ENDBRANCH  24  32
ENDBRANCH  22  23
ENDBRANCH  21  22
ENDBRANCH  20  21
ENDBRANCH   3  19
TORSDOF 12
ENDMDL
MODEL 5
REMARK VINA RESULT:     -10.8      2.839      4.176
REMARK  Name = 449162
REMARK  12 active torsions:
REMARK  status: ('A' for Active; 'I' for Inactive)
REMARK    1  A    between atoms: C_1  and  C_9
REMARK    2  A    between atoms: C_3  and  C_19
REMARK    3  A    between atoms: C_10  and  C_16
REMARK    4  A    between atoms: C_11  and  C_13
REMARK    5  A    between atoms: C_13  and  O_14
REMARK    6  A    between atoms: C_16  and  O_17
REMARK    7  A    between atoms: C_20  and  C_21
REMARK    8  A    between atoms: C_21  and  O_22
REMARK    9  A    between atoms: O_22  and  C_23
REMARK   10  A    between atoms: C_24  and  C_32
REMARK   11  A    between atoms: C_25  and  O_29
REMARK   12  A    between atoms: C_32  and  O_33
REMARK                            x       y       z     vdW  Elec       q    Type
REMARK                         _______ _______ _______ _____ _____    ______ ____
ROOT
ATOM      1  C   UNL     1      35.473 -17.848 -21.665  0.00  0.00    +0.037 C 
ATOM      2  C   UNL     1      34.641 -18.761 -21.016  0.00  0.00    +0.003 C 
ATOM      3  C   UNL     1      35.175 -19.931 -20.478  0.00  0.00    -0.000 C 
ATOM      4  C   UNL     1      36.840 -18.106 -21.774  0.00  0.00    +0.003 C 
ATOM      5  C   UNL     1      36.542 -20.189 -20.587  0.00  0.00    -0.000 C 
ATOM      6  C   UNL     1      37.373 -19.277 -21.235  0.00  0.00    +0.000 C 
ENDROOT
BRANCH   1   9
ATOM      7  O   UNL     1      34.638 -15.666 -21.322  0.00  0.00    -0.353 OA
ATOM      8  N   UNL     1      34.118 -14.566 -21.992  0.00  0.00    -0.071 NA
ATOM      9  C   UNL     1      34.922 -16.637 -22.223  0.00  0.00    +0.175 A 
ATOM     10  C   UNL     1      34.606 -16.218 -23.482  0.00  0.00    +0.071 A 
ATOM     11  C   UNL     1      34.109 -14.919 -23.281  0.00  0.00    +0.196 A 
BRANCH  11  13
ATOM     12  O   UNL     1      33.931 -12.797 -24.334  0.00  0.00    -0.243 OA
ATOM     13  C   UNL     1      33.624 -13.996 -24.267  0.00  0.00    +0.359 C 
BRANCH  13  14
ATOM     14  O   UNL     1      32.754 -14.532 -25.184  0.00  0.00    -0.476 OA
ATOM     15  H   UNL     1      31.965 -14.946 -24.895  0.00  0.00    +0.295 HD
ENDBRANCH  13  14
ENDBRANCH  11  13
BRANCH  10  16
ATOM     16  C   UNL     1      34.751 -16.953 -24.750  0.00  0.00    +0.169 C 
BRANCH  16  17
ATOM     17  O   UNL     1      35.042 -16.091 -25.855  0.00  0.00    -0.377 OA
ATOM     18  H   UNL     1      34.575 -15.248 -25.740  0.00  0.00    +0.211 HD
ENDBRANCH  16  17
ENDBRANCH  10  16
ENDBRANCH   1   9
BRANCH   3  19
ATOM     19  C   UNL     1      34.306 -20.882 -19.802  0.00  0.00    -0.001 C 
ATOM     20  C   UNL     1      34.699 -21.817 -18.907  0.00  0.00    +0.021 C 
BRANCH  20  21
ATOM     21  C   UNL     1      33.765 -22.764 -18.225  0.00  0.00    +0.232 C 
BRANCH  21  22
ATOM     22  O   UNL     1      34.174 -22.916 -16.873  0.00  0.00    -0.470 OA
BRANCH  22  23
ATOM     23  C   UNL     1      33.219 -23.330 -15.981  0.00  0.00    +0.148 C 
ATOM     24  C   UNL     1      33.581 -23.975 -14.803  0.00  0.00    +0.143 C 
ATOM     25  C   UNL     1      32.592 -24.388 -13.909  0.00  0.00    +0.143 C 
ATOM     26  C   UNL     1      31.880 -23.093 -16.275  0.00  0.00    +0.037 C 
ATOM     27  C   UNL     1      31.248 -24.154 -14.199  0.00  0.00    +0.037 C 
ATOM     28  C   UNL     1      30.892 -23.507 -15.382  0.00  0.00    +0.006 C 
BRANCH  25  29
ATOM     29  O   UNL     1      32.918 -25.021 -12.747  0.00  0.00    -0.505 OA
ATOM     30  H   UNL     1      33.268 -25.890 -12.769  0.00  0.00    +0.292 HD
ENDBRANCH  25  29
BRANCH  24  32
ATOM     31  O   UNL     1      35.759 -23.370 -14.044  0.00  0.00    -0.245 OA
ATOM     32  C   UNL     1      34.986 -24.220 -14.500  0.00  0.00    +0.347 C 
BRANCH  32  33
ATOM     33  O   UNL     1      35.340 -25.509 -14.784  0.00  0.00    -0.441 OA
ATOM     34  C   UNL     1      36.727 -25.839 -14.654  0.00  0.00    +0.256 C 
ENDBRANCH  32  33
ENDBRANCH  24  32
ENDBRANCH  22  23
ENDBRANCH  21  22
ENDBRANCH  20  21
ENDBRANCH   3  19
TORSDOF 12
ENDMDL
MODEL 6
REMARK VINA RESULT:     -10.7      3.544     11.151
REMARK  Name = 449162
REMARK  12 active torsions:
REMARK  status: ('A' for Active; 'I' for Inactive)
REMARK    1  A    between atoms: C_1  and  C_9
REMARK    2  A    between atoms: C_3  and  C_19
REMARK    3  A    between atoms: C_10  and  C_16
REMARK    4  A    between atoms: C_11  and  C_13
REMARK    5  A    between atoms: C_13  and  O_14
REMARK    6  A    between atoms: C_16  and  O_17
REMARK    7  A    between atoms: C_20  and  C_21
REMARK    8  A    between atoms: C_21  and  O_22
REMARK    9  A    between atoms: O_22  and  C_23
REMARK   10  A    between atoms: C_24  and  C_32
REMARK   11  A    between atoms: C_25  and  O_29
REMARK   12  A    between atoms: C_32  and  O_33
REMARK                            x       y       z     vdW  Elec       q    Type
REMARK                         _______ _______ _______ _____ _____    ______ ____
ROOT
ATOM      1  C   UNL     1      33.995 -22.134 -17.991  0.00  0.00    +0.037 C 
ATOM      2  C   UNL     1      33.637 -21.402 -19.123  0.00  0.00    +0.003 C 
ATOM      3  C   UNL     1      34.624 -20.892 -19.965  0.00  0.00    -0.000 C 
ATOM      4  C   UNL     1      35.342 -22.356 -17.701  0.00  0.00    +0.003 C 
ATOM      5  C   UNL     1      35.971 -21.113 -19.676  0.00  0.00    -0.000 C 
ATOM      6  C   UNL     1      36.329 -21.845 -18.544  0.00  0.00    +0.000 C 
ENDROOT
BRANCH   1   9
ATOM      7  O   UNL     1      31.701 -22.412 -17.505  0.00  0.00    -0.353 OA
ATOM      8  N   UNL     1      30.830 -22.973 -16.580  0.00  0.00    -0.071 NA
ATOM      9  C   UNL     1      32.975 -22.663 -17.118  0.00  0.00    +0.175 A 
ATOM     10  C   UNL     1      32.983 -23.379 -15.958  0.00  0.00    +0.071 A 
ATOM     11  C   UNL     1      31.618 -23.546 -15.665  0.00  0.00    +0.196 A 
BRANCH  11  13
ATOM     12  O   UNL     1      31.110 -23.865 -13.367  0.00  0.00    -0.243 OA
ATOM     13  C   UNL     1      31.030 -24.230 -14.549  0.00  0.00    +0.359 C 
BRANCH  13  14
ATOM     14  O   UNL     1      30.336 -25.371 -14.868  0.00  0.00    -0.476 OA
ATOM     15  H   UNL     1      29.497 -25.531 -14.484  0.00  0.00    +0.295 HD
ENDBRANCH  13  14
ENDBRANCH  11  13
BRANCH  10  16
ATOM     16  C   UNL     1      34.145 -23.861 -15.192  0.00  0.00    +0.169 C 
BRANCH  16  17
ATOM     17  O   UNL     1      34.189 -23.327 -13.864  0.00  0.00    -0.377 OA
ATOM     18  H   UNL     1      33.955 -22.386 -13.886  0.00  0.00    +0.211 HD
ENDBRANCH  16  17
ENDBRANCH  10  16
ENDBRANCH   1   9
BRANCH   3  19
ATOM     19  C   UNL     1      34.249 -20.128 -21.145  0.00  0.00    -0.001 C 
ATOM     20  C   UNL     1      35.099 -19.646 -22.080  0.00  0.00    +0.021 C 
BRANCH  20  21
ATOM     21  C   UNL     1      34.664 -18.878 -23.286  0.00  0.00    +0.232 C 
BRANCH  21  22
ATOM     22  O   UNL     1      35.400 -17.664 -23.347  0.00  0.00    -0.470 OA
BRANCH  22  23
ATOM     23  C   UNL     1      34.874 -16.588 -22.683  0.00  0.00    +0.148 C 
ATOM     24  C   UNL     1      34.300 -15.533 -23.384  0.00  0.00    +0.143 C 
ATOM     25  C   UNL     1      33.770 -14.446 -22.687  0.00  0.00    +0.143 C 
ATOM     26  C   UNL     1      34.925 -16.568 -21.293  0.00  0.00    +0.037 C 
ATOM     27  C   UNL     1      33.818 -14.421 -21.294  0.00  0.00    +0.037 C 
ATOM     28  C   UNL     1      34.396 -15.482 -20.597  0.00  0.00    +0.006 C 
BRANCH  25  29
ATOM     29  O   UNL     1      33.200 -13.400 -23.349  0.00  0.00    -0.505 OA
ATOM     30  H   UNL     1      33.029 -13.464 -24.268  0.00  0.00    +0.292 HD
ENDBRANCH  25  29
BRANCH  24  32
ATOM     31  O   UNL     1      35.113 -16.074 -25.559  0.00  0.00    -0.245 OA
ATOM     32  C   UNL     1      34.249 -15.560 -24.842  0.00  0.00    +0.347 C 
BRANCH  32  33
ATOM     33  O   UNL     1      33.124 -14.943 -25.313  0.00  0.00    -0.441 OA
ATOM     34  C   UNL     1      33.279 -14.123 -26.476  0.00  0.00    +0.256 C 
ENDBRANCH  32  33
ENDBRANCH  24  32
ENDBRANCH  22  23
ENDBRANCH  21  22
ENDBRANCH  20  21
ENDBRANCH   3  19
TORSDOF 12
ENDMDL
MODEL 7
REMARK VINA RESULT:     -10.7      2.578     11.218
REMARK  Name = 449162
REMARK  12 active torsions:
REMARK  status: ('A' for Active; 'I' for Inactive)
REMARK    1  A    between atoms: C_1  and  C_9
REMARK    2  A    between atoms: C_3  and  C_19
REMARK    3  A    between atoms: C_10  and  C_16
REMARK    4  A    between atoms: C_11  and  C_13
REMARK    5  A    between atoms: C_13  and  O_14
REMARK    6  A    between atoms: C_16  and  O_17
REMARK    7  A    between atoms: C_20  and  C_21
REMARK    8  A    between atoms: C_21  and  O_22
REMARK    9  A    between atoms: O_22  and  C_23
REMARK   10  A    between atoms: C_24  and  C_32
REMARK   11  A    between atoms: C_25  and  O_29
REMARK   12  A    between atoms: C_32  and  O_33
REMARK                            x       y       z     vdW  Elec       q    Type
REMARK                         _______ _______ _______ _____ _____    ______ ____
ROOT
ATOM      1  C   UNL     1      35.342 -22.746 -16.806  0.00  0.00    +0.037 C 
ATOM      2  C   UNL     1      35.853 -22.005 -17.872  0.00  0.00    +0.003 C 
ATOM      3  C   UNL     1      35.019 -21.630 -18.924  0.00  0.00    -0.000 C 
ATOM      4  C   UNL     1      33.995 -23.111 -16.794  0.00  0.00    +0.003 C 
ATOM      5  C   UNL     1      33.673 -21.994 -18.912  0.00  0.00    -0.000 C 
ATOM      6  C   UNL     1      33.162 -22.735 -17.847  0.00  0.00    +0.000 C 
ENDROOT
BRANCH   1   9
ATOM      7  O   UNL     1      37.144 -22.224 -15.373  0.00  0.00    -0.353 OA
ATOM      8  N   UNL     1      37.897 -22.727 -14.319  0.00  0.00    -0.071 NA
ATOM      9  C   UNL     1      36.203 -23.136 -15.717  0.00  0.00    +0.175 A 
ATOM     10  C   UNL     1      36.304 -24.239 -14.921  0.00  0.00    +0.071 A 
ATOM     11  C   UNL     1      37.377 -23.932 -14.067  0.00  0.00    +0.196 A 
BRANCH  11  13
ATOM     12  O   UNL     1      37.278 -25.255 -12.096  0.00  0.00    -0.243 OA
ATOM     13  C   UNL     1      37.929 -24.738 -13.016  0.00  0.00    +0.359 C 
BRANCH  13  14
ATOM     14  O   UNL     1      39.289 -24.921 -13.079  0.00  0.00    -0.476 OA
ATOM     15  H   UNL     1      39.860 -24.179 -13.089  0.00  0.00    +0.295 HD
ENDBRANCH  13  14
ENDBRANCH  11  13
BRANCH  10  16
ATOM     16  C   UNL     1      35.485 -25.463 -14.952  0.00  0.00    +0.169 C 
BRANCH  16  17
ATOM     17  O   UNL     1      36.204 -26.594 -15.456  0.00  0.00    -0.377 OA
ATOM     18  H   UNL     1      37.139 -26.519 -15.208  0.00  0.00    +0.211 HD
ENDBRANCH  16  17
ENDBRANCH  10  16
ENDBRANCH   1   9
BRANCH   3  19
ATOM     19  C   UNL     1      35.554 -20.857 -20.035  0.00  0.00    -0.001 C 
ATOM     20  C   UNL     1      34.987 -19.758 -20.582  0.00  0.00    +0.021 C 
BRANCH  20  21
ATOM     21  C   UNL     1      35.583 -18.987 -21.715  0.00  0.00    +0.232 C 
BRANCH  21  22
ATOM     22  O   UNL     1      35.327 -17.604 -21.512  0.00  0.00    -0.470 OA
BRANCH  22  23
ATOM     23  C   UNL     1      34.959 -16.876 -22.613  0.00  0.00    +0.148 C 
ATOM     24  C   UNL     1      34.460 -15.585 -22.475  0.00  0.00    +0.143 C 
ATOM     25  C   UNL     1      34.090 -14.862 -23.610  0.00  0.00    +0.143 C 
ATOM     26  C   UNL     1      35.093 -17.451 -23.872  0.00  0.00    +0.037 C 
ATOM     27  C   UNL     1      34.222 -15.433 -24.875  0.00  0.00    +0.037 C 
ATOM     28  C   UNL     1      34.723 -16.728 -25.006  0.00  0.00    +0.006 C 
BRANCH  25  29
ATOM     29  O   UNL     1      33.600 -13.594 -23.505  0.00  0.00    -0.505 OA
ATOM     30  H   UNL     1      32.893 -13.413 -22.916  0.00  0.00    +0.292 HD
ENDBRANCH  25  29
BRANCH  24  32
ATOM     31  O   UNL     1      34.939 -13.986 -20.773  0.00  0.00    -0.245 OA
ATOM     32  C   UNL     1      34.322 -14.987 -21.152  0.00  0.00    +0.347 C 
BRANCH  32  33
ATOM     33  O   UNL     1      33.422 -15.674 -20.386  0.00  0.00    -0.441 OA
ATOM     34  C   UNL     1      32.309 -14.930 -19.879  0.00  0.00    +0.256 C 
ENDBRANCH  32  33
ENDBRANCH  24  32
ENDBRANCH  22  23
ENDBRANCH  21  22
ENDBRANCH  20  21
ENDBRANCH   3  19
TORSDOF 12
ENDMDL
MODEL 8
REMARK VINA RESULT:     -10.6      6.969     14.621
REMARK  Name = 449162
REMARK  12 active torsions:
REMARK  status: ('A' for Active; 'I' for Inactive)
REMARK    1  A    between atoms: C_1  and  C_9
REMARK    2  A    between atoms: C_3  and  C_19
REMARK    3  A    between atoms: C_10  and  C_16
REMARK    4  A    between atoms: C_11  and  C_13
REMARK    5  A    between atoms: C_13  and  O_14
REMARK    6  A    between atoms: C_16  and  O_17
REMARK    7  A    between atoms: C_20  and  C_21
REMARK    8  A    between atoms: C_21  and  O_22
REMARK    9  A    between atoms: O_22  and  C_23
REMARK   10  A    between atoms: C_24  and  C_32
REMARK   11  A    between atoms: C_25  and  O_29
REMARK   12  A    between atoms: C_32  and  O_33
REMARK                            x       y       z     vdW  Elec       q    Type
REMARK                         _______ _______ _______ _____ _____    ______ ____
ROOT
ATOM      1  C   UNL     1      34.189 -14.602 -23.624  0.00  0.00    +0.037 C 
ATOM      2  C   UNL     1      34.339 -13.265 -23.256  0.00  0.00    +0.003 C 
ATOM      3  C   UNL     1      34.005 -12.253 -24.155  0.00  0.00    -0.000 C 
ATOM      4  C   UNL     1      33.704 -14.926 -24.892  0.00  0.00    +0.003 C 
ATOM      5  C   UNL     1      33.521 -12.576 -25.422  0.00  0.00    -0.000 C 
ATOM      6  C   UNL     1      33.371 -13.912 -25.790  0.00  0.00    +0.000 C 
ENDROOT
BRANCH   1   9
ATOM      7  O   UNL     1      34.480 -15.303 -21.388  0.00  0.00    -0.353 OA
ATOM      8  N   UNL     1      34.834 -16.400 -20.613  0.00  0.00    -0.071 NA
ATOM      9  C   UNL     1      34.533 -15.651 -22.696  0.00  0.00    +0.175 A 
ATOM     10  C   UNL     1      34.914 -16.955 -22.820  0.00  0.00    +0.071 A 
ATOM     11  C   UNL     1      35.089 -17.375 -21.491  0.00  0.00    +0.196 A 
BRANCH  11  13
ATOM     12  O   UNL     1      34.763 -19.675 -20.991  0.00  0.00    -0.243 OA
ATOM     13  C   UNL     1      35.488 -18.670 -21.017  0.00  0.00    +0.359 C 
BRANCH  13  14
ATOM     14  O   UNL     1      36.784 -18.749 -20.570  0.00  0.00    -0.476 OA
ATOM     15  H   UNL     1      36.960 -18.789 -19.651  0.00  0.00    +0.295 HD
ENDBRANCH  13  14
ENDBRANCH  11  13
BRANCH  10  16
ATOM     16  C   UNL     1      35.099 -17.736 -24.055  0.00  0.00    +0.169 C 
BRANCH  16  17
ATOM     17  O   UNL     1      34.550 -19.055 -23.959  0.00  0.00    -0.377 OA
ATOM     18  H   UNL     1      33.581 -19.005 -23.981  0.00  0.00    +0.211 HD
ENDBRANCH  16  17
ENDBRANCH  10  16
ENDBRANCH   1   9
BRANCH   3  19
ATOM     19  C   UNL     1      34.162 -10.858 -23.769  0.00  0.00    -0.001 C 
ATOM     20  C   UNL     1      35.070  -9.993 -24.276  0.00  0.00    +0.021 C 
BRANCH  20  21
ATOM     21  C   UNL     1      35.183  -8.563 -23.859  0.00  0.00    +0.232 C 
BRANCH  21  22
ATOM     22  O   UNL     1      34.232  -8.309 -22.833  0.00  0.00    -0.470 OA
BRANCH  22  23
ATOM     23  C   UNL     1      33.509  -7.150 -22.934  0.00  0.00    +0.148 C 
ATOM     24  C   UNL     1      32.695  -6.729 -21.888  0.00  0.00    +0.143 C 
ATOM     25  C   UNL     1      31.966  -5.545 -22.012  0.00  0.00    +0.143 C 
ATOM     26  C   UNL     1      33.602  -6.401 -24.102  0.00  0.00    +0.037 C 
ATOM     27  C   UNL     1      32.056  -4.790 -23.181  0.00  0.00    +0.037 C 
ATOM     28  C   UNL     1      32.873  -5.219 -24.226  0.00  0.00    +0.006 C 
BRANCH  25  29
ATOM     29  O   UNL     1      31.162  -5.108 -21.002  0.00  0.00    -0.505 OA
ATOM     30  H   UNL     1      30.232  -5.082 -21.120  0.00  0.00    +0.292 HD
ENDBRANCH  25  29
BRANCH  24  32
ATOM     31  O   UNL     1      33.090  -7.182 -19.580  0.00  0.00    -0.245 OA
ATOM     32  C   UNL     1      32.601  -7.518 -20.664  0.00  0.00    +0.347 C 
BRANCH  32  33
ATOM     33  O   UNL     1      31.903  -8.675 -20.870  0.00  0.00    -0.441 OA
ATOM     34  C   UNL     1      31.836  -9.590 -19.771  0.00  0.00    +0.256 C 
ENDBRANCH  32  33
ENDBRANCH  24  32
ENDBRANCH  22  23
ENDBRANCH  21  22
ENDBRANCH  20  21
ENDBRANCH   3  19
TORSDOF 12
ENDMDL
MODEL 9
REMARK VINA RESULT:     -10.5      3.729      4.984
REMARK  Name = 449162
REMARK  12 active torsions:
REMARK  status: ('A' for Active; 'I' for Inactive)
REMARK    1  A    between atoms: C_1  and  C_9
REMARK    2  A    between atoms: C_3  and  C_19
REMARK    3  A    between atoms: C_10  and  C_16
REMARK    4  A    between atoms: C_11  and  C_13
REMARK    5  A    between atoms: C_13  and  O_14
REMARK    6  A    between atoms: C_16  and  O_17
REMARK    7  A    between atoms: C_20  and  C_21
REMARK    8  A    between atoms: C_21  and  O_22
REMARK    9  A    between atoms: O_22  and  C_23
REMARK   10  A    between atoms: C_24  and  C_32
REMARK   11  A    between atoms: C_25  and  O_29
REMARK   12  A    between atoms: C_32  and  O_33
REMARK                            x       y       z     vdW  Elec       q    Type
REMARK                         _______ _______ _______ _____ _____    ______ ____
ROOT
ATOM      1  C   UNL     1      35.545 -18.608 -21.471  0.00  0.00    +0.037 C 
ATOM      2  C   UNL     1      34.595 -19.498 -20.972  0.00  0.00    +0.003 C 
ATOM      3  C   UNL     1      34.990 -20.553 -20.150  0.00  0.00    -0.000 C 
ATOM      4  C   UNL     1      36.892 -18.773 -21.149  0.00  0.00    +0.003 C 
ATOM      5  C   UNL     1      36.337 -20.719 -19.828  0.00  0.00    -0.000 C 
ATOM      6  C   UNL     1      37.288 -19.829 -20.327  0.00  0.00    +0.000 C 
ENDROOT
BRANCH   1   9
ATOM      7  O   UNL     1      35.198 -17.768 -23.651  0.00  0.00    -0.353 OA
ATOM      8  N   UNL     1      34.781 -16.639 -24.344  0.00  0.00    -0.071 NA
ATOM      9  C   UNL     1      35.138 -17.516 -22.321  0.00  0.00    +0.175 A 
ATOM     10  C   UNL     1      34.691 -16.246 -22.103  0.00  0.00    +0.071 A 
ATOM     11  C   UNL     1      34.483 -15.743 -23.399  0.00  0.00    +0.196 A 
BRANCH  11  13
ATOM     12  O   UNL     1      33.145 -14.219 -24.635  0.00  0.00    -0.243 OA
ATOM     13  C   UNL     1      34.011 -14.442 -23.777  0.00  0.00    +0.359 C 
BRANCH  13  14
ATOM     14  O   UNL     1      34.596 -13.396 -23.107  0.00  0.00    -0.476 OA
ATOM     15  H   UNL     1      34.926 -12.660 -23.584  0.00  0.00    +0.295 HD
ENDBRANCH  13  14
ENDBRANCH  11  13
BRANCH  10  16
ATOM     16  C   UNL     1      34.478 -15.564 -20.815  0.00  0.00    +0.169 C 
BRANCH  16  17
ATOM     17  O   UNL     1      33.143 -15.067 -20.670  0.00  0.00    -0.377 OA
ATOM     18  H   UNL     1      32.523 -15.672 -21.105  0.00  0.00    +0.211 HD
ENDBRANCH  16  17
ENDBRANCH  10  16
ENDBRANCH   1   9
BRANCH   3  19
ATOM     19  C   UNL     1      33.998 -21.481 -19.630  0.00  0.00    -0.001 C 
ATOM     20  C   UNL     1      34.079 -22.155 -18.460  0.00  0.00    +0.021 C 
BRANCH  20  21
ATOM     21  C   UNL     1      33.024 -23.088 -17.960  0.00  0.00    +0.232 C 
BRANCH  21  22
ATOM     22  O   UNL     1      32.394 -22.502 -16.828  0.00  0.00    -0.470 OA
BRANCH  22  23
ATOM     23  C   UNL     1      32.619 -23.100 -15.617  0.00  0.00    +0.148 C 
ATOM     24  C   UNL     1      31.561 -23.399 -14.766  0.00  0.00    +0.143 C 
ATOM     25  C   UNL     1      31.813 -24.009 -13.536  0.00  0.00    +0.143 C 
ATOM     26  C   UNL     1      33.927 -23.404 -15.252  0.00  0.00    +0.037 C 
ATOM     27  C   UNL     1      33.122 -24.316 -13.165  0.00  0.00    +0.037 C 
ATOM     28  C   UNL     1      34.178 -24.013 -14.023  0.00  0.00    +0.006 C 
BRANCH  25  29
ATOM     29  O   UNL     1      30.794 -24.314 -12.683  0.00  0.00    -0.505 OA
ATOM     30  H   UNL     1      30.046 -24.785 -12.995  0.00  0.00    +0.292 HD
ENDBRANCH  25  29
BRANCH  24  32
ATOM     31  O   UNL     1      29.555 -22.110 -14.726  0.00  0.00    -0.245 OA
ATOM     32  C   UNL     1      30.192 -23.079 -15.154  0.00  0.00    +0.347 C 
BRANCH  32  33
ATOM     33  O   UNL     1      29.703 -23.986 -16.052  0.00  0.00    -0.441 OA
ATOM     34  C   UNL     1      28.347 -23.806 -16.474  0.00  0.00    +0.256 C 
ENDBRANCH  32  33
ENDBRANCH  24  32
ENDBRANCH  22  23
ENDBRANCH  21  22
ENDBRANCH  20  21
ENDBRANCH   3  19
TORSDOF 12
ENDMDL
