MODEL 1
REMARK VINA RESULT:     -11.4      0.000      0.000
REMARK  Name = 77993
REMARK  6 active torsions:
REMARK  status: ('A' for Active; 'I' for Inactive)
REMARK    1  A    between atoms: C_2  and  C_11
REMARK    2  A    between atoms: C_7  and  C_19
REMARK    3  A    between atoms: C_11  and  C_13
REMARK    4  A    between atoms: C_19  and  C_20
REMARK    5  A    between atoms: C_20  and  S_21
REMARK    6  A    between atoms: S_21  and  C_24
REMARK                            x       y       z     vdW  Elec       q    Type
REMARK                         _______ _______ _______ _____ _____    ______ ____
ROOT
ATOM      1  N   UNL     1      33.530 -23.603 -15.934  0.00  0.00    -0.312 N 
ATOM      2  C   UNL     1      35.686 -23.221 -15.719  0.00  0.00    -0.008 C 
ATOM      3  C   UNL     1      35.278 -22.648 -16.942  0.00  0.00    +0.010 C 
ATOM      4  C   UNL     1      34.610 -23.799 -15.115  0.00  0.00    +0.058 C 
ATOM      5  C   UNL     1      33.908 -22.902 -17.058  0.00  0.00    +0.048 C 
ATOM      6  C   UNL     1      35.924 -21.937 -17.972  0.00  0.00    -0.003 C 
ATOM      7  C   UNL     1      35.181 -21.508 -19.076  0.00  0.00    -0.020 C 
ATOM      8  C   UNL     1      33.153 -22.479 -18.155  0.00  0.00    +0.014 C 
ATOM      9  C   UNL     1      33.816 -21.776 -19.165  0.00  0.00    -0.003 C 
ATOM     10  H   UNL     1      32.616 -23.915 -15.747  0.00  0.00    +0.152 HD
ENDROOT
BRANCH   2  11
ATOM     11  C   UNL     1      37.077 -23.202 -15.163  0.00  0.00    +0.007 C 
BRANCH  11  13
ATOM     12  N   UNL     1      37.642 -23.836 -12.810  0.00  0.00    +0.387 N 
ATOM     13  C   UNL     1      37.318 -24.321 -14.159  0.00  0.00    -0.054 C 
ATOM     14  C   UNL     1      38.551 -25.153 -14.521  0.00  0.00    -0.023 C 
ATOM     15  C   UNL     1      39.147 -25.590 -13.188  0.00  0.00    -0.025 C 
ATOM     16  C   UNL     1      38.239 -24.987 -12.128  0.00  0.00    -0.077 C 
ATOM     17  C   UNL     1      36.482 -23.329 -12.086  0.00  0.00    -0.101 C 
ATOM     18  H   UNL     1      38.274 -23.037 -12.857  0.00  0.00    -0.080 HD
ENDBRANCH  11  13
ENDBRANCH   2  11
BRANCH   7  19
ATOM     19  C   UNL     1      35.860 -20.754 -20.173  0.00  0.00    +0.052 C 
BRANCH  19  20
ATOM     20  C   UNL     1      34.992 -19.668 -20.813  0.00  0.00    +0.161 C 
BRANCH  20  21
ATOM     21  S   UNL     1      35.805 -18.855 -22.153  0.00  0.00    +0.009 S 
ATOM     22  O   UNL     1      35.377 -19.466 -23.399  0.00  0.00    -0.169 OA
ATOM     23  O   UNL     1      37.219 -18.769 -21.827  0.00  0.00    -0.169 OA
BRANCH  21  24
ATOM     24  C   UNL     1      35.141 -17.217 -22.125  0.00  0.00    +0.106 C 
ATOM     25  C   UNL     1      34.958 -16.541 -23.319  0.00  0.00    +0.018 C 
ATOM     26  C   UNL     1      34.815 -16.641 -20.908  0.00  0.00    +0.018 C 
ATOM     27  C   UNL     1      34.433 -15.249 -23.296  0.00  0.00    +0.001 C 
ATOM     28  C   UNL     1      34.291 -15.348 -20.887  0.00  0.00    +0.001 C 
ATOM     29  C   UNL     1      34.100 -14.653 -22.080  0.00  0.00    +0.000 C 
ENDBRANCH  21  24
ENDBRANCH  20  21
ENDBRANCH  19  20
ENDBRANCH   7  19
TORSDOF 6
ENDMDL
MODEL 2
REMARK VINA RESULT:     -11.0      2.290      4.105
REMARK  Name = 77993
REMARK  6 active torsions:
REMARK  status: ('A' for Active; 'I' for Inactive)
REMARK    1  A    between atoms: C_2  and  C_11
REMARK    2  A    between atoms: C_7  and  C_19
REMARK    3  A    between atoms: C_11  and  C_13
REMARK    4  A    between atoms: C_19  and  C_20
REMARK    5  A    between atoms: C_20  and  S_21
REMARK    6  A    between atoms: S_21  and  C_24
REMARK                            x       y       z     vdW  Elec       q    Type
REMARK                         _______ _______ _______ _____ _____    ______ ____
ROOT
ATOM      1  N   UNL     1      35.950 -22.980 -16.111  0.00  0.00    -0.312 N 
ATOM      2  C   UNL     1      33.867 -23.238 -16.772  0.00  0.00    -0.008 C 
ATOM      3  C   UNL     1      34.531 -22.482 -17.760  0.00  0.00    +0.010 C 
ATOM      4  C   UNL     1      34.745 -23.535 -15.772  0.00  0.00    +0.058 C 
ATOM      5  C   UNL     1      35.849 -22.331 -17.321  0.00  0.00    +0.048 C 
ATOM      6  C   UNL     1      34.156 -21.904 -18.989  0.00  0.00    -0.003 C 
ATOM      7  C   UNL     1      35.109 -21.199 -19.731  0.00  0.00    -0.020 C 
ATOM      8  C   UNL     1      36.812 -21.629 -18.053  0.00  0.00    +0.014 C 
ATOM      9  C   UNL     1      36.417 -21.063 -19.268  0.00  0.00    -0.003 C 
ATOM     10  H   UNL     1      36.770 -23.038 -15.570  0.00  0.00    +0.152 HD
ENDROOT
BRANCH   2  11
ATOM     11  C   UNL     1      32.429 -23.654 -16.805  0.00  0.00    +0.007 C 
BRANCH  11  13
ATOM     12  N   UNL     1      31.219 -24.203 -14.685  0.00  0.00    +0.387 N 
ATOM     13  C   UNL     1      31.646 -23.138 -15.604  0.00  0.00    -0.054 C 
ATOM     14  C   UNL     1      30.317 -22.504 -16.022  0.00  0.00    -0.023 C 
ATOM     15  C   UNL     1      29.351 -22.804 -14.881  0.00  0.00    -0.025 C 
ATOM     16  C   UNL     1      30.163 -23.597 -13.870  0.00  0.00    -0.077 C 
ATOM     17  C   UNL     1      32.303 -24.718 -13.857  0.00  0.00    -0.101 C 
ATOM     18  H   UNL     1      30.894 -25.018 -15.204  0.00  0.00    -0.080 HD
ENDBRANCH  11  13
ENDBRANCH   2  11
BRANCH   7  19
ATOM     19  C   UNL     1      34.718 -20.582 -21.034  0.00  0.00    +0.052 C 
BRANCH  19  20
ATOM     20  C   UNL     1      34.624 -19.054 -20.998  0.00  0.00    +0.161 C 
BRANCH  20  21
ATOM     21  S   UNL     1      35.389 -18.296 -22.397  0.00  0.00    +0.009 S 
ATOM     22  O   UNL     1      34.746 -18.787 -23.604  0.00  0.00    -0.169 OA
ATOM     23  O   UNL     1      36.828 -18.413 -22.234  0.00  0.00    -0.169 OA
BRANCH  21  24
ATOM     24  C   UNL     1      34.962 -16.588 -22.243  0.00  0.00    +0.106 C 
ATOM     25  C   UNL     1      34.663 -16.075 -20.993  0.00  0.00    +0.018 C 
ATOM     26  C   UNL     1      34.935 -15.793 -23.377  0.00  0.00    +0.018 C 
ATOM     27  C   UNL     1      34.327 -14.727 -20.872  0.00  0.00    +0.001 C 
ATOM     28  C   UNL     1      34.598 -14.445 -23.256  0.00  0.00    +0.001 C 
ATOM     29  C   UNL     1      34.295 -13.912 -22.004  0.00  0.00    +0.000 C 
ENDBRANCH  21  24
ENDBRANCH  20  21
ENDBRANCH  19  20
ENDBRANCH   7  19
TORSDOF 6
ENDMDL
MODEL 3
REMARK VINA RESULT:     -10.9      5.381     12.085
REMARK  Name = 77993
REMARK  6 active torsions:
REMARK  status: ('A' for Active; 'I' for Inactive)
REMARK    1  A    between atoms: C_2  and  C_11
REMARK    2  A    between atoms: C_7  and  C_19
REMARK    3  A    between atoms: C_11  and  C_13
REMARK    4  A    between atoms: C_19  and  C_20
REMARK    5  A    between atoms: C_20  and  S_21
REMARK    6  A    between atoms: S_21  and  C_24
REMARK                            x       y       z     vdW  Elec       q    Type
REMARK                         _______ _______ _______ _____ _____    ______ ____
ROOT
ATOM      1  N   UNL     1      31.403 -11.868 -20.338  0.00  0.00    -0.312 N 
ATOM      2  C   UNL     1      32.505 -11.351 -22.170  0.00  0.00    -0.008 C 
ATOM      3  C   UNL     1      32.876 -12.665 -21.812  0.00  0.00    +0.010 C 
ATOM      4  C   UNL     1      31.605 -10.878 -21.262  0.00  0.00    +0.058 C 
ATOM      5  C   UNL     1      32.166 -12.971 -20.649  0.00  0.00    +0.048 C 
ATOM      6  C   UNL     1      33.744 -13.635 -22.352  0.00  0.00    -0.003 C 
ATOM      7  C   UNL     1      33.869 -14.871 -21.710  0.00  0.00    -0.020 C 
ATOM      8  C   UNL     1      32.281 -14.203 -19.997  0.00  0.00    +0.014 C 
ATOM      9  C   UNL     1      33.148 -15.149 -20.550  0.00  0.00    -0.003 C 
ATOM     10  H   UNL     1      30.799 -11.801 -19.564  0.00  0.00    +0.152 HD
ENDROOT
BRANCH   2  11
ATOM     11  C   UNL     1      33.012 -10.590 -23.357  0.00  0.00    +0.007 C 
BRANCH  11  13
ATOM     12  N   UNL     1      32.700  -8.115 -23.544  0.00  0.00    +0.387 N 
ATOM     13  C   UNL     1      33.516  -9.202 -22.985  0.00  0.00    -0.054 C 
ATOM     14  C   UNL     1      34.899  -8.921 -23.578  0.00  0.00    -0.023 C 
ATOM     15  C   UNL     1      34.913  -7.427 -23.877  0.00  0.00    -0.025 C 
ATOM     16  C   UNL     1      33.545  -6.921 -23.450  0.00  0.00    -0.077 C 
ATOM     17  C   UNL     1      31.432  -7.928 -22.848  0.00  0.00    -0.101 C 
ATOM     18  H   UNL     1      32.426  -8.327 -24.504  0.00  0.00    -0.080 HD
ENDBRANCH  11  13
ENDBRANCH   2  11
BRANCH   7  19
ATOM     19  C   UNL     1      34.788 -15.904 -22.275  0.00  0.00    +0.052 C 
BRANCH  19  20
ATOM     20  C   UNL     1      35.178 -17.002 -21.282  0.00  0.00    +0.161 C 
BRANCH  20  21
ATOM     21  S   UNL     1      35.604 -18.517 -22.083  0.00  0.00    +0.009 S 
ATOM     22  O   UNL     1      37.051 -18.601 -22.184  0.00  0.00    -0.169 OA
ATOM     23  O   UNL     1      34.778 -18.639 -23.272  0.00  0.00    -0.169 OA
BRANCH  21  24
ATOM     24  C   UNL     1      35.094 -19.763 -20.937  0.00  0.00    +0.106 C 
ATOM     25  C   UNL     1      33.743 -19.968 -20.718  0.00  0.00    +0.018 C 
ATOM     26  C   UNL     1      36.056 -20.512 -20.280  0.00  0.00    +0.018 C 
ATOM     27  C   UNL     1      33.341 -20.952 -19.815  0.00  0.00    +0.001 C 
ATOM     28  C   UNL     1      35.654 -21.496 -19.377  0.00  0.00    +0.001 C 
ATOM     29  C   UNL     1      34.297 -21.715 -19.144  0.00  0.00    +0.000 C 
ENDBRANCH  21  24
ENDBRANCH  20  21
ENDBRANCH  19  20
ENDBRANCH   7  19
TORSDOF 6
ENDMDL
MODEL 4
REMARK VINA RESULT:     -10.9      7.863     13.809
REMARK  Name = 77993
REMARK  6 active torsions:
REMARK  status: ('A' for Active; 'I' for Inactive)
REMARK    1  A    between atoms: C_2  and  C_11
REMARK    2  A    between atoms: C_7  and  C_19
REMARK    3  A    between atoms: C_11  and  C_13
REMARK    4  A    between atoms: C_19  and  C_20
REMARK    5  A    between atoms: C_20  and  S_21
REMARK    6  A    between atoms: S_21  and  C_24
REMARK                            x       y       z     vdW  Elec       q    Type
REMARK                         _______ _______ _______ _____ _____    ______ ____
ROOT
ATOM      1  N   UNL     1      31.947  -8.158 -19.128  0.00  0.00    -0.312 N 
ATOM      2  C   UNL     1      31.968  -7.900 -21.313  0.00  0.00    -0.008 C 
ATOM      3  C   UNL     1      31.952  -9.286 -21.054  0.00  0.00    +0.010 C 
ATOM      4  C   UNL     1      31.964  -7.224 -20.129  0.00  0.00    +0.058 C 
ATOM      5  C   UNL     1      31.939  -9.427 -19.663  0.00  0.00    +0.048 C 
ATOM      6  C   UNL     1      31.948 -10.447 -21.852  0.00  0.00    -0.003 C 
ATOM      7  C   UNL     1      31.931 -11.701 -21.233  0.00  0.00    -0.020 C 
ATOM      8  C   UNL     1      31.921 -10.674 -19.031  0.00  0.00    +0.014 C 
ATOM      9  C   UNL     1      31.918 -11.811 -19.843  0.00  0.00    -0.003 C 
ATOM     10  H   UNL     1      31.940  -7.953 -18.165  0.00  0.00    +0.152 HD
ENDROOT
BRANCH   2  11
ATOM     11  C   UNL     1      31.986  -7.261 -22.668  0.00  0.00    +0.007 C 
BRANCH  11  13
ATOM     12  N   UNL     1      33.423  -6.108 -24.360  0.00  0.00    +0.387 N 
ATOM     13  C   UNL     1      33.314  -6.580 -22.972  0.00  0.00    -0.054 C 
ATOM     14  C   UNL     1      34.491  -7.553 -22.857  0.00  0.00    -0.023 C 
ATOM     15  C   UNL     1      35.499  -7.091 -23.903  0.00  0.00    -0.025 C 
ATOM     16  C   UNL     1      34.856  -5.887 -24.572  0.00  0.00    -0.077 C 
ATOM     17  C   UNL     1      32.653  -4.897 -24.618  0.00  0.00    -0.101 C 
ATOM     18  H   UNL     1      33.033  -6.793 -25.006  0.00  0.00    -0.080 HD
ENDBRANCH  11  13
ENDBRANCH   2  11
BRANCH   7  19
ATOM     19  C   UNL     1      31.928 -12.936 -22.073  0.00  0.00    +0.052 C 
BRANCH  19  20
ATOM     20  C   UNL     1      32.578 -14.149 -21.401  0.00  0.00    +0.161 C 
BRANCH  20  21
ATOM     21  S   UNL     1      34.331 -14.176 -21.606  0.00  0.00    +0.009 S 
ATOM     22  O   UNL     1      34.956 -13.948 -20.314  0.00  0.00    -0.169 OA
ATOM     23  O   UNL     1      34.659 -13.327 -22.738  0.00  0.00    -0.169 OA
BRANCH  21  24
ATOM     24  C   UNL     1      34.682 -15.848 -22.061  0.00  0.00    +0.106 C 
ATOM     25  C   UNL     1      34.949 -16.777 -21.070  0.00  0.00    +0.018 C 
ATOM     26  C   UNL     1      34.683 -16.197 -23.401  0.00  0.00    +0.018 C 
ATOM     27  C   UNL     1      35.225 -18.096 -21.430  0.00  0.00    +0.001 C 
ATOM     28  C   UNL     1      34.959 -17.516 -23.761  0.00  0.00    +0.001 C 
ATOM     29  C   UNL     1      35.230 -18.465 -22.776  0.00  0.00    +0.000 C 
ENDBRANCH  21  24
ENDBRANCH  20  21
ENDBRANCH  19  20
ENDBRANCH   7  19
TORSDOF 6
ENDMDL
MODEL 5
REMARK VINA RESULT:     -10.8      9.874     13.802
REMARK  Name = 77993
REMARK  6 active torsions:
REMARK  status: ('A' for Active; 'I' for Inactive)
REMARK    1  A    between atoms: C_2  and  C_11
REMARK    2  A    between atoms: C_7  and  C_19
REMARK    3  A    between atoms: C_11  and  C_13
REMARK    4  A    between atoms: C_19  and  C_20
REMARK    5  A    between atoms: C_20  and  S_21
REMARK    6  A    between atoms: S_21  and  C_24
REMARK                            x       y       z     vdW  Elec       q    Type
REMARK                         _______ _______ _______ _____ _____    ______ ____
ROOT
ATOM      1  N   UNL     1      31.970  -8.113 -19.160  0.00  0.00    -0.312 N 
ATOM      2  C   UNL     1      32.033  -7.994 -21.356  0.00  0.00    -0.008 C 
ATOM      3  C   UNL     1      31.976  -9.361 -21.011  0.00  0.00    +0.010 C 
ATOM      4  C   UNL     1      32.029  -7.245 -20.218  0.00  0.00    +0.058 C 
ATOM      5  C   UNL     1      31.936  -9.412 -19.615  0.00  0.00    +0.048 C 
ATOM      6  C   UNL     1      31.953 -10.569 -21.734  0.00  0.00    -0.003 C 
ATOM      7  C   UNL     1      31.892 -11.781 -21.038  0.00  0.00    -0.020 C 
ATOM      8  C   UNL     1      31.875 -10.616 -18.906  0.00  0.00    +0.014 C 
ATOM      9  C   UNL     1      31.854 -11.802 -19.645  0.00  0.00    -0.003 C 
ATOM     10  H   UNL     1      31.953  -7.847 -18.213  0.00  0.00    +0.152 HD
ENDROOT
BRANCH   2  11
ATOM     11  C   UNL     1      32.090  -7.444 -22.748  0.00  0.00    +0.007 C 
BRANCH  11  13
ATOM     12  N   UNL     1      33.478  -6.172 -24.395  0.00  0.00    +0.387 N 
ATOM     13  C   UNL     1      33.375  -6.673 -23.017  0.00  0.00    -0.054 C 
ATOM     14  C   UNL     1      34.611  -7.569 -22.894  0.00  0.00    -0.023 C 
ATOM     15  C   UNL     1      35.605  -7.026 -23.914  0.00  0.00    -0.025 C 
ATOM     16  C   UNL     1      34.897  -5.855 -24.577  0.00  0.00    -0.077 C 
ATOM     17  C   UNL     1      32.635  -5.009 -24.649  0.00  0.00    -0.101 C 
ATOM     18  H   UNL     1      33.145  -6.870 -25.059  0.00  0.00    -0.080 HD
ENDBRANCH  11  13
ENDBRANCH   2  11
BRANCH   7  19
ATOM     19  C   UNL     1      31.868 -13.066 -21.798  0.00  0.00    +0.052 C 
BRANCH  19  20
ATOM     20  C   UNL     1      32.666 -14.195 -21.139  0.00  0.00    +0.161 C 
BRANCH  20  21
ATOM     21  S   UNL     1      34.212 -14.488 -21.940  0.00  0.00    +0.009 S 
ATOM     22  O   UNL     1      34.470 -15.917 -21.950  0.00  0.00    -0.169 OA
ATOM     23  O   UNL     1      35.186 -13.572 -21.373  0.00  0.00    -0.169 OA
BRANCH  21  24
ATOM     24  C   UNL     1      33.923 -14.004 -23.615  0.00  0.00    +0.106 C 
ATOM     25  C   UNL     1      34.081 -12.676 -23.973  0.00  0.00    +0.018 C 
ATOM     26  C   UNL     1      33.544 -14.963 -24.540  0.00  0.00    +0.018 C 
ATOM     27  C   UNL     1      33.853 -12.294 -25.295  0.00  0.00    +0.001 C 
ATOM     28  C   UNL     1      33.316 -14.580 -25.863  0.00  0.00    +0.001 C 
ATOM     29  C   UNL     1      33.471 -13.247 -26.240  0.00  0.00    +0.000 C 
ENDBRANCH  21  24
ENDBRANCH  20  21
ENDBRANCH  19  20
ENDBRANCH   7  19
TORSDOF 6
ENDMDL
MODEL 6
REMARK VINA RESULT:     -10.5      3.943      9.775
REMARK  Name = 77993
REMARK  6 active torsions:
REMARK  status: ('A' for Active; 'I' for Inactive)
REMARK    1  A    between atoms: C_2  and  C_11
REMARK    2  A    between atoms: C_7  and  C_19
REMARK    3  A    between atoms: C_11  and  C_13
REMARK    4  A    between atoms: C_19  and  C_20
REMARK    5  A    between atoms: C_20  and  S_21
REMARK    6  A    between atoms: S_21  and  C_24
REMARK                            x       y       z     vdW  Elec       q    Type
REMARK                         _______ _______ _______ _____ _____    ______ ____
ROOT
ATOM      1  N   UNL     1      32.822 -21.486 -19.603  0.00  0.00    -0.312 N 
ATOM      2  C   UNL     1      34.648 -20.463 -20.280  0.00  0.00    -0.008 C 
ATOM      3  C   UNL     1      34.994 -21.236 -19.152  0.00  0.00    +0.010 C 
ATOM      4  C   UNL     1      33.321 -20.625 -20.544  0.00  0.00    +0.058 C 
ATOM      5  C   UNL     1      33.822 -21.876 -18.739  0.00  0.00    +0.048 C 
ATOM      6  C   UNL     1      36.181 -21.466 -18.429  0.00  0.00    -0.003 C 
ATOM      7  C   UNL     1      36.153 -22.324 -17.324  0.00  0.00    -0.020 C 
ATOM      8  C   UNL     1      33.779 -22.736 -17.638  0.00  0.00    +0.014 C 
ATOM      9  C   UNL     1      34.969 -22.948 -16.936  0.00  0.00    -0.003 C 
ATOM     10  H   UNL     1      31.886 -21.785 -19.551  0.00  0.00    +0.152 HD
ENDROOT
BRANCH   2  11
ATOM     11  C   UNL     1      35.583 -19.598 -21.069  0.00  0.00    +0.007 C 
BRANCH  11  13
ATOM     12  N   UNL     1      35.273 -18.416 -23.252  0.00  0.00    +0.387 N 
ATOM     13  C   UNL     1      34.853 -18.511 -21.847  0.00  0.00    -0.054 C 
ATOM     14  C   UNL     1      35.172 -17.115 -21.307  0.00  0.00    -0.023 C 
ATOM     15  C   UNL     1      35.136 -16.195 -22.522  0.00  0.00    -0.025 C 
ATOM     16  C   UNL     1      34.806 -17.101 -23.698  0.00  0.00    -0.077 C 
ATOM     17  C   UNL     1      34.736 -19.485 -24.087  0.00  0.00    -0.101 C 
ATOM     18  H   UNL     1      36.284 -18.522 -23.334  0.00  0.00    -0.080 HD
ENDBRANCH  11  13
ENDBRANCH   2  11
BRANCH   7  19
ATOM     19  C   UNL     1      37.408 -22.571 -16.553  0.00  0.00    +0.052 C 
BRANCH  19  20
ATOM     20  C   UNL     1      37.206 -22.623 -15.035  0.00  0.00    +0.161 C 
BRANCH  20  21
ATOM     21  S   UNL     1      37.656 -24.186 -14.347  0.00  0.00    +0.009 S 
ATOM     22  O   UNL     1      39.103 -24.248 -14.236  0.00  0.00    -0.169 OA
ATOM     23  O   UNL     1      36.932 -25.215 -15.074  0.00  0.00    -0.169 OA
BRANCH  21  24
ATOM     24  C   UNL     1      37.013 -24.128 -12.702  0.00  0.00    +0.106 C 
ATOM     25  C   UNL     1      36.061 -25.056 -12.315  0.00  0.00    +0.018 C 
ATOM     26  C   UNL     1      37.474 -23.156 -11.830  0.00  0.00    +0.018 C 
ATOM     27  C   UNL     1      35.554 -25.010 -11.016  0.00  0.00    +0.001 C 
ATOM     28  C   UNL     1      36.967 -23.112 -10.531  0.00  0.00    +0.001 C 
ATOM     29  C   UNL     1      36.007 -24.038 -10.124  0.00  0.00    +0.000 C 
ENDBRANCH  21  24
ENDBRANCH  20  21
ENDBRANCH  19  20
ENDBRANCH   7  19
TORSDOF 6
ENDMDL
MODEL 7
REMARK VINA RESULT:     -10.4      8.394     11.983
REMARK  Name = 77993
REMARK  6 active torsions:
REMARK  status: ('A' for Active; 'I' for Inactive)
REMARK    1  A    between atoms: C_2  and  C_11
REMARK    2  A    between atoms: C_7  and  C_19
REMARK    3  A    between atoms: C_11  and  C_13
REMARK    4  A    between atoms: C_19  and  C_20
REMARK    5  A    between atoms: C_20  and  S_21
REMARK    6  A    between atoms: S_21  and  C_24
REMARK                            x       y       z     vdW  Elec       q    Type
REMARK                         _______ _______ _______ _____ _____    ______ ____
ROOT
ATOM      1  N   UNL     1      32.098 -13.851 -19.844  0.00  0.00    -0.312 N 
ATOM      2  C   UNL     1      33.486 -13.818 -21.551  0.00  0.00    -0.008 C 
ATOM      3  C   UNL     1      32.800 -12.585 -21.544  0.00  0.00    +0.010 C 
ATOM      4  C   UNL     1      33.048 -14.579 -20.509  0.00  0.00    +0.058 C 
ATOM      5  C   UNL     1      31.926 -12.628 -20.454  0.00  0.00    +0.048 C 
ATOM      6  C   UNL     1      32.824 -11.429 -22.349  0.00  0.00    -0.003 C 
ATOM      7  C   UNL     1      31.976 -10.362 -22.035  0.00  0.00    -0.020 C 
ATOM      8  C   UNL     1      31.073 -11.569 -20.129  0.00  0.00    +0.014 C 
ATOM      9  C   UNL     1      31.114 -10.432 -20.942  0.00  0.00    -0.003 C 
ATOM     10  H   UNL     1      31.610 -14.155 -19.046  0.00  0.00    +0.152 HD
ENDROOT
BRANCH   2  11
ATOM     11  C   UNL     1      34.531 -14.233 -22.541  0.00  0.00    +0.007 C 
BRANCH  11  13
ATOM     12  N   UNL     1      35.292 -16.597 -22.843  0.00  0.00    +0.387 N 
ATOM     13  C   UNL     1      34.250 -15.605 -23.142  0.00  0.00    -0.054 C 
ATOM     14  C   UNL     1      34.255 -15.566 -24.672  0.00  0.00    -0.023 C 
ATOM     15  C   UNL     1      34.795 -16.923 -25.108  0.00  0.00    -0.025 C 
ATOM     16  C   UNL     1      35.080 -17.672 -23.816  0.00  0.00    -0.077 C 
ATOM     17  C   UNL     1      35.235 -17.098 -21.474  0.00  0.00    -0.101 C 
ATOM     18  H   UNL     1      36.220 -16.180 -22.916  0.00  0.00    -0.080 HD
ENDBRANCH  11  13
ENDBRANCH   2  11
BRANCH   7  19
ATOM     19  C   UNL     1      31.995  -9.133 -22.884  0.00  0.00    +0.052 C 
BRANCH  19  20
ATOM     20  C   UNL     1      31.331  -7.916 -22.235  0.00  0.00    +0.161 C 
BRANCH  20  21
ATOM     21  S   UNL     1      32.507  -6.732 -21.656  0.00  0.00    +0.009 S 
ATOM     22  O   UNL     1      33.415  -7.389 -20.732  0.00  0.00    -0.169 OA
ATOM     23  O   UNL     1      31.777  -5.545 -21.246  0.00  0.00    -0.169 OA
BRANCH  21  24
ATOM     24  C   UNL     1      33.444  -6.322 -23.098  0.00  0.00    +0.106 C 
ATOM     25  C   UNL     1      34.726  -6.827 -23.238  0.00  0.00    +0.018 C 
ATOM     26  C   UNL     1      32.879  -5.504 -24.062  0.00  0.00    +0.018 C 
ATOM     27  C   UNL     1      35.465  -6.503 -24.375  0.00  0.00    +0.001 C 
ATOM     28  C   UNL     1      33.619  -5.181 -25.200  0.00  0.00    +0.001 C 
ATOM     29  C   UNL     1      34.911  -5.680 -25.356  0.00  0.00    +0.000 C 
ENDBRANCH  21  24
ENDBRANCH  20  21
ENDBRANCH  19  20
ENDBRANCH   7  19
TORSDOF 6
ENDMDL
MODEL 8
REMARK VINA RESULT:     -10.4      5.330     11.279
REMARK  Name = 77993
REMARK  6 active torsions:
REMARK  status: ('A' for Active; 'I' for Inactive)
REMARK    1  A    between atoms: C_2  and  C_11
REMARK    2  A    between atoms: C_7  and  C_19
REMARK    3  A    between atoms: C_11  and  C_13
REMARK    4  A    between atoms: C_19  and  C_20
REMARK    5  A    between atoms: C_20  and  S_21
REMARK    6  A    between atoms: S_21  and  C_24
REMARK                            x       y       z     vdW  Elec       q    Type
REMARK                         _______ _______ _______ _____ _____    ______ ____
ROOT
ATOM      1  N   UNL     1      33.595 -13.861 -26.050  0.00  0.00    -0.312 N 
ATOM      2  C   UNL     1      33.781 -12.652 -24.222  0.00  0.00    -0.008 C 
ATOM      3  C   UNL     1      34.176 -13.967 -23.898  0.00  0.00    +0.010 C 
ATOM      4  C   UNL     1      33.430 -12.602 -25.538  0.00  0.00    +0.058 C 
ATOM      5  C   UNL     1      34.051 -14.716 -25.072  0.00  0.00    +0.048 C 
ATOM      6  C   UNL     1      34.630 -14.610 -22.730  0.00  0.00    -0.003 C 
ATOM      7  C   UNL     1      34.941 -15.973 -22.777  0.00  0.00    -0.020 C 
ATOM      8  C   UNL     1      34.358 -16.078 -25.134  0.00  0.00    +0.014 C 
ATOM      9  C   UNL     1      34.805 -16.695 -23.962  0.00  0.00    -0.003 C 
ATOM     10  H   UNL     1      33.416 -14.118 -26.983  0.00  0.00    +0.152 HD
ENDROOT
BRANCH   2  11
ATOM     11  C   UNL     1      33.750 -11.489 -23.278  0.00  0.00    +0.007 C 
BRANCH  11  13
ATOM     12  N   UNL     1      32.268 -10.114 -21.805  0.00  0.00    +0.387 N 
ATOM     13  C   UNL     1      32.425 -11.379 -22.535  0.00  0.00    -0.054 C 
ATOM     14  C   UNL     1      32.310 -12.424 -21.421  0.00  0.00    -0.023 C 
ATOM     15  C   UNL     1      31.494 -11.753 -20.322  0.00  0.00    -0.025 C 
ATOM     16  C   UNL     1      31.186 -10.360 -20.848  0.00  0.00    -0.077 C 
ATOM     17  C   UNL     1      31.965  -8.982 -22.673  0.00  0.00    -0.101 C 
ATOM     18  H   UNL     1      33.141  -9.850 -21.349  0.00  0.00    -0.080 HD
ENDBRANCH  11  13
ENDBRANCH   2  11
BRANCH   7  19
ATOM     19  C   UNL     1      35.422 -16.662 -21.542  0.00  0.00    +0.052 C 
BRANCH  19  20
ATOM     20  C   UNL     1      34.636 -17.927 -21.188  0.00  0.00    +0.161 C 
BRANCH  20  21
ATOM     21  S   UNL     1      35.571 -19.401 -21.455  0.00  0.00    +0.009 S 
ATOM     22  O   UNL     1      36.958 -19.143 -21.106  0.00  0.00    -0.169 OA
ATOM     23  O   UNL     1      35.230 -19.911 -22.771  0.00  0.00    -0.169 OA
BRANCH  21  24
ATOM     24  C   UNL     1      34.938 -20.532 -20.253  0.00  0.00    +0.106 C 
ATOM     25  C   UNL     1      35.821 -21.316 -19.530  0.00  0.00    +0.018 C 
ATOM     26  C   UNL     1      33.570 -20.612 -20.056  0.00  0.00    +0.018 C 
ATOM     27  C   UNL     1      35.321 -22.208 -18.582  0.00  0.00    +0.001 C 
ATOM     28  C   UNL     1      33.070 -21.505 -19.107  0.00  0.00    +0.001 C 
ATOM     29  C   UNL     1      33.945 -22.302 -18.370  0.00  0.00    +0.000 C 
ENDBRANCH  21  24
ENDBRANCH  20  21
ENDBRANCH  19  20
ENDBRANCH   7  19
TORSDOF 6
ENDMDL
MODEL 9
REMARK VINA RESULT:     -10.3      5.214      8.625
REMARK  Name = 77993
REMARK  6 active torsions:
REMARK  status: ('A' for Active; 'I' for Inactive)
REMARK    1  A    between atoms: C_2  and  C_11
REMARK    2  A    between atoms: C_7  and  C_19
REMARK    3  A    between atoms: C_11  and  C_13
REMARK    4  A    between atoms: C_19  and  C_20
REMARK    5  A    between atoms: C_20  and  S_21
REMARK    6  A    between atoms: S_21  and  C_24
REMARK                            x       y       z     vdW  Elec       q    Type
REMARK                         _______ _______ _______ _____ _____    ______ ____
ROOT
ATOM      1  N   UNL     1      35.185 -17.261 -24.088  0.00  0.00    -0.312 N 
ATOM      2  C   UNL     1      35.433 -17.612 -21.930  0.00  0.00    -0.008 C 
ATOM      3  C   UNL     1      34.710 -16.409 -22.080  0.00  0.00    +0.010 C 
ATOM      4  C   UNL     1      35.715 -18.120 -23.162  0.00  0.00    +0.058 C 
ATOM      5  C   UNL     1      34.565 -16.206 -23.455  0.00  0.00    +0.048 C 
ATOM      6  C   UNL     1      34.160 -15.462 -21.194  0.00  0.00    -0.003 C 
ATOM      7  C   UNL     1      33.486 -14.352 -21.713  0.00  0.00    -0.020 C 
ATOM      8  C   UNL     1      33.895 -15.101 -23.988  0.00  0.00    +0.014 C 
ATOM      9  C   UNL     1      33.357 -14.175 -23.090  0.00  0.00    -0.003 C 
ATOM     10  H   UNL     1      35.239 -17.379 -25.063  0.00  0.00    +0.152 HD
ENDROOT
BRANCH   2  11
ATOM     11  C   UNL     1      35.830 -18.238 -20.629  0.00  0.00    +0.007 C 
BRANCH  11  13
ATOM     12  N   UNL     1      34.647 -20.314 -19.885  0.00  0.00    +0.387 N 
ATOM     13  C   UNL     1      35.759 -19.759 -20.670  0.00  0.00    -0.054 C 
ATOM     14  C   UNL     1      36.984 -20.403 -20.016  0.00  0.00    -0.023 C 
ATOM     15  C   UNL     1      36.473 -21.693 -19.384  0.00  0.00    -0.025 C 
ATOM     16  C   UNL     1      34.985 -21.727 -19.697  0.00  0.00    -0.077 C 
ATOM     17  C   UNL     1      33.350 -20.157 -20.533  0.00  0.00    -0.101 C 
ATOM     18  H   UNL     1      34.545 -19.815 -19.002  0.00  0.00    -0.080 HD
ENDBRANCH  11  13
ENDBRANCH   2  11
BRANCH   7  19
ATOM     19  C   UNL     1      32.901 -13.343 -20.780  0.00  0.00    +0.052 C 
BRANCH  19  20
ATOM     20  C   UNL     1      32.201 -12.176 -21.482  0.00  0.00    +0.161 C 
BRANCH  20  21
ATOM     21  S   UNL     1      31.411 -11.080 -20.346  0.00  0.00    +0.009 S 
ATOM     22  O   UNL     1      32.033 -11.231 -19.042  0.00  0.00    -0.169 OA
ATOM     23  O   UNL     1      29.976 -11.243 -20.497  0.00  0.00    -0.169 OA
BRANCH  21  24
ATOM     24  C   UNL     1      31.840  -9.470 -20.938  0.00  0.00    +0.106 C 
ATOM     25  C   UNL     1      31.704  -9.187 -22.287  0.00  0.00    +0.018 C 
ATOM     26  C   UNL     1      32.302  -8.521 -20.042  0.00  0.00    +0.018 C 
ATOM     27  C   UNL     1      32.042  -7.917 -22.753  0.00  0.00    +0.001 C 
ATOM     28  C   UNL     1      32.640  -7.251 -20.510  0.00  0.00    +0.001 C 
ATOM     29  C   UNL     1      32.510  -6.949 -21.864  0.00  0.00    +0.000 C 
ENDBRANCH  21  24
ENDBRANCH  20  21
ENDBRANCH  19  20
ENDBRANCH   7  19
TORSDOF 6
ENDMDL
