MODEL 1
REMARK VINA RESULT:     -13.4      0.000      0.000
REMARK  Name = 11167118
REMARK  6 active torsions:
REMARK  status: ('A' for Active; 'I' for Inactive)
REMARK    1  A    between atoms: N_2  and  C_6
REMARK    2  A    between atoms: N_2  and  C_15
REMARK    3  A    between atoms: C_8  and  O_25
REMARK    4  A    between atoms: C_17  and  C_24
REMARK    5  A    between atoms: O_25  and  C_27
REMARK    6  A    between atoms: C_30  and  C_34
REMARK                            x       y       z     vdW  Elec       q    Type
REMARK                         _______ _______ _______ _____ _____    ______ ____
ROOT
ATOM      1  N   UNL     1      35.318 -22.527 -18.027  0.00  0.00    -0.302 N 
ATOM      2  N   UNL     1      33.097 -22.467 -18.064  0.00  0.00    -0.302 N 
ATOM      3  C   UNL     1      34.992 -21.643 -19.024  0.00  0.00    +0.063 C 
ATOM      4  C   UNL     1      33.600 -21.624 -19.027  0.00  0.00    +0.060 C 
ATOM      5  C   UNL     1      34.154 -22.992 -17.483  0.00  0.00    +0.225 C 
ATOM      6  C   UNL     1      35.771 -20.882 -19.897  0.00  0.00    +0.053 C 
ATOM      7  C   UNL     1      35.086 -20.070 -20.807  0.00  0.00    +0.147 C 
ATOM      8  C   UNL     1      32.928 -20.802 -19.948  0.00  0.00    +0.019 C 
ATOM      9  C   UNL     1      33.690 -20.029 -20.833  0.00  0.00    +0.039 C 
ATOM     10  H   UNL     1      36.229 -22.780 -17.753  0.00  0.00    +0.150 HD
ATOM     11  H   UNL     1      32.151 -22.641 -17.853  0.00  0.00    +0.150 HD
ENDROOT
BRANCH   5  12
ATOM     12  N   UNL     1      34.231 -23.884 -16.472  0.00  0.00    -0.303 N 
ATOM     13  H   UNL     1      33.524 -24.570 -16.470  0.00  0.00    +0.150 HD
BRANCH  12  15
ATOM     14 CL   UNL     1      38.142 -24.289 -12.039  0.00  0.00    -0.082 Cl
ATOM     15  C   UNL     1      35.171 -23.992 -15.409  0.00  0.00    +0.047 C 
ATOM     16  C   UNL     1      35.768 -25.216 -15.144  0.00  0.00    +0.019 C 
ATOM     17  C   UNL     1      36.690 -25.321 -14.102  0.00  0.00    +0.083 C 
ATOM     18  C   UNL     1      35.479 -22.869 -14.653  0.00  0.00    +0.015 C 
ATOM     19  C   UNL     1      37.006 -24.199 -13.335  0.00  0.00    +0.062 C 
ATOM     20  C   UNL     1      36.400 -22.973 -13.610  0.00  0.00    +0.013 C 
BRANCH  17  24
ATOM     21  F   UNL     1      38.660 -26.626 -14.013  0.00  0.00    -0.166 F 
ATOM     22  F   UNL     1      37.096 -27.086 -12.576  0.00  0.00    -0.166 F 
ATOM     23  F   UNL     1      36.824 -27.596 -14.678  0.00  0.00    -0.166 F 
ATOM     24  C   UNL     1      37.317 -26.652 -13.840  0.00  0.00    +0.419 C 
ENDBRANCH  17  24
ENDBRANCH  12  15
ENDBRANCH   5  12
BRANCH   7  25
ATOM     25  O   UNL     1      35.796 -19.305 -21.684  0.00  0.00    -0.453 OA
BRANCH  25  27
ATOM     26  N   UNL     1      34.452 -15.437 -22.393  0.00  0.00    -0.239 NA
ATOM     27  C   UNL     1      35.348 -18.017 -21.920  0.00  0.00    +0.149 C 
ATOM     28  C   UNL     1      35.101 -17.616 -23.216  0.00  0.00    +0.061 C 
ATOM     29  C   UNL     1      35.158 -17.163 -20.855  0.00  0.00    +0.058 C 
ATOM     30  C   UNL     1      34.655 -16.317 -23.400  0.00  0.00    +0.137 C 
ATOM     31  C   UNL     1      34.710 -15.884 -21.143  0.00  0.00    +0.102 C 
BRANCH  30  34
ATOM     32  O   UNL     1      34.866 -16.377 -25.734  0.00  0.00    -0.268 OA
ATOM     33  N   UNL     1      33.514 -14.721 -24.839  0.00  0.00    -0.298 N 
ATOM     34  C   UNL     1      34.373 -15.821 -24.736  0.00  0.00    +0.264 C 
ATOM     35  C   UNL     1      33.121 -14.127 -26.097  0.00  0.00    +0.111 C 
ATOM     36  H   UNL     1      33.159 -14.328 -24.008  0.00  0.00    +0.150 HD
ENDBRANCH  30  34
ENDBRANCH  25  27
ENDBRANCH   7  25
TORSDOF 6
ENDMDL
MODEL 2
REMARK VINA RESULT:     -13.0      6.420     11.174
REMARK  Name = 11167118
REMARK  6 active torsions:
REMARK  status: ('A' for Active; 'I' for Inactive)
REMARK    1  A    between atoms: N_2  and  C_6
REMARK    2  A    between atoms: N_2  and  C_15
REMARK    3  A    between atoms: C_8  and  O_25
REMARK    4  A    between atoms: C_17  and  C_24
REMARK    5  A    between atoms: O_25  and  C_27
REMARK    6  A    between atoms: C_30  and  C_34
REMARK                            x       y       z     vdW  Elec       q    Type
REMARK                         _______ _______ _______ _____ _____    ______ ____
ROOT
ATOM      1  N   UNL     1      34.595 -19.239 -21.216  0.00  0.00    -0.302 N 
ATOM      2  N   UNL     1      36.685 -19.690 -20.606  0.00  0.00    -0.302 N 
ATOM      3  C   UNL     1      34.500 -20.273 -20.320  0.00  0.00    +0.063 C 
ATOM      4  C   UNL     1      35.818 -20.536 -19.955  0.00  0.00    +0.060 C 
ATOM      5  C   UNL     1      35.919 -18.925 -21.354  0.00  0.00    +0.225 C 
ATOM      6  C   UNL     1      33.409 -20.981 -19.813  0.00  0.00    +0.053 C 
ATOM      7  C   UNL     1      33.689 -21.997 -18.894  0.00  0.00    +0.147 C 
ATOM      8  C   UNL     1      36.081 -21.561 -19.030  0.00  0.00    +0.019 C 
ATOM      9  C   UNL     1      35.000 -22.283 -18.508  0.00  0.00    +0.039 C 
ATOM     10  H   UNL     1      33.844 -18.801 -21.676  0.00  0.00    +0.150 HD
ATOM     11  H   UNL     1      37.666 -19.661 -20.530  0.00  0.00    +0.150 HD
ENDROOT
BRANCH   5  12
ATOM     12  N   UNL     1      36.255 -17.924 -22.195  0.00  0.00    -0.303 N 
ATOM     13  H   UNL     1      37.219 -17.838 -22.372  0.00  0.00    +0.150 HD
BRANCH  12  15
ATOM     14 CL   UNL     1      32.854 -13.984 -25.028  0.00  0.00    -0.082 Cl
ATOM     15  C   UNL     1      35.436 -16.972 -22.867  0.00  0.00    +0.047 C 
ATOM     16  C   UNL     1      34.940 -15.881 -22.167  0.00  0.00    +0.019 C 
ATOM     17  C   UNL     1      34.138 -14.949 -22.826  0.00  0.00    +0.083 C 
ATOM     18  C   UNL     1      35.147 -17.149 -24.213  0.00  0.00    +0.015 C 
ATOM     19  C   UNL     1      33.841 -15.117 -24.179  0.00  0.00    +0.062 C 
ATOM     20  C   UNL     1      34.345 -16.217 -24.872  0.00  0.00    +0.013 C 
BRANCH  17  24
ATOM     21  F   UNL     1      34.146 -13.727 -20.801  0.00  0.00    -0.166 F 
ATOM     22  F   UNL     1      33.898 -12.599 -22.643  0.00  0.00    -0.166 F 
ATOM     23  F   UNL     1      32.272 -13.852 -21.910  0.00  0.00    -0.166 F 
ATOM     24  C   UNL     1      33.618 -13.784 -22.048  0.00  0.00    +0.419 C 
ENDBRANCH  17  24
ENDBRANCH  12  15
ENDBRANCH   5  12
BRANCH   7  25
ATOM     25  O   UNL     1      32.661 -22.721 -18.367  0.00  0.00    -0.453 OA
BRANCH  25  27
ATOM     26  N   UNL     1      32.780 -23.550 -14.296  0.00  0.00    -0.239 NA
ATOM     27  C   UNL     1      32.701 -22.997 -17.012  0.00  0.00    +0.149 C 
ATOM     28  C   UNL     1      33.844 -23.543 -16.467  0.00  0.00    +0.061 C 
ATOM     29  C   UNL     1      31.597 -22.719 -16.234  0.00  0.00    +0.058 C 
ATOM     30  C   UNL     1      33.833 -23.801 -15.106  0.00  0.00    +0.137 C 
ATOM     31  C   UNL     1      31.686 -23.014 -14.883  0.00  0.00    +0.102 C 
BRANCH  30  34
ATOM     32  O   UNL     1      35.277 -24.091 -13.281  0.00  0.00    -0.268 OA
ATOM     33  N   UNL     1      35.768 -25.272 -15.214  0.00  0.00    -0.298 N 
ATOM     34  C   UNL     1      35.001 -24.377 -14.460  0.00  0.00    +0.264 C 
ATOM     35  C   UNL     1      36.944 -25.943 -14.706  0.00  0.00    +0.111 C 
ATOM     36  H   UNL     1      35.494 -25.454 -16.142  0.00  0.00    +0.150 HD
ENDBRANCH  30  34
ENDBRANCH  25  27
ENDBRANCH   7  25
TORSDOF 6
ENDMDL
MODEL 3
REMARK VINA RESULT:     -13.0      6.724     11.360
REMARK  Name = 11167118
REMARK  6 active torsions:
REMARK  status: ('A' for Active; 'I' for Inactive)
REMARK    1  A    between atoms: N_2  and  C_6
REMARK    2  A    between atoms: N_2  and  C_15
REMARK    3  A    between atoms: C_8  and  O_25
REMARK    4  A    between atoms: C_17  and  C_24
REMARK    5  A    between atoms: O_25  and  C_27
REMARK    6  A    between atoms: C_30  and  C_34
REMARK                            x       y       z     vdW  Elec       q    Type
REMARK                         _______ _______ _______ _____ _____    ______ ____
ROOT
ATOM      1  N   UNL     1      34.256 -19.298 -21.117  0.00  0.00    -0.302 N 
ATOM      2  N   UNL     1      36.417 -19.485 -20.635  0.00  0.00    -0.302 N 
ATOM      3  C   UNL     1      34.351 -20.373 -20.270  0.00  0.00    +0.063 C 
ATOM      4  C   UNL     1      35.710 -20.468 -19.984  0.00  0.00    +0.060 C 
ATOM      5  C   UNL     1      35.515 -18.802 -21.305  0.00  0.00    +0.225 C 
ATOM      6  C   UNL     1      33.394 -21.243 -19.745  0.00  0.00    +0.053 C 
ATOM      7  C   UNL     1      33.859 -22.249 -18.893  0.00  0.00    +0.147 C 
ATOM      8  C   UNL     1      36.160 -21.486 -19.126  0.00  0.00    +0.019 C 
ATOM      9  C   UNL     1      35.217 -22.371 -18.587  0.00  0.00    +0.039 C 
ATOM     10  H   UNL     1      33.427 -18.948 -21.517  0.00  0.00    +0.150 HD
ATOM     11  H   UNL     1      37.389 -19.325 -20.607  0.00  0.00    +0.150 HD
ENDROOT
BRANCH   5  12
ATOM     12  N   UNL     1      35.666 -17.729 -22.112  0.00  0.00    -0.303 N 
ATOM     13  H   UNL     1      36.399 -17.802 -22.765  0.00  0.00    +0.150 HD
BRANCH  12  15
ATOM     14 CL   UNL     1      32.617 -12.651 -22.302  0.00  0.00    -0.082 Cl
ATOM     15  C   UNL     1      34.935 -16.509 -22.167  0.00  0.00    +0.047 C 
ATOM     16  C   UNL     1      34.634 -15.947 -23.400  0.00  0.00    +0.019 C 
ATOM     17  C   UNL     1      33.916 -14.752 -23.455  0.00  0.00    +0.083 C 
ATOM     18  C   UNL     1      34.533 -15.898 -20.987  0.00  0.00    +0.015 C 
ATOM     19  C   UNL     1      33.507 -14.129 -22.274  0.00  0.00    +0.062 C 
ATOM     20  C   UNL     1      33.816 -14.703 -21.041  0.00  0.00    +0.013 C 
BRANCH  17  24
ATOM     21  F   UNL     1      32.272 -14.111 -25.029  0.00  0.00    -0.166 F 
ATOM     22  F   UNL     1      34.081 -12.910 -24.934  0.00  0.00    -0.166 F 
ATOM     23  F   UNL     1      34.152 -14.914 -25.787  0.00  0.00    -0.166 F 
ATOM     24  C   UNL     1      33.605 -14.171 -24.796  0.00  0.00    +0.419 C 
ENDBRANCH  17  24
ENDBRANCH  12  15
ENDBRANCH   5  12
BRANCH   7  25
ATOM     25  O   UNL     1      32.969 -23.129 -18.351  0.00  0.00    -0.453 OA
BRANCH  25  27
ATOM     26  N   UNL     1      32.607 -23.199 -14.211  0.00  0.00    -0.239 NA
ATOM     27  C   UNL     1      32.848 -23.152 -16.973  0.00  0.00    +0.149 C 
ATOM     28  C   UNL     1      33.929 -23.538 -16.207  0.00  0.00    +0.061 C 
ATOM     29  C   UNL     1      31.652 -22.789 -16.394  0.00  0.00    +0.058 C 
ATOM     30  C   UNL     1      33.757 -23.544 -14.832  0.00  0.00    +0.137 C 
ATOM     31  C   UNL     1      31.581 -22.829 -15.010  0.00  0.00    +0.102 C 
BRANCH  30  34
ATOM     32  O   UNL     1      35.868 -24.482 -14.426  0.00  0.00    -0.268 OA
ATOM     33  N   UNL     1      34.708 -23.658 -12.596  0.00  0.00    -0.298 N 
ATOM     34  C   UNL     1      34.850 -23.939 -13.960  0.00  0.00    +0.264 C 
ATOM     35  C   UNL     1      35.716 -23.968 -11.606  0.00  0.00    +0.111 C 
ATOM     36  H   UNL     1      33.876 -23.227 -12.293  0.00  0.00    +0.150 HD
ENDBRANCH  30  34
ENDBRANCH  25  27
ENDBRANCH   7  25
TORSDOF 6
ENDMDL
MODEL 4
REMARK VINA RESULT:     -12.9      3.468      3.987
REMARK  Name = 11167118
REMARK  6 active torsions:
REMARK  status: ('A' for Active; 'I' for Inactive)
REMARK    1  A    between atoms: N_2  and  C_6
REMARK    2  A    between atoms: N_2  and  C_15
REMARK    3  A    between atoms: C_8  and  O_25
REMARK    4  A    between atoms: C_17  and  C_24
REMARK    5  A    between atoms: O_25  and  C_27
REMARK    6  A    between atoms: C_30  and  C_34
REMARK                            x       y       z     vdW  Elec       q    Type
REMARK                         _______ _______ _______ _____ _____    ______ ____
ROOT
ATOM      1  N   UNL     1      35.291 -22.223 -18.246  0.00  0.00    -0.302 N 
ATOM      2  N   UNL     1      33.080 -22.296 -18.456  0.00  0.00    -0.302 N 
ATOM      3  C   UNL     1      34.992 -21.360 -19.270  0.00  0.00    +0.063 C 
ATOM      4  C   UNL     1      33.605 -21.425 -19.381  0.00  0.00    +0.060 C 
ATOM      5  C   UNL     1      34.117 -22.757 -17.792  0.00  0.00    +0.225 C 
ATOM      6  C   UNL     1      35.790 -20.554 -20.084  0.00  0.00    +0.053 C 
ATOM      7  C   UNL     1      35.131 -19.786 -21.048  0.00  0.00    +0.147 C 
ATOM      8  C   UNL     1      32.960 -20.645 -20.356  0.00  0.00    +0.019 C 
ATOM      9  C   UNL     1      33.741 -19.829 -21.183  0.00  0.00    +0.039 C 
ATOM     10  H   UNL     1      36.191 -22.421 -17.900  0.00  0.00    +0.150 HD
ATOM     11  H   UNL     1      32.132 -22.527 -18.319  0.00  0.00    +0.150 HD
ENDROOT
BRANCH   5  12
ATOM     12  N   UNL     1      34.169 -23.643 -16.774  0.00  0.00    -0.303 N 
ATOM     13  H   UNL     1      34.952 -24.239 -16.784  0.00  0.00    +0.150 HD
BRANCH  12  15
ATOM     14 CL   UNL     1      30.465 -24.524 -12.233  0.00  0.00    -0.082 Cl
ATOM     15  C   UNL     1      33.271 -23.851 -15.689  0.00  0.00    +0.047 C 
ATOM     16  C   UNL     1      31.920 -23.584 -15.857  0.00  0.00    +0.019 C 
ATOM     17  C   UNL     1      31.040 -23.788 -14.794  0.00  0.00    +0.083 C 
ATOM     18  C   UNL     1      33.761 -24.318 -14.477  0.00  0.00    +0.015 C 
ATOM     19  C   UNL     1      31.522 -24.258 -13.571  0.00  0.00    +0.062 C 
ATOM     20  C   UNL     1      32.882 -24.522 -13.413  0.00  0.00    +0.013 C 
BRANCH  17  24
ATOM     21  F   UNL     1      29.306 -23.239 -16.304  0.00  0.00    -0.166 F 
ATOM     22  F   UNL     1      28.795 -24.522 -14.625  0.00  0.00    -0.166 F 
ATOM     23  F   UNL     1      29.206 -22.407 -14.291  0.00  0.00    -0.166 F 
ATOM     24  C   UNL     1      29.591 -23.493 -15.004  0.00  0.00    +0.419 C 
ENDBRANCH  17  24
ENDBRANCH  12  15
ENDBRANCH   5  12
BRANCH   7  25
ATOM     25  O   UNL     1      35.860 -18.980 -21.871  0.00  0.00    -0.453 OA
BRANCH  25  27
ATOM     26  N   UNL     1      34.409 -15.154 -22.603  0.00  0.00    -0.239 NA
ATOM     27  C   UNL     1      35.377 -17.706 -22.114  0.00  0.00    +0.149 C 
ATOM     28  C   UNL     1      35.101 -17.326 -23.411  0.00  0.00    +0.061 C 
ATOM     29  C   UNL     1      35.181 -16.845 -21.056  0.00  0.00    +0.058 C 
ATOM     30  C   UNL     1      34.620 -16.040 -23.602  0.00  0.00    +0.137 C 
ATOM     31  C   UNL     1      34.696 -15.581 -21.352  0.00  0.00    +0.102 C 
BRANCH  30  34
ATOM     32  O   UNL     1      34.673 -16.210 -25.940  0.00  0.00    -0.268 OA
ATOM     33  N   UNL     1      33.564 -14.385 -25.039  0.00  0.00    -0.298 N 
ATOM     34  C   UNL     1      34.307 -15.567 -24.940  0.00  0.00    +0.264 C 
ATOM     35  C   UNL     1      33.155 -13.799 -26.296  0.00  0.00    +0.111 C 
ATOM     36  H   UNL     1      33.306 -13.925 -24.206  0.00  0.00    +0.150 HD
ENDBRANCH  30  34
ENDBRANCH  25  27
ENDBRANCH   7  25
TORSDOF 6
ENDMDL
MODEL 5
REMARK VINA RESULT:     -12.6      3.605      4.366
REMARK  Name = 11167118
REMARK  6 active torsions:
REMARK  status: ('A' for Active; 'I' for Inactive)
REMARK    1  A    between atoms: N_2  and  C_6
REMARK    2  A    between atoms: N_2  and  C_15
REMARK    3  A    between atoms: C_8  and  O_25
REMARK    4  A    between atoms: C_17  and  C_24
REMARK    5  A    between atoms: O_25  and  C_27
REMARK    6  A    between atoms: C_30  and  C_34
REMARK                            x       y       z     vdW  Elec       q    Type
REMARK                         _______ _______ _______ _____ _____    ______ ____
ROOT
ATOM      1  N   UNL     1      33.816 -21.559 -19.831  0.00  0.00    -0.302 N 
ATOM      2  N   UNL     1      35.712 -21.963 -18.745  0.00  0.00    -0.302 N 
ATOM      3  C   UNL     1      34.725 -20.667 -20.339  0.00  0.00    +0.063 C 
ATOM      4  C   UNL     1      35.901 -20.940 -19.645  0.00  0.00    +0.060 C 
ATOM      5  C   UNL     1      34.452 -22.311 -18.883  0.00  0.00    +0.225 C 
ATOM      6  C   UNL     1      34.624 -19.675 -21.316  0.00  0.00    +0.053 C 
ATOM      7  C   UNL     1      35.781 -18.938 -21.587  0.00  0.00    +0.147 C 
ATOM      8  C   UNL     1      37.054 -20.189 -19.929  0.00  0.00    +0.019 C 
ATOM      9  C   UNL     1      36.975 -19.189 -20.907  0.00  0.00    +0.039 C 
ATOM     10  H   UNL     1      32.873 -21.642 -20.101  0.00  0.00    +0.150 HD
ATOM     11  H   UNL     1      36.376 -22.352 -18.131  0.00  0.00    +0.150 HD
ENDROOT
BRANCH   5  12
ATOM     12  N   UNL     1      33.743 -23.265 -18.242  0.00  0.00    -0.303 N 
ATOM     13  H   UNL     1      33.589 -24.086 -18.762  0.00  0.00    +0.150 HD
BRANCH  12  15
ATOM     14 CL   UNL     1      31.453 -23.306 -12.776  0.00  0.00    -0.082 Cl
ATOM     15  C   UNL     1      33.184 -23.273 -16.932  0.00  0.00    +0.047 C 
ATOM     16  C   UNL     1      31.813 -23.125 -16.773  0.00  0.00    +0.019 C 
ATOM     17  C   UNL     1      31.265 -23.134 -15.490  0.00  0.00    +0.083 C 
ATOM     18  C   UNL     1      34.018 -23.430 -15.834  0.00  0.00    +0.015 C 
ATOM     19  C   UNL     1      32.095 -23.290 -14.378  0.00  0.00    +0.062 C 
ATOM     20  C   UNL     1      33.471 -23.437 -14.551  0.00  0.00    +0.013 C 
BRANCH  17  24
ATOM     21  F   UNL     1      29.197 -24.089 -14.855  0.00  0.00    -0.166 F 
ATOM     22  F   UNL     1      29.455 -21.958 -14.515  0.00  0.00    -0.166 F 
ATOM     23  F   UNL     1      29.208 -22.711 -16.545  0.00  0.00    -0.166 F 
ATOM     24  C   UNL     1      29.786 -22.973 -15.348  0.00  0.00    +0.419 C 
ENDBRANCH  17  24
ENDBRANCH  12  15
ENDBRANCH   5  12
BRANCH   7  25
ATOM     25  O   UNL     1      35.741 -17.956 -22.532  0.00  0.00    -0.453 OA
BRANCH  25  27
ATOM     26  N   UNL     1      33.886 -14.379 -21.516  0.00  0.00    -0.239 NA
ATOM     27  C   UNL     1      35.123 -16.765 -22.193  0.00  0.00    +0.149 C 
ATOM     28  C   UNL     1      34.855 -15.840 -23.180  0.00  0.00    +0.061 C 
ATOM     29  C   UNL     1      34.788 -16.529 -20.878  0.00  0.00    +0.058 C 
ATOM     30  C   UNL     1      34.236 -14.664 -22.791  0.00  0.00    +0.137 C 
ATOM     31  C   UNL     1      34.172 -15.321 -20.590  0.00  0.00    +0.102 C 
BRANCH  30  34
ATOM     32  O   UNL     1      33.236 -13.916 -24.775  0.00  0.00    -0.268 OA
ATOM     33  N   UNL     1      34.402 -12.350 -23.525  0.00  0.00    -0.298 N 
ATOM     34  C   UNL     1      33.922 -13.641 -23.774  0.00  0.00    +0.264 C 
ATOM     35  C   UNL     1      34.155 -11.222 -24.396  0.00  0.00    +0.111 C 
ATOM     36  H   UNL     1      34.940 -12.202 -22.713  0.00  0.00    +0.150 HD
ENDBRANCH  30  34
ENDBRANCH  25  27
ENDBRANCH   7  25
TORSDOF 6
ENDMDL
MODEL 6
REMARK VINA RESULT:     -12.6      6.908     11.134
REMARK  Name = 11167118
REMARK  6 active torsions:
REMARK  status: ('A' for Active; 'I' for Inactive)
REMARK    1  A    between atoms: N_2  and  C_6
REMARK    2  A    between atoms: N_2  and  C_15
REMARK    3  A    between atoms: C_8  and  O_25
REMARK    4  A    between atoms: C_17  and  C_24
REMARK    5  A    between atoms: O_25  and  C_27
REMARK    6  A    between atoms: C_30  and  C_34
REMARK                            x       y       z     vdW  Elec       q    Type
REMARK                         _______ _______ _______ _____ _____    ______ ____
ROOT
ATOM      1  N   UNL     1      34.576 -19.244 -21.256  0.00  0.00    -0.302 N 
ATOM      2  N   UNL     1      36.727 -19.235 -20.700  0.00  0.00    -0.302 N 
ATOM      3  C   UNL     1      34.739 -20.312 -20.413  0.00  0.00    +0.063 C 
ATOM      4  C   UNL     1      36.091 -20.285 -20.080  0.00  0.00    +0.060 C 
ATOM      5  C   UNL     1      35.790 -18.632 -21.397  0.00  0.00    +0.225 C 
ATOM      6  C   UNL     1      33.849 -21.271 -19.927  0.00  0.00    +0.053 C 
ATOM      7  C   UNL     1      34.375 -22.238 -19.064  0.00  0.00    +0.147 C 
ATOM      8  C   UNL     1      36.602 -21.265 -19.212  0.00  0.00    +0.019 C 
ATOM      9  C   UNL     1      35.727 -22.237 -18.711  0.00  0.00    +0.039 C 
ATOM     10  H   UNL     1      33.733 -18.967 -21.684  0.00  0.00    +0.150 HD
ATOM     11  H   UNL     1      37.678 -18.988 -20.637  0.00  0.00    +0.150 HD
ENDROOT
BRANCH   5  12
ATOM     12  N   UNL     1      35.869 -17.542 -22.192  0.00  0.00    -0.303 N 
ATOM     13  H   UNL     1      36.620 -17.549 -22.829  0.00  0.00    +0.150 HD
BRANCH  12  15
ATOM     14 CL   UNL     1      32.414 -12.733 -22.416  0.00  0.00    -0.082 Cl
ATOM     15  C   UNL     1      35.040 -16.387 -22.256  0.00  0.00    +0.047 C 
ATOM     16  C   UNL     1      34.718 -15.844 -23.492  0.00  0.00    +0.019 C 
ATOM     17  C   UNL     1      33.905 -14.712 -23.554  0.00  0.00    +0.083 C 
ATOM     18  C   UNL     1      34.566 -15.820 -21.081  0.00  0.00    +0.015 C 
ATOM     19  C   UNL     1      33.422 -14.133 -22.379  0.00  0.00    +0.062 C 
ATOM     20  C   UNL     1      33.754 -14.688 -21.142  0.00  0.00    +0.013 C 
BRANCH  17  24
ATOM     21  F   UNL     1      34.150 -14.852 -25.902  0.00  0.00    -0.166 F 
ATOM     22  F   UNL     1      32.240 -14.146 -25.141  0.00  0.00    -0.166 F 
ATOM     23  F   UNL     1      34.001 -12.868 -25.009  0.00  0.00    -0.166 F 
ATOM     24  C   UNL     1      33.573 -14.149 -24.898  0.00  0.00    +0.419 C 
ENDBRANCH  17  24
ENDBRANCH  12  15
ENDBRANCH   5  12
BRANCH   7  25
ATOM     25  O   UNL     1      33.552 -23.200 -18.559  0.00  0.00    -0.453 OA
BRANCH  25  27
ATOM     26  N   UNL     1      32.700 -23.068 -14.494  0.00  0.00    -0.239 NA
ATOM     27  C   UNL     1      33.268 -23.156 -17.206  0.00  0.00    +0.149 C 
ATOM     28  C   UNL     1      31.953 -23.132 -16.792  0.00  0.00    +0.061 C 
ATOM     29  C   UNL     1      34.306 -23.139 -16.298  0.00  0.00    +0.058 C 
ATOM     30  C   UNL     1      31.721 -23.087 -15.427  0.00  0.00    +0.137 C 
ATOM     31  C   UNL     1      33.970 -23.094 -14.955  0.00  0.00    +0.102 C 
BRANCH  30  34
ATOM     32  O   UNL     1      30.127 -23.341 -13.726  0.00  0.00    -0.268 OA
ATOM     33  N   UNL     1      29.353 -22.680 -15.809  0.00  0.00    -0.298 N 
ATOM     34  C   UNL     1      30.362 -23.059 -14.915  0.00  0.00    +0.264 C 
ATOM     35  C   UNL     1      27.957 -22.582 -15.445  0.00  0.00    +0.111 C 
ATOM     36  H   UNL     1      29.608 -22.471 -16.737  0.00  0.00    +0.150 HD
ENDBRANCH  30  34
ENDBRANCH  25  27
ENDBRANCH   7  25
TORSDOF 6
ENDMDL
MODEL 7
REMARK VINA RESULT:     -12.5      3.746      4.464
REMARK  Name = 11167118
REMARK  6 active torsions:
REMARK  status: ('A' for Active; 'I' for Inactive)
REMARK    1  A    between atoms: N_2  and  C_6
REMARK    2  A    between atoms: N_2  and  C_15
REMARK    3  A    between atoms: C_8  and  O_25
REMARK    4  A    between atoms: C_17  and  C_24
REMARK    5  A    between atoms: O_25  and  C_27
REMARK    6  A    between atoms: C_30  and  C_34
REMARK                            x       y       z     vdW  Elec       q    Type
REMARK                         _______ _______ _______ _____ _____    ______ ____
ROOT
ATOM      1  N   UNL     1      35.317 -22.252 -18.270  0.00  0.00    -0.302 N 
ATOM      2  N   UNL     1      33.107 -22.226 -18.508  0.00  0.00    -0.302 N 
ATOM      3  C   UNL     1      35.069 -21.366 -19.287  0.00  0.00    +0.063 C 
ATOM      4  C   UNL     1      33.683 -21.368 -19.416  0.00  0.00    +0.060 C 
ATOM      5  C   UNL     1      34.115 -22.739 -17.837  0.00  0.00    +0.225 C 
ATOM      6  C   UNL     1      35.912 -20.587 -20.081  0.00  0.00    +0.053 C 
ATOM      7  C   UNL     1      35.300 -19.780 -21.044  0.00  0.00    +0.147 C 
ATOM      8  C   UNL     1      33.085 -20.550 -20.390  0.00  0.00    +0.019 C 
ATOM      9  C   UNL     1      33.912 -19.759 -21.198  0.00  0.00    +0.039 C 
ATOM     10  H   UNL     1      36.203 -22.494 -17.915  0.00  0.00    +0.150 HD
ATOM     11  H   UNL     1      32.149 -22.415 -18.386  0.00  0.00    +0.150 HD
ENDROOT
BRANCH   5  12
ATOM     12  N   UNL     1      34.114 -23.637 -16.828  0.00  0.00    -0.303 N 
ATOM     13  H   UNL     1      34.856 -24.285 -16.850  0.00  0.00    +0.150 HD
BRANCH  12  15
ATOM     14 CL   UNL     1      30.388 -24.321 -12.271  0.00  0.00    -0.082 Cl
ATOM     15  C   UNL     1      33.211 -23.798 -15.739  0.00  0.00    +0.047 C 
ATOM     16  C   UNL     1      31.870 -23.485 -15.910  0.00  0.00    +0.019 C 
ATOM     17  C   UNL     1      30.986 -23.643 -14.843  0.00  0.00    +0.083 C 
ATOM     18  C   UNL     1      33.686 -24.266 -14.522  0.00  0.00    +0.015 C 
ATOM     19  C   UNL     1      31.452 -24.112 -13.614  0.00  0.00    +0.062 C 
ATOM     20  C   UNL     1      32.802 -24.423 -13.454  0.00  0.00    +0.013 C 
BRANCH  17  24
ATOM     21  F   UNL     1      29.174 -22.205 -14.349  0.00  0.00    -0.166 F 
ATOM     22  F   UNL     1      29.267 -23.036 -16.355  0.00  0.00    -0.166 F 
ATOM     23  F   UNL     1      28.741 -24.317 -14.672  0.00  0.00    -0.166 F 
ATOM     24  C   UNL     1      29.547 -23.299 -15.056  0.00  0.00    +0.419 C 
ENDBRANCH  17  24
ENDBRANCH  12  15
ENDBRANCH   5  12
BRANCH   7  25
ATOM     25  O   UNL     1      36.075 -18.997 -21.849  0.00  0.00    -0.453 OA
BRANCH  25  27
ATOM     26  N   UNL     1      34.343 -15.580 -23.459  0.00  0.00    -0.239 NA
ATOM     27  C   UNL     1      35.498 -17.860 -22.385  0.00  0.00    +0.149 C 
ATOM     28  C   UNL     1      35.090 -16.849 -21.541  0.00  0.00    +0.061 C 
ATOM     29  C   UNL     1      35.345 -17.760 -23.752  0.00  0.00    +0.058 C 
ATOM     30  C   UNL     1      34.518 -15.731 -22.126  0.00  0.00    +0.137 C 
ATOM     31  C   UNL     1      34.762 -16.601 -24.239  0.00  0.00    +0.102 C 
BRANCH  30  34
ATOM     32  O   UNL     1      34.839 -14.067 -20.505  0.00  0.00    -0.268 OA
ATOM     33  N   UNL     1      32.735 -14.212 -21.468  0.00  0.00    -0.298 N 
ATOM     34  C   UNL     1      34.063 -14.624 -21.302  0.00  0.00    +0.264 C 
ATOM     35  C   UNL     1      32.142 -13.113 -20.738  0.00  0.00    +0.111 C 
ATOM     36  H   UNL     1      32.174 -14.697 -22.115  0.00  0.00    +0.150 HD
ENDBRANCH  30  34
ENDBRANCH  25  27
ENDBRANCH   7  25
TORSDOF 6
ENDMDL
MODEL 8
REMARK VINA RESULT:     -12.4      1.598      2.189
REMARK  Name = 11167118
REMARK  6 active torsions:
REMARK  status: ('A' for Active; 'I' for Inactive)
REMARK    1  A    between atoms: N_2  and  C_6
REMARK    2  A    between atoms: N_2  and  C_15
REMARK    3  A    between atoms: C_8  and  O_25
REMARK    4  A    between atoms: C_17  and  C_24
REMARK    5  A    between atoms: O_25  and  C_27
REMARK    6  A    between atoms: C_30  and  C_34
REMARK                            x       y       z     vdW  Elec       q    Type
REMARK                         _______ _______ _______ _____ _____    ______ ____
ROOT
ATOM      1  N   UNL     1      35.087 -22.705 -18.148  0.00  0.00    -0.302 N 
ATOM      2  N   UNL     1      32.891 -22.444 -18.363  0.00  0.00    -0.302 N 
ATOM      3  C   UNL     1      34.926 -21.701 -19.068  0.00  0.00    +0.063 C 
ATOM      4  C   UNL     1      33.546 -21.557 -19.185  0.00  0.00    +0.060 C 
ATOM      5  C   UNL     1      33.844 -23.117 -17.756  0.00  0.00    +0.225 C 
ATOM      6  C   UNL     1      35.841 -20.930 -19.787  0.00  0.00    +0.053 C 
ATOM      7  C   UNL     1      35.310 -19.973 -20.658  0.00  0.00    +0.147 C 
ATOM      8  C   UNL     1      33.030 -20.591 -20.065  0.00  0.00    +0.019 C 
ATOM      9  C   UNL     1      33.930 -19.805 -20.796  0.00  0.00    +0.039 C 
ATOM     10  H   UNL     1      35.946 -23.065 -17.828  0.00  0.00    +0.150 HD
ATOM     11  H   UNL     1      31.918 -22.553 -18.252  0.00  0.00    +0.150 HD
ENDROOT
BRANCH   5  12
ATOM     12  N   UNL     1      33.756 -24.109 -16.844  0.00  0.00    -0.303 N 
ATOM     13  H   UNL     1      33.339 -24.938 -17.173  0.00  0.00    +0.150 HD
BRANCH  12  15
ATOM     14 CL   UNL     1      35.439 -24.250 -11.163  0.00  0.00    -0.082 Cl
ATOM     15  C   UNL     1      34.169 -24.146 -15.482  0.00  0.00    +0.047 C 
ATOM     16  C   UNL     1      35.466 -24.532 -15.170  0.00  0.00    +0.019 C 
ATOM     17  C   UNL     1      35.871 -24.568 -13.836  0.00  0.00    +0.083 C 
ATOM     18  C   UNL     1      33.269 -23.796 -14.485  0.00  0.00    +0.015 C 
ATOM     19  C   UNL     1      34.974 -24.218 -12.825  0.00  0.00    +0.062 C 
ATOM     20  C   UNL     1      33.673 -23.833 -13.150  0.00  0.00    +0.013 C 
BRANCH  17  24
ATOM     21  F   UNL     1      37.974 -25.276 -14.653  0.00  0.00    -0.166 F 
ATOM     22  F   UNL     1      37.966 -24.024 -12.876  0.00  0.00    -0.166 F 
ATOM     23  F   UNL     1      37.291 -26.093 -12.750  0.00  0.00    -0.166 F 
ATOM     24  C   UNL     1      37.272 -24.986 -13.531  0.00  0.00    +0.419 C 
ENDBRANCH  17  24
ENDBRANCH  12  15
ENDBRANCH   5  12
BRANCH   7  25
ATOM     25  O   UNL     1      36.157 -19.191 -21.387  0.00  0.00    -0.453 OA
BRANCH  25  27
ATOM     26  N   UNL     1      34.470 -16.280 -23.826  0.00  0.00    -0.239 NA
ATOM     27  C   UNL     1      35.596 -18.222 -22.199  0.00  0.00    +0.149 C 
ATOM     28  C   UNL     1      35.220 -17.015 -21.648  0.00  0.00    +0.061 C 
ATOM     29  C   UNL     1      35.424 -18.483 -23.542  0.00  0.00    +0.058 C 
ATOM     30  C   UNL     1      34.662 -16.078 -22.503  0.00  0.00    +0.137 C 
ATOM     31  C   UNL     1      34.857 -17.481 -24.313  0.00  0.00    +0.102 C 
BRANCH  30  34
ATOM     32  O   UNL     1      34.830 -13.744 -22.349  0.00  0.00    -0.268 OA
ATOM     33  N   UNL     1      33.145 -14.765 -21.127  0.00  0.00    -0.298 N 
ATOM     34  C   UNL     1      34.242 -14.783 -21.997  0.00  0.00    +0.264 C 
ATOM     35  C   UNL     1      32.594 -13.556 -20.557  0.00  0.00    +0.111 C 
ATOM     36  H   UNL     1      32.726 -15.624 -20.889  0.00  0.00    +0.150 HD
ENDBRANCH  30  34
ENDBRANCH  25  27
ENDBRANCH   7  25
TORSDOF 6
ENDMDL
MODEL 9
REMARK VINA RESULT:     -12.3      6.673     11.152
REMARK  Name = 11167118
REMARK  6 active torsions:
REMARK  status: ('A' for Active; 'I' for Inactive)
REMARK    1  A    between atoms: N_2  and  C_6
REMARK    2  A    between atoms: N_2  and  C_15
REMARK    3  A    between atoms: C_8  and  O_25
REMARK    4  A    between atoms: C_17  and  C_24
REMARK    5  A    between atoms: O_25  and  C_27
REMARK    6  A    between atoms: C_30  and  C_34
REMARK                            x       y       z     vdW  Elec       q    Type
REMARK                         _______ _______ _______ _____ _____    ______ ____
ROOT
ATOM      1  N   UNL     1      36.228 -19.403 -20.973  0.00  0.00    -0.302 N 
ATOM      2  N   UNL     1      34.105 -19.081 -21.546  0.00  0.00    -0.302 N 
ATOM      3  C   UNL     1      35.507 -20.298 -20.225  0.00  0.00    +0.063 C 
ATOM      4  C   UNL     1      34.185 -20.076 -20.600  0.00  0.00    +0.060 C 
ATOM      5  C   UNL     1      35.347 -18.699 -21.746  0.00  0.00    +0.225 C 
ATOM      6  C   UNL     1      35.886 -21.253 -19.280  0.00  0.00    +0.053 C 
ATOM      7  C   UNL     1      34.861 -22.008 -18.702  0.00  0.00    +0.147 C 
ATOM      8  C   UNL     1      33.167 -20.844 -20.009  0.00  0.00    +0.019 C 
ATOM      9  C   UNL     1      33.525 -21.809 -19.058  0.00  0.00    +0.039 C 
ATOM     10  H   UNL     1      37.206 -19.289 -20.956  0.00  0.00    +0.150 HD
ATOM     11  H   UNL     1      33.294 -18.728 -21.979  0.00  0.00    +0.150 HD
ENDROOT
BRANCH   5  12
ATOM     12  N   UNL     1      35.838 -17.751 -22.574  0.00  0.00    -0.303 N 
ATOM     13  H   UNL     1      36.815 -17.768 -22.689  0.00  0.00    +0.150 HD
BRANCH  12  15
ATOM     14 CL   UNL     1      33.050 -13.533 -25.665  0.00  0.00    -0.082 Cl
ATOM     15  C   UNL     1      35.166 -16.733 -23.308  0.00  0.00    +0.047 C 
ATOM     16  C   UNL     1      34.690 -15.612 -22.644  0.00  0.00    +0.019 C 
ATOM     17  C   UNL     1      34.032 -14.613 -23.363  0.00  0.00    +0.083 C 
ATOM     18  C   UNL     1      34.998 -16.876 -24.679  0.00  0.00    +0.015 C 
ATOM     19  C   UNL     1      33.857 -14.747 -24.741  0.00  0.00    +0.062 C 
ATOM     20  C   UNL     1      34.340 -15.879 -25.399  0.00  0.00    +0.013 C 
BRANCH  17  24
ATOM     21  F   UNL     1      33.861 -13.456 -21.308  0.00  0.00    -0.166 F 
ATOM     22  F   UNL     1      34.029 -12.258 -23.114  0.00  0.00    -0.166 F 
ATOM     23  F   UNL     1      32.180 -13.332 -22.692  0.00  0.00    -0.166 F 
ATOM     24  C   UNL     1      33.530 -13.417 -22.621  0.00  0.00    +0.419 C 
ENDBRANCH  17  24
ENDBRANCH  12  15
ENDBRANCH   5  12
BRANCH   7  25
ATOM     25  O   UNL     1      35.172 -22.955 -17.772  0.00  0.00    -0.453 OA
BRANCH  25  27
ATOM     26  N   UNL     1      32.588 -23.414 -14.550  0.00  0.00    -0.239 NA
ATOM     27  C   UNL     1      34.312 -23.108 -16.699  0.00  0.00    +0.149 C 
ATOM     28  C   UNL     1      32.951 -23.100 -16.920  0.00  0.00    +0.061 C 
ATOM     29  C   UNL     1      34.833 -23.265 -15.433  0.00  0.00    +0.058 C 
ATOM     30  C   UNL     1      32.132 -23.257 -15.813  0.00  0.00    +0.137 C 
ATOM     31  C   UNL     1      33.931 -23.414 -14.392  0.00  0.00    +0.102 C 
BRANCH  30  34
ATOM     32  O   UNL     1      30.131 -22.455 -16.736  0.00  0.00    -0.268 OA
ATOM     33  N   UNL     1      29.971 -24.212 -15.232  0.00  0.00    -0.298 N 
ATOM     34  C   UNL     1      30.687 -23.259 -15.966  0.00  0.00    +0.264 C 
ATOM     35  C   UNL     1      28.533 -24.354 -15.293  0.00  0.00    +0.111 C 
ATOM     36  H   UNL     1      30.473 -24.817 -14.640  0.00  0.00    +0.150 HD
ENDBRANCH  30  34
ENDBRANCH  25  27
ENDBRANCH   7  25
TORSDOF 6
ENDMDL
