MODEL 1
REMARK VINA RESULT:     -10.8      0.000      0.000
REMARK  Name = 42647297
REMARK  5 active torsions:
REMARK  status: ('A' for Active; 'I' for Inactive)
REMARK    1  A    between atoms: N_3  and  C_14
REMARK    2  A    between atoms: C_7  and  N_20
REMARK    3  A    between atoms: N_20  and  C_24
REMARK    4  A    between atoms: C_22  and  C_31
REMARK    5  A    between atoms: N_30  and  C_33
REMARK                            x       y       z     vdW  Elec       q    Type
REMARK                         _______ _______ _______ _____ _____    ______ ____
ROOT
ATOM      1  O   UNL     1      31.562 -13.383 -19.965  0.00  0.00    -0.269 OA
ATOM      2  N   UNL     1      32.094 -11.527 -21.287  0.00  0.00    -0.240 N 
ATOM      3  N   UNL     1      32.979  -9.901 -22.909  0.00  0.00    -0.174 N 
ATOM      4  N   UNL     1      33.870  -9.841 -23.921  0.00  0.00    -0.171 NA
ATOM      5  C   UNL     1      32.904 -11.136 -22.338  0.00  0.00    +0.133 C 
ATOM      6  C   UNL     1      33.795 -11.924 -23.013  0.00  0.00    +0.064 C 
ATOM      7  C   UNL     1      33.947 -13.288 -22.644  0.00  0.00    +0.057 C 
ATOM      8  C   UNL     1      33.188 -13.743 -21.624  0.00  0.00    +0.073 C 
ATOM      9  C   UNL     1      32.205 -12.867 -20.881  0.00  0.00    +0.255 C 
ATOM     10  C   UNL     1      34.367 -11.084 -23.979  0.00  0.00    +0.122 C 
ATOM     11  C   UNL     1      31.178 -10.601 -20.637  0.00  0.00    +0.122 C 
ENDROOT
BRANCH   3  14
ATOM     12  F   UNL     1      33.790  -8.253 -20.825  0.00  0.00    -0.203 F 
ATOM     13  F   UNL     1      30.199  -5.293 -21.665  0.00  0.00    -0.204 F 
ATOM     14  C   UNL     1      32.278  -8.738 -22.592  0.00  0.00    +0.103 C 
ATOM     15  C   UNL     1      32.706  -7.926 -21.542  0.00  0.00    +0.158 C 
ATOM     16  C   UNL     1      31.148  -8.386 -23.330  0.00  0.00    +0.021 C 
ATOM     17  C   UNL     1      32.003  -6.762 -21.229  0.00  0.00    +0.061 C 
ATOM     18  C   UNL     1      30.445  -7.222 -23.017  0.00  0.00    +0.031 C 
ATOM     19  C   UNL     1      30.873  -6.410 -21.966  0.00  0.00    +0.142 C 
ENDBRANCH   3  14
BRANCH   7  20
ATOM     20  N   UNL     1      34.837 -14.082 -23.314  0.00  0.00    -0.313 N 
ATOM     21  H   UNL     1      35.569 -13.612 -23.774  0.00  0.00    +0.152 HD
BRANCH  20  24
ATOM     22  C   UNL     1      35.221 -17.640 -22.429  0.00  0.00    +0.055 C 
ATOM     23  C   UNL     1      35.215 -16.249 -22.332  0.00  0.00    +0.019 C 
ATOM     24  C   UNL     1      34.838 -15.474 -23.429  0.00  0.00    +0.044 C 
ATOM     25  C   UNL     1      34.850 -18.258 -23.624  0.00  0.00    +0.004 C 
ATOM     26  C   UNL     1      34.466 -16.092 -24.623  0.00  0.00    -0.008 C 
ATOM     27  C   UNL     1      34.472 -17.483 -24.721  0.00  0.00    -0.003 C 
ATOM     28  C   UNL     1      34.057 -15.288 -25.815  0.00  0.00    +0.032 C 
BRANCH  22  31
ATOM     29  O   UNL     1      36.658 -18.191 -20.658  0.00  0.00    -0.270 OA
ATOM     30  N   UNL     1      34.784 -19.523 -20.948  0.00  0.00    -0.302 N 
ATOM     31  C   UNL     1      35.615 -18.448 -21.286  0.00  0.00    +0.246 C 
ATOM     32  H   UNL     1      33.972 -19.672 -21.484  0.00  0.00    +0.150 HD
BRANCH  30  33
ATOM     33  C   UNL     1      35.056 -20.418 -19.858  0.00  0.00    +0.072 C 
ATOM     34  C   UNL     1      35.323 -21.875 -20.098  0.00  0.00    +0.021 C 
ATOM     35  C   UNL     1      34.051 -21.445 -19.427  0.00  0.00    +0.021 C 
ENDBRANCH  30  33
ENDBRANCH  22  31
ENDBRANCH  20  24
ENDBRANCH   7  20
TORSDOF 5
ENDMDL
MODEL 2
REMARK VINA RESULT:     -10.7      6.793     10.869
REMARK  Name = 42647297
REMARK  5 active torsions:
REMARK  status: ('A' for Active; 'I' for Inactive)
REMARK    1  A    between atoms: N_3  and  C_14
REMARK    2  A    between atoms: C_7  and  N_20
REMARK    3  A    between atoms: N_20  and  C_24
REMARK    4  A    between atoms: C_22  and  C_31
REMARK    5  A    between atoms: N_30  and  C_33
REMARK                            x       y       z     vdW  Elec       q    Type
REMARK                         _______ _______ _______ _____ _____    ______ ____
ROOT
ATOM      1  O   UNL     1      37.919 -21.521 -17.991  0.00  0.00    -0.269 OA
ATOM      2  N   UNL     1      36.221 -20.650 -19.344  0.00  0.00    -0.240 N 
ATOM      3  N   UNL     1      34.139 -20.074 -20.523  0.00  0.00    -0.174 N 
ATOM      4  N   UNL     1      32.840 -20.438 -20.550  0.00  0.00    -0.171 NA
ATOM      5  C   UNL     1      34.872 -20.779 -19.617  0.00  0.00    +0.133 C 
ATOM      6  C   UNL     1      34.004 -21.653 -19.021  0.00  0.00    +0.064 C 
ATOM      7  C   UNL     1      34.478 -22.538 -18.015  0.00  0.00    +0.057 C 
ATOM      8  C   UNL     1      35.788 -22.469 -17.695  0.00  0.00    +0.073 C 
ATOM      9  C   UNL     1      36.743 -21.502 -18.358  0.00  0.00    +0.255 C 
ATOM     10  C   UNL     1      32.764 -21.406 -19.627  0.00  0.00    +0.122 C 
ATOM     11  C   UNL     1      37.057 -19.683 -20.044  0.00  0.00    +0.122 C 
ENDROOT
BRANCH   3  14
ATOM     12  F   UNL     1      34.820 -20.626 -23.160  0.00  0.00    -0.203 F 
ATOM     13  F   UNL     1      35.747 -16.057 -23.957  0.00  0.00    -0.204 F 
ATOM     14  C   UNL     1      34.547 -19.061 -21.392  0.00  0.00    +0.103 C 
ATOM     15  C   UNL     1      34.882 -19.364 -22.711  0.00  0.00    +0.158 C 
ATOM     16  C   UNL     1      34.616 -17.744 -20.938  0.00  0.00    +0.021 C 
ATOM     17  C   UNL     1      35.287 -18.348 -23.578  0.00  0.00    +0.061 C 
ATOM     18  C   UNL     1      35.022 -16.729 -21.805  0.00  0.00    +0.031 C 
ATOM     19  C   UNL     1      35.358 -17.032 -23.125  0.00  0.00    +0.142 C 
ENDBRANCH   3  14
BRANCH   7  20
ATOM     20  N   UNL     1      33.616 -23.415 -17.415  0.00  0.00    -0.313 N 
ATOM     21  H   UNL     1      33.201 -24.082 -18.007  0.00  0.00    +0.152 HD
BRANCH  20  24
ATOM     22  C   UNL     1      33.835 -23.988 -13.779  0.00  0.00    +0.055 C 
ATOM     23  C   UNL     1      34.183 -23.915 -15.128  0.00  0.00    +0.019 C 
ATOM     24  C   UNL     1      33.249 -23.482 -16.068  0.00  0.00    +0.044 C 
ATOM     25  C   UNL     1      32.550 -23.628 -13.371  0.00  0.00    +0.004 C 
ATOM     26  C   UNL     1      31.965 -23.122 -15.660  0.00  0.00    -0.008 C 
ATOM     27  C   UNL     1      31.615 -23.195 -14.312  0.00  0.00    -0.003 C 
ATOM     28  C   UNL     1      30.943 -22.654 -16.645  0.00  0.00    +0.032 C 
BRANCH  22  31
ATOM     29  O   UNL     1      34.690 -24.131 -11.600  0.00  0.00    -0.270 OA
ATOM     30  N   UNL     1      35.878 -25.211 -13.271  0.00  0.00    -0.302 N 
ATOM     31  C   UNL     1      34.809 -24.440 -12.799  0.00  0.00    +0.246 C 
ATOM     32  H   UNL     1      35.913 -25.422 -14.232  0.00  0.00    +0.150 HD
BRANCH  30  33
ATOM     33  C   UNL     1      36.925 -25.709 -12.424  0.00  0.00    +0.072 C 
ATOM     34  C   UNL     1      38.072 -24.834 -12.010  0.00  0.00    +0.021 C 
ATOM     35  C   UNL     1      38.301 -25.972 -12.962  0.00  0.00    +0.021 C 
ENDBRANCH  30  33
ENDBRANCH  22  31
ENDBRANCH  20  24
ENDBRANCH   7  20
TORSDOF 5
ENDMDL
MODEL 3
REMARK VINA RESULT:     -10.4      6.842     10.585
REMARK  Name = 42647297
REMARK  5 active torsions:
REMARK  status: ('A' for Active; 'I' for Inactive)
REMARK    1  A    between atoms: N_3  and  C_14
REMARK    2  A    between atoms: C_7  and  N_20
REMARK    3  A    between atoms: N_20  and  C_24
REMARK    4  A    between atoms: C_22  and  C_31
REMARK    5  A    between atoms: N_30  and  C_33
REMARK                            x       y       z     vdW  Elec       q    Type
REMARK                         _______ _______ _______ _____ _____    ______ ____
ROOT
ATOM      1  O   UNL     1      32.289 -22.145 -18.743  0.00  0.00    -0.269 OA
ATOM      2  N   UNL     1      33.967 -20.911 -19.809  0.00  0.00    -0.240 N 
ATOM      3  N   UNL     1      36.040 -19.839 -20.587  0.00  0.00    -0.174 N 
ATOM      4  N   UNL     1      37.358 -19.820 -20.297  0.00  0.00    -0.171 NA
ATOM      5  C   UNL     1      35.327 -20.667 -19.774  0.00  0.00    +0.133 C 
ATOM      6  C   UNL     1      36.228 -21.217 -18.904  0.00  0.00    +0.064 C 
ATOM      7  C   UNL     1      35.781 -22.138 -17.918  0.00  0.00    +0.057 C 
ATOM      8  C   UNL     1      34.461 -22.425 -17.891  0.00  0.00    +0.073 C 
ATOM      9  C   UNL     1      33.470 -21.813 -18.854  0.00  0.00    +0.255 C 
ATOM     10  C   UNL     1      37.466 -20.667 -19.264  0.00  0.00    +0.122 C 
ATOM     11  C   UNL     1      33.095 -20.266 -20.782  0.00  0.00    +0.122 C 
ENDROOT
BRANCH   3  14
ATOM     12  F   UNL     1      35.613 -17.115 -20.251  0.00  0.00    -0.203 F 
ATOM     13  F   UNL     1      34.292 -16.685 -24.772  0.00  0.00    -0.204 F 
ATOM     14  C   UNL     1      35.598 -19.041 -21.642  0.00  0.00    +0.103 C 
ATOM     15  C   UNL     1      35.392 -17.676 -21.448  0.00  0.00    +0.158 C 
ATOM     16  C   UNL     1      35.364 -19.611 -22.893  0.00  0.00    +0.021 C 
ATOM     17  C   UNL     1      34.951 -16.880 -22.506  0.00  0.00    +0.061 C 
ATOM     18  C   UNL     1      34.922 -18.816 -23.950  0.00  0.00    +0.031 C 
ATOM     19  C   UNL     1      34.716 -17.450 -23.757  0.00  0.00    +0.142 C 
ENDBRANCH   3  14
BRANCH   7  20
ATOM     20  N   UNL     1      36.676 -22.691 -17.043  0.00  0.00    -0.313 N 
ATOM     21  H   UNL     1      37.612 -22.715 -17.346  0.00  0.00    +0.152 HD
BRANCH  20  24
ATOM     22  C   UNL     1      34.855 -23.819 -14.043  0.00  0.00    +0.055 C 
ATOM     23  C   UNL     1      35.119 -23.287 -15.305  0.00  0.00    +0.019 C 
ATOM     24  C   UNL     1      36.430 -23.228 -15.777  0.00  0.00    +0.044 C 
ATOM     25  C   UNL     1      35.903 -24.293 -13.253  0.00  0.00    +0.004 C 
ATOM     26  C   UNL     1      37.477 -23.703 -14.988  0.00  0.00    -0.008 C 
ATOM     27  C   UNL     1      37.214 -24.236 -13.726  0.00  0.00    -0.003 C 
ATOM     28  C   UNL     1      38.891 -23.654 -15.468  0.00  0.00    +0.032 C 
BRANCH  22  31
ATOM     29  O   UNL     1      33.198 -24.595 -12.574  0.00  0.00    -0.270 OA
ATOM     30  N   UNL     1      32.530 -23.119 -14.231  0.00  0.00    -0.302 N 
ATOM     31  C   UNL     1      33.488 -23.880 -13.550  0.00  0.00    +0.246 C 
ATOM     32  H   UNL     1      32.825 -22.572 -14.995  0.00  0.00    +0.150 HD
BRANCH  30  33
ATOM     33  C   UNL     1      31.140 -23.096 -13.870  0.00  0.00    +0.072 C 
ATOM     34  C   UNL     1      30.207 -24.188 -14.305  0.00  0.00    +0.021 C 
ATOM     35  C   UNL     1      30.078 -22.812 -14.892  0.00  0.00    +0.021 C 
ENDBRANCH  30  33
ENDBRANCH  22  31
ENDBRANCH  20  24
ENDBRANCH   7  20
TORSDOF 5
ENDMDL
MODEL 4
REMARK VINA RESULT:     -10.3      4.204     10.296
REMARK  Name = 42647297
REMARK  5 active torsions:
REMARK  status: ('A' for Active; 'I' for Inactive)
REMARK    1  A    between atoms: N_3  and  C_14
REMARK    2  A    between atoms: C_7  and  N_20
REMARK    3  A    between atoms: N_20  and  C_24
REMARK    4  A    between atoms: C_22  and  C_31
REMARK    5  A    between atoms: N_30  and  C_33
REMARK                            x       y       z     vdW  Elec       q    Type
REMARK                         _______ _______ _______ _____ _____    ______ ____
ROOT
ATOM      1  O   UNL     1      30.657 -10.906 -20.259  0.00  0.00    -0.269 OA
ATOM      2  N   UNL     1      32.204 -11.404 -21.942  0.00  0.00    -0.240 N 
ATOM      3  N   UNL     1      33.940 -11.427 -23.685  0.00  0.00    -0.174 N 
ATOM      4  N   UNL     1      34.790 -10.578 -24.300  0.00  0.00    -0.171 NA
ATOM      5  C   UNL     1      33.166 -10.819 -22.744  0.00  0.00    +0.133 C 
ATOM      6  C   UNL     1      33.528  -9.500 -22.745  0.00  0.00    +0.064 C 
ATOM      7  C   UNL     1      32.889  -8.594 -21.855  0.00  0.00    +0.057 C 
ATOM      8  C   UNL     1      31.935  -9.095 -21.040  0.00  0.00    +0.073 C 
ATOM      9  C   UNL     1      31.538 -10.554 -21.044  0.00  0.00    +0.255 C 
ATOM     10  C   UNL     1      34.532  -9.398 -23.719  0.00  0.00    +0.122 C 
ATOM     11  C   UNL     1      31.895 -12.826 -22.025  0.00  0.00    +0.122 C 
ENDROOT
BRANCH   3  14
ATOM     12  F   UNL     1      34.994 -13.394 -22.030  0.00  0.00    -0.203 F 
ATOM     13  F   UNL     1      34.033 -16.725 -25.247  0.00  0.00    -0.204 F 
ATOM     14  C   UNL     1      33.966 -12.766 -24.078  0.00  0.00    +0.103 C 
ATOM     15  C   UNL     1      34.499 -13.734 -23.228  0.00  0.00    +0.158 C 
ATOM     16  C   UNL     1      33.454 -13.133 -25.322  0.00  0.00    +0.021 C 
ATOM     17  C   UNL     1      34.521 -15.072 -23.624  0.00  0.00    +0.061 C 
ATOM     18  C   UNL     1      33.477 -14.471 -25.717  0.00  0.00    +0.031 C 
ATOM     19  C   UNL     1      34.011 -15.440 -24.868  0.00  0.00    +0.142 C 
ENDBRANCH   3  14
BRANCH   7  20
ATOM     20  N   UNL     1      33.245  -7.273 -21.851  0.00  0.00    -0.313 N 
ATOM     21  H   UNL     1      33.810  -6.984 -21.099  0.00  0.00    +0.152 HD
BRANCH  20  24
ATOM     22  C   UNL     1      33.391  -5.118 -24.838  0.00  0.00    +0.055 C 
ATOM     23  C   UNL     1      33.712  -6.101 -23.903  0.00  0.00    +0.019 C 
ATOM     24  C   UNL     1      32.909  -6.284 -22.778  0.00  0.00    +0.044 C 
ATOM     25  C   UNL     1      32.264  -4.317 -24.649  0.00  0.00    +0.004 C 
ATOM     26  C   UNL     1      31.781  -5.484 -22.590  0.00  0.00    -0.008 C 
ATOM     27  C   UNL     1      31.459  -4.501 -23.525  0.00  0.00    -0.003 C 
ATOM     28  C   UNL     1      30.901  -5.658 -21.395  0.00  0.00    +0.032 C 
BRANCH  22  31
ATOM     29  O   UNL     1      35.368  -5.424 -26.063  0.00  0.00    -0.270 OA
ATOM     30  N   UNL     1      33.705  -4.148 -27.050  0.00  0.00    -0.302 N 
ATOM     31  C   UNL     1      34.230  -4.926 -26.011  0.00  0.00    +0.246 C 
ATOM     32  H   UNL     1      32.796  -3.783 -26.947  0.00  0.00    +0.150 HD
BRANCH  30  33
ATOM     33  C   UNL     1      34.425  -3.857 -28.258  0.00  0.00    +0.072 C 
ATOM     34  C   UNL     1      33.753  -3.185 -29.420  0.00  0.00    +0.021 C 
ATOM     35  C   UNL     1      34.166  -4.625 -29.521  0.00  0.00    +0.021 C 
ENDBRANCH  30  33
ENDBRANCH  22  31
ENDBRANCH  20  24
ENDBRANCH   7  20
TORSDOF 5
ENDMDL
MODEL 5
REMARK VINA RESULT:     -10.2      0.920      1.137
REMARK  Name = 42647297
REMARK  5 active torsions:
REMARK  status: ('A' for Active; 'I' for Inactive)
REMARK    1  A    between atoms: N_3  and  C_14
REMARK    2  A    between atoms: C_7  and  N_20
REMARK    3  A    between atoms: N_20  and  C_24
REMARK    4  A    between atoms: C_22  and  C_31
REMARK    5  A    between atoms: N_30  and  C_33
REMARK                            x       y       z     vdW  Elec       q    Type
REMARK                         _______ _______ _______ _____ _____    ______ ____
ROOT
ATOM      1  O   UNL     1      31.307 -12.921 -20.213  0.00  0.00    -0.269 OA
ATOM      2  N   UNL     1      31.938 -10.963 -21.327  0.00  0.00    -0.240 N 
ATOM      3  N   UNL     1      32.929  -9.213 -22.744  0.00  0.00    -0.174 N 
ATOM      4  N   UNL     1      33.869  -9.078 -23.704  0.00  0.00    -0.171 NA
ATOM      5  C   UNL     1      32.804 -10.494 -22.297  0.00  0.00    +0.133 C 
ATOM      6  C   UNL     1      33.712 -11.235 -23.002  0.00  0.00    +0.064 C 
ATOM      7  C   UNL     1      33.821 -12.631 -22.757  0.00  0.00    +0.057 C 
ATOM      8  C   UNL     1      33.005 -13.162 -21.820  0.00  0.00    +0.073 C 
ATOM      9  C   UNL     1      32.004 -12.337 -21.044  0.00  0.00    +0.255 C 
ATOM     10  C   UNL     1      34.345 -10.322 -23.856  0.00  0.00    +0.122 C 
ATOM     11  C   UNL     1      31.008 -10.080 -20.635  0.00  0.00    +0.122 C 
ENDROOT
BRANCH   3  14
ATOM     12  F   UNL     1      33.698  -7.760 -20.504  0.00  0.00    -0.203 F 
ATOM     13  F   UNL     1      30.179  -4.679 -21.200  0.00  0.00    -0.204 F 
ATOM     14  C   UNL     1      32.235  -8.068 -22.352  0.00  0.00    +0.103 C 
ATOM     15  C   UNL     1      32.642  -7.356 -21.224  0.00  0.00    +0.158 C 
ATOM     16  C   UNL     1      31.135  -7.636 -23.092  0.00  0.00    +0.021 C 
ATOM     17  C   UNL     1      31.946  -6.210 -20.836  0.00  0.00    +0.061 C 
ATOM     18  C   UNL     1      30.440  -6.491 -22.702  0.00  0.00    +0.031 C 
ATOM     19  C   UNL     1      30.846  -5.778 -21.574  0.00  0.00    +0.142 C 
ENDBRANCH   3  14
BRANCH   7  20
ATOM     20  N   UNL     1      34.727 -13.379 -23.457  0.00  0.00    -0.313 N 
ATOM     21  H   UNL     1      35.586 -12.940 -23.653  0.00  0.00    +0.152 HD
BRANCH  20  24
ATOM     22  C   UNL     1      34.932 -17.057 -23.614  0.00  0.00    +0.055 C 
ATOM     23  C   UNL     1      35.063 -15.746 -23.158  0.00  0.00    +0.019 C 
ATOM     24  C   UNL     1      34.588 -14.686 -23.930  0.00  0.00    +0.044 C 
ATOM     25  C   UNL     1      34.326 -17.309 -24.845  0.00  0.00    +0.004 C 
ATOM     26  C   UNL     1      33.981 -14.939 -25.161  0.00  0.00    -0.008 C 
ATOM     27  C   UNL     1      33.850 -16.250 -25.618  0.00  0.00    -0.003 C 
ATOM     28  C   UNL     1      33.462 -13.824 -26.010  0.00  0.00    +0.032 C 
BRANCH  22  31
ATOM     29  O   UNL     1      36.643 -18.273 -22.566  0.00  0.00    -0.270 OA
ATOM     30  N   UNL     1      34.484 -19.086 -22.345  0.00  0.00    -0.302 N 
ATOM     31  C   UNL     1      35.428 -18.161 -22.809  0.00  0.00    +0.246 C 
ATOM     32  H   UNL     1      33.538 -18.940 -22.571  0.00  0.00    +0.150 HD
BRANCH  30  33
ATOM     33  C   UNL     1      34.829 -20.237 -21.557  0.00  0.00    +0.072 C 
ATOM     34  C   UNL     1      34.196 -20.479 -20.219  0.00  0.00    +0.021 C 
ATOM     35  C   UNL     1      35.646 -20.103 -20.305  0.00  0.00    +0.021 C 
ENDBRANCH  30  33
ENDBRANCH  22  31
ENDBRANCH  20  24
ENDBRANCH   7  20
TORSDOF 5
ENDMDL
MODEL 6
REMARK VINA RESULT:     -10.1      1.594      2.275
REMARK  Name = 42647297
REMARK  5 active torsions:
REMARK  status: ('A' for Active; 'I' for Inactive)
REMARK    1  A    between atoms: N_3  and  C_14
REMARK    2  A    between atoms: C_7  and  N_20
REMARK    3  A    between atoms: N_20  and  C_24
REMARK    4  A    between atoms: C_22  and  C_31
REMARK    5  A    between atoms: N_30  and  C_33
REMARK                            x       y       z     vdW  Elec       q    Type
REMARK                         _______ _______ _______ _____ _____    ______ ____
ROOT
ATOM      1  O   UNL     1      35.467 -10.472 -24.846  0.00  0.00    -0.269 OA
ATOM      2  N   UNL     1      33.722  -9.824 -23.428  0.00  0.00    -0.240 N 
ATOM      3  N   UNL     1      31.838  -9.647 -21.856  0.00  0.00    -0.174 N 
ATOM      4  N   UNL     1      31.038 -10.444 -21.117  0.00  0.00    -0.171 NA
ATOM      5  C   UNL     1      32.761 -10.340 -22.578  0.00  0.00    +0.133 C 
ATOM      6  C   UNL     1      32.552 -11.662 -22.297  0.00  0.00    +0.064 C 
ATOM      7  C   UNL     1      33.373 -12.649 -22.908  0.00  0.00    +0.057 C 
ATOM      8  C   UNL     1      34.335 -12.219 -23.753  0.00  0.00    +0.073 C 
ATOM      9  C   UNL     1      34.561 -10.756 -24.060  0.00  0.00    +0.255 C 
ATOM     10  C   UNL     1      31.481 -11.679 -21.392  0.00  0.00    +0.122 C 
ATOM     11  C   UNL     1      33.856  -8.392 -23.657  0.00  0.00    +0.122 C 
ENDROOT
BRANCH   3  14
ATOM     12  F   UNL     1      33.015  -8.106 -19.866  0.00  0.00    -0.203 F 
ATOM     13  F   UNL     1      30.985  -4.196 -21.587  0.00  0.00    -0.204 F 
ATOM     14  C   UNL     1      31.623  -8.270 -21.785  0.00  0.00    +0.103 C 
ATOM     15  C   UNL     1      32.226  -7.519 -20.777  0.00  0.00    +0.158 C 
ATOM     16  C   UNL     1      30.805  -7.647 -22.727  0.00  0.00    +0.021 C 
ATOM     17  C   UNL     1      32.010  -6.141 -20.711  0.00  0.00    +0.061 C 
ATOM     18  C   UNL     1      30.589  -6.270 -22.660  0.00  0.00    +0.031 C 
ATOM     19  C   UNL     1      31.192  -5.518 -21.652  0.00  0.00    +0.142 C 
ENDBRANCH   3  14
BRANCH   7  20
ATOM     20  N   UNL     1      33.169 -13.974 -22.632  0.00  0.00    -0.313 N 
ATOM     21  H   UNL     1      32.472 -14.171 -21.966  0.00  0.00    +0.152 HD
BRANCH  20  24
ATOM     22  C   UNL     1      35.114 -17.098 -22.847  0.00  0.00    +0.055 C 
ATOM     23  C   UNL     1      34.454 -15.987 -22.322  0.00  0.00    +0.019 C 
ATOM     24  C   UNL     1      33.826 -15.081 -23.175  0.00  0.00    +0.044 C 
ATOM     25  C   UNL     1      35.146 -17.303 -24.227  0.00  0.00    +0.004 C 
ATOM     26  C   UNL     1      33.857 -15.286 -24.555  0.00  0.00    -0.008 C 
ATOM     27  C   UNL     1      34.516 -16.396 -25.080  0.00  0.00    -0.003 C 
ATOM     28  C   UNL     1      33.191 -14.332 -25.493  0.00  0.00    +0.032 C 
BRANCH  22  31
ATOM     29  O   UNL     1      37.007 -18.181 -21.981  0.00  0.00    -0.270 OA
ATOM     30  N   UNL     1      34.950 -18.789 -21.102  0.00  0.00    -0.302 N 
ATOM     31  C   UNL     1      35.771 -18.043 -21.957  0.00  0.00    +0.246 C 
ATOM     32  H   UNL     1      33.979 -18.631 -21.132  0.00  0.00    +0.150 HD
BRANCH  30  33
ATOM     33  C   UNL     1      35.455 -19.772 -20.185  0.00  0.00    +0.072 C 
ATOM     34  C   UNL     1      35.738 -21.177 -20.631  0.00  0.00    +0.021 C 
ATOM     35  C   UNL     1      34.590 -20.901 -19.704  0.00  0.00    +0.021 C 
ENDBRANCH  30  33
ENDBRANCH  22  31
ENDBRANCH  20  24
ENDBRANCH   7  20
TORSDOF 5
ENDMDL
MODEL 7
REMARK VINA RESULT:     -10.0      6.620     10.608
REMARK  Name = 42647297
REMARK  5 active torsions:
REMARK  status: ('A' for Active; 'I' for Inactive)
REMARK    1  A    between atoms: N_3  and  C_14
REMARK    2  A    between atoms: C_7  and  N_20
REMARK    3  A    between atoms: N_20  and  C_24
REMARK    4  A    between atoms: C_22  and  C_31
REMARK    5  A    between atoms: N_30  and  C_33
REMARK                            x       y       z     vdW  Elec       q    Type
REMARK                         _______ _______ _______ _____ _____    ______ ____
ROOT
ATOM      1  O   UNL     1      37.852 -21.521 -18.207  0.00  0.00    -0.269 OA
ATOM      2  N   UNL     1      36.174 -20.556 -19.521  0.00  0.00    -0.240 N 
ATOM      3  N   UNL     1      34.107 -19.893 -20.681  0.00  0.00    -0.174 N 
ATOM      4  N   UNL     1      32.805 -20.242 -20.739  0.00  0.00    -0.171 NA
ATOM      5  C   UNL     1      34.826 -20.657 -19.811  0.00  0.00    +0.133 C 
ATOM      6  C   UNL     1      33.944 -21.554 -19.273  0.00  0.00    +0.064 C 
ATOM      7  C   UNL     1      34.401 -22.500 -18.316  0.00  0.00    +0.057 C 
ATOM      8  C   UNL     1      35.710 -22.463 -17.983  0.00  0.00    +0.073 C 
ATOM      9  C   UNL     1      36.679 -21.469 -18.581  0.00  0.00    +0.255 C 
ATOM     10  C   UNL     1      32.712 -21.261 -19.874  0.00  0.00    +0.122 C 
ATOM     11  C   UNL     1      37.024 -19.559 -20.157  0.00  0.00    +0.122 C 
ENDROOT
BRANCH   3  14
ATOM     12  F   UNL     1      34.826 -20.303 -23.333  0.00  0.00    -0.203 F 
ATOM     13  F   UNL     1      35.781 -15.701 -23.865  0.00  0.00    -0.204 F 
ATOM     14  C   UNL     1      34.531 -18.836 -21.487  0.00  0.00    +0.103 C 
ATOM     15  C   UNL     1      34.886 -19.068 -22.815  0.00  0.00    +0.158 C 
ATOM     16  C   UNL     1      34.598 -17.546 -20.961  0.00  0.00    +0.021 C 
ATOM     17  C   UNL     1      35.308 -18.008 -23.619  0.00  0.00    +0.061 C 
ATOM     18  C   UNL     1      35.021 -16.487 -21.764  0.00  0.00    +0.031 C 
ATOM     19  C   UNL     1      35.376 -16.718 -23.093  0.00  0.00    +0.142 C 
ENDBRANCH   3  14
BRANCH   7  20
ATOM     20  N   UNL     1      33.526 -23.402 -17.774  0.00  0.00    -0.313 N 
ATOM     21  H   UNL     1      33.414 -24.243 -18.272  0.00  0.00    +0.152 HD
BRANCH  20  24
ATOM     22  C   UNL     1      30.636 -22.888 -15.544  0.00  0.00    +0.055 C 
ATOM     23  C   UNL     1      31.405 -23.014 -16.700  0.00  0.00    +0.019 C 
ATOM     24  C   UNL     1      32.771 -23.279 -16.606  0.00  0.00    +0.044 C 
ATOM     25  C   UNL     1      31.234 -23.027 -14.291  0.00  0.00    +0.004 C 
ATOM     26  C   UNL     1      33.369 -23.418 -15.353  0.00  0.00    -0.008 C 
ATOM     27  C   UNL     1      32.600 -23.292 -14.195  0.00  0.00    -0.003 C 
ATOM     28  C   UNL     1      34.830 -23.702 -15.220  0.00  0.00    +0.032 C 
BRANCH  22  31
ATOM     29  O   UNL     1      28.615 -22.025 -14.723  0.00  0.00    -0.270 OA
ATOM     30  N   UNL     1      28.556 -23.051 -16.800  0.00  0.00    -0.302 N 
ATOM     31  C   UNL     1      29.212 -22.612 -15.643  0.00  0.00    +0.246 C 
ATOM     32  H   UNL     1      29.086 -23.509 -17.491  0.00  0.00    +0.150 HD
BRANCH  30  33
ATOM     33  C   UNL     1      27.150 -22.867 -17.027  0.00  0.00    +0.072 C 
ATOM     34  C   UNL     1      26.610 -21.563 -17.538  0.00  0.00    +0.021 C 
ATOM     35  C   UNL     1      26.327 -21.991 -16.128  0.00  0.00    +0.021 C 
ENDBRANCH  30  33
ENDBRANCH  22  31
ENDBRANCH  20  24
ENDBRANCH   7  20
TORSDOF 5
ENDMDL
MODEL 8
REMARK VINA RESULT:      -9.2      3.691     10.010
REMARK  Name = 42647297
REMARK  5 active torsions:
REMARK  status: ('A' for Active; 'I' for Inactive)
REMARK    1  A    between atoms: N_3  and  C_14
REMARK    2  A    between atoms: C_7  and  N_20
REMARK    3  A    between atoms: N_20  and  C_24
REMARK    4  A    between atoms: C_22  and  C_31
REMARK    5  A    between atoms: N_30  and  C_33
REMARK                            x       y       z     vdW  Elec       q    Type
REMARK                         _______ _______ _______ _____ _____    ______ ____
ROOT
ATOM      1  O   UNL     1      34.537 -11.586 -25.292  0.00  0.00    -0.269 OA
ATOM      2  N   UNL     1      34.212 -13.294 -23.727  0.00  0.00    -0.240 N 
ATOM      3  N   UNL     1      33.564 -14.747 -21.850  0.00  0.00    -0.174 N 
ATOM      4  N   UNL     1      32.793 -14.713 -20.743  0.00  0.00    -0.171 NA
ATOM      5  C   UNL     1      33.538 -13.582 -22.554  0.00  0.00    +0.133 C 
ATOM      6  C   UNL     1      32.705 -12.740 -21.869  0.00  0.00    +0.064 C 
ATOM      7  C   UNL     1      32.470 -11.428 -22.363  0.00  0.00    +0.057 C 
ATOM      8  C   UNL     1      33.097 -11.075 -23.506  0.00  0.00    +0.073 C 
ATOM      9  C   UNL     1      34.016 -12.009 -24.259  0.00  0.00    +0.255 C 
ATOM     10  C   UNL     1      32.269 -13.479 -20.761  0.00  0.00    +0.122 C 
ATOM     11  C   UNL     1      35.079 -14.269 -24.374  0.00  0.00    +0.122 C 
ENDROOT
BRANCH   3  14
ATOM     12  F   UNL     1      34.896 -16.124 -19.837  0.00  0.00    -0.203 F 
ATOM     13  F   UNL     1      36.312 -19.417 -22.922  0.00  0.00    -0.204 F 
ATOM     14  C   UNL     1      34.259 -15.926 -22.118  0.00  0.00    +0.103 C 
ATOM     15  C   UNL     1      34.919 -16.599 -21.091  0.00  0.00    +0.158 C 
ATOM     16  C   UNL     1      34.292 -16.432 -23.418  0.00  0.00    +0.021 C 
ATOM     17  C   UNL     1      35.613 -17.779 -21.363  0.00  0.00    +0.061 C 
ATOM     18  C   UNL     1      34.986 -17.611 -23.689  0.00  0.00    +0.031 C 
ATOM     19  C   UNL     1      35.646 -18.285 -22.662  0.00  0.00    +0.142 C 
ENDBRANCH   3  14
BRANCH   7  20
ATOM     20  N   UNL     1      31.639 -10.580 -21.683  0.00  0.00    -0.313 N 
ATOM     21  H   UNL     1      30.732 -10.918 -21.507  0.00  0.00    +0.152 HD
BRANCH  20  24
ATOM     22  C   UNL     1      32.349  -6.962 -21.660  0.00  0.00    +0.055 C 
ATOM     23  C   UNL     1      32.074  -8.251 -22.117  0.00  0.00    +0.019 C 
ATOM     24  C   UNL     1      31.915  -9.296 -21.208  0.00  0.00    +0.044 C 
ATOM     25  C   UNL     1      32.466  -6.718 -20.291  0.00  0.00    +0.004 C 
ATOM     26  C   UNL     1      32.031  -9.052 -19.839  0.00  0.00    -0.008 C 
ATOM     27  C   UNL     1      32.306  -7.763 -19.381  0.00  0.00    -0.003 C 
ATOM     28  C   UNL     1      31.865 -10.151 -18.841  0.00  0.00    +0.032 C 
BRANCH  22  31
ATOM     29  O   UNL     1      31.869  -4.818 -22.482  0.00  0.00    -0.270 OA
ATOM     30  N   UNL     1      33.412  -6.079 -23.665  0.00  0.00    -0.302 N 
ATOM     31  C   UNL     1      32.516  -5.873 -22.609  0.00  0.00    +0.246 C 
ATOM     32  H   UNL     1      33.894  -6.936 -23.708  0.00  0.00    +0.150 HD
BRANCH  30  33
ATOM     33  C   UNL     1      33.663  -5.102 -24.688  0.00  0.00    +0.072 C 
ATOM     34  C   UNL     1      33.315  -5.372 -26.123  0.00  0.00    +0.021 C 
ATOM     35  C   UNL     1      34.753  -5.300 -25.700  0.00  0.00    +0.021 C 
ENDBRANCH  30  33
ENDBRANCH  22  31
ENDBRANCH  20  24
ENDBRANCH   7  20
TORSDOF 5
ENDMDL
MODEL 9
REMARK VINA RESULT:      -9.1      1.970      2.641
REMARK  Name = 42647297
REMARK  5 active torsions:
REMARK  status: ('A' for Active; 'I' for Inactive)
REMARK    1  A    between atoms: N_3  and  C_14
REMARK    2  A    between atoms: C_7  and  N_20
REMARK    3  A    between atoms: N_20  and  C_24
REMARK    4  A    between atoms: C_22  and  C_31
REMARK    5  A    between atoms: N_30  and  C_33
REMARK                            x       y       z     vdW  Elec       q    Type
REMARK                         _______ _______ _______ _____ _____    ______ ____
ROOT
ATOM      1  O   UNL     1      30.688 -11.446 -21.143  0.00  0.00    -0.269 OA
ATOM      2  N   UNL     1      31.942  -9.723 -22.109  0.00  0.00    -0.240 N 
ATOM      3  N   UNL     1      33.577  -8.292 -23.262  0.00  0.00    -0.174 N 
ATOM      4  N   UNL     1      34.742  -8.399 -23.935  0.00  0.00    -0.171 NA
ATOM      5  C   UNL     1      33.102  -9.490 -22.823  0.00  0.00    +0.133 C 
ATOM      6  C   UNL     1      34.007 -10.432 -23.231  0.00  0.00    +0.064 C 
ATOM      7  C   UNL     1      33.785 -11.801 -22.920  0.00  0.00    +0.057 C 
ATOM      8  C   UNL     1      32.669 -12.105 -22.223  0.00  0.00    +0.073 C 
ATOM      9  C   UNL     1      31.673 -11.060 -21.774  0.00  0.00    +0.255 C 
ATOM     10  C   UNL     1      35.000  -9.714 -23.912  0.00  0.00    +0.122 C 
ATOM     11  C   UNL     1      31.047  -8.640 -21.723  0.00  0.00    +0.122 C 
ENDROOT
BRANCH   3  14
ATOM     12  F   UNL     1      32.807  -6.782 -25.463  0.00  0.00    -0.203 F 
ATOM     13  F   UNL     1      31.418  -3.245 -22.648  0.00  0.00    -0.204 F 
ATOM     14  C   UNL     1      33.033  -7.016 -23.109  0.00  0.00    +0.103 C 
ATOM     15  C   UNL     1      32.653  -6.279 -24.230  0.00  0.00    +0.158 C 
ATOM     16  C   UNL     1      32.867  -6.481 -21.832  0.00  0.00    +0.021 C 
ATOM     17  C   UNL     1      32.107  -5.004 -24.074  0.00  0.00    +0.061 C 
ATOM     18  C   UNL     1      32.322  -5.206 -21.676  0.00  0.00    +0.031 C 
ATOM     19  C   UNL     1      31.942  -4.468 -22.798  0.00  0.00    +0.142 C 
ENDBRANCH   3  14
BRANCH   7  20
ATOM     20  N   UNL     1      34.685 -12.749 -23.324  0.00  0.00    -0.313 N 
ATOM     21  H   UNL     1      35.622 -12.585 -23.072  0.00  0.00    +0.152 HD
BRANCH  20  24
ATOM     22  C   UNL     1      34.625 -16.320 -24.237  0.00  0.00    +0.055 C 
ATOM     23  C   UNL     1      34.858 -15.143 -23.527  0.00  0.00    +0.019 C 
ATOM     24  C   UNL     1      34.444 -13.918 -24.049  0.00  0.00    +0.044 C 
ATOM     25  C   UNL     1      33.976 -16.272 -25.472  0.00  0.00    +0.004 C 
ATOM     26  C   UNL     1      33.794 -13.871 -25.283  0.00  0.00    -0.008 C 
ATOM     27  C   UNL     1      33.560 -15.047 -25.994  0.00  0.00    -0.003 C 
ATOM     28  C   UNL     1      33.338 -12.573 -25.867  0.00  0.00    +0.032 C 
BRANCH  22  31
ATOM     29  O   UNL     1      34.507 -18.655 -24.045  0.00  0.00    -0.270 OA
ATOM     30  N   UNL     1      36.097 -17.570 -22.754  0.00  0.00    -0.302 N 
ATOM     31  C   UNL     1      35.058 -17.597 -23.693  0.00  0.00    +0.246 C 
ATOM     32  H   UNL     1      36.491 -16.700 -22.519  0.00  0.00    +0.150 HD
BRANCH  30  33
ATOM     33  C   UNL     1      36.614 -18.749 -22.118  0.00  0.00    +0.072 C 
ATOM     34  C   UNL     1      35.887 -19.399 -20.976  0.00  0.00    +0.021 C 
ATOM     35  C   UNL     1      37.190 -18.695 -20.733  0.00  0.00    +0.021 C 
ENDBRANCH  30  33
ENDBRANCH  22  31
ENDBRANCH  20  24
ENDBRANCH   7  20
TORSDOF 5
ENDMDL
