MODEL 1
REMARK VINA RESULT:     -11.9      0.000      0.000
REMARK  Name = 445481
REMARK  5 active torsions:
REMARK  status: ('A' for Active; 'I' for Inactive)
REMARK    1  A    between atoms: N_2  and  C_21
REMARK    2  A    between atoms: C_3  and  N_7
REMARK    3  A    between atoms: N_7  and  S_9
REMARK    4  A    between atoms: S_9  and  C_14
REMARK    5  A    between atoms: C_21  and  C_24
REMARK                            x       y       z     vdW  Elec       q    Type
REMARK                         _______ _______ _______ _____ _____    ______ ____
ROOT
ATOM      1  O   UNL     1      36.223 -21.436 -19.969  0.00  0.00    -0.273 OA
ATOM      2  N   UNL     1      34.057 -22.033 -19.269  0.00  0.00    -0.273 N 
ATOM      3  C   UNL     1      34.324 -19.953 -20.286  0.00  0.00    +0.153 C 
ATOM      4  C   UNL     1      32.854 -20.358 -20.330  0.00  0.00    +0.048 C 
ATOM      5  C   UNL     1      32.748 -21.426 -19.258  0.00  0.00    +0.096 C 
ATOM      6  C   UNL     1      35.026 -21.215 -19.851  0.00  0.00    +0.242 C 
ENDROOT
BRANCH   3   7
ATOM      7  N   UNL     1      34.804 -19.561 -21.615  0.00  0.00    -0.171 NA
ATOM      8  H   UNL     1      35.273 -20.372 -22.019  0.00  0.00    +0.149 HD
BRANCH   7   9
ATOM      9  S   UNL     1      35.889 -18.238 -21.725  0.00  0.00    +0.066 S 
ATOM     10  O   UNL     1      37.137 -18.692 -22.307  0.00  0.00    -0.152 OA
ATOM     11  O   UNL     1      35.864 -17.499 -20.477  0.00  0.00    -0.152 OA
BRANCH   9  14
ATOM     12  S   UNL     1      34.657 -15.639 -22.218  0.00  0.00    -0.066 S 
ATOM     13  N   UNL     1      34.124 -15.739 -26.070  0.00  0.00    -0.243 NA
ATOM     14  C   UNL     1      35.198 -17.086 -22.911  0.00  0.00    +0.153 C 
ATOM     15  C   UNL     1      35.030 -17.158 -24.252  0.00  0.00    +0.046 C 
ATOM     16  C   UNL     1      34.424 -15.971 -24.763  0.00  0.00    +0.089 C 
ATOM     17  C   UNL     1      34.161 -15.044 -23.753  0.00  0.00    +0.048 C 
ATOM     18  C   UNL     1      33.566 -13.814 -24.067  0.00  0.00    +0.010 C 
ATOM     19  C   UNL     1      33.258 -13.571 -25.400  0.00  0.00    +0.021 C 
ATOM     20  C   UNL     1      33.553 -14.546 -26.335  0.00  0.00    +0.099 C 
ENDBRANCH   9  14
ENDBRANCH   7   9
ENDBRANCH   3   7
BRANCH   2  21
ATOM     21  C   UNL     1      34.311 -23.301 -18.619  0.00  0.00    +0.135 C 
BRANCH  21  24
ATOM     22  N   UNL     1      34.367 -23.812 -16.193  0.00  0.00    -0.313 N 
ATOM     23  N   UNL     1      32.867 -23.912 -12.822  0.00  0.00    -0.241 NA
ATOM     24  C   UNL     1      33.677 -23.330 -17.256  0.00  0.00    +0.046 C 
ATOM     25  C   UNL     1      32.441 -22.932 -16.863  0.00  0.00    +0.013 C 
ATOM     26  C   UNL     1      32.354 -23.181 -15.464  0.00  0.00    +0.017 C 
ATOM     27  C   UNL     1      33.575 -23.732 -15.071  0.00  0.00    +0.068 C 
ATOM     28  C   UNL     1      31.359 -22.992 -14.494  0.00  0.00    +0.022 C 
ATOM     29  C   UNL     1      33.830 -24.096 -13.756  0.00  0.00    +0.113 C 
ATOM     30  C   UNL     1      31.684 -23.379 -13.200  0.00  0.00    +0.099 C 
ATOM     31  H   UNL     1      35.286 -24.163 -16.220  0.00  0.00    +0.152 HD
ENDBRANCH  21  24
ENDBRANCH   2  21
TORSDOF 5
ENDMDL
MODEL 2
REMARK VINA RESULT:     -11.7      2.704     10.491
REMARK  Name = 445481
REMARK  5 active torsions:
REMARK  status: ('A' for Active; 'I' for Inactive)
REMARK    1  A    between atoms: N_2  and  C_21
REMARK    2  A    between atoms: C_3  and  N_7
REMARK    3  A    between atoms: N_7  and  S_9
REMARK    4  A    between atoms: S_9  and  C_14
REMARK    5  A    between atoms: C_21  and  C_24
REMARK                            x       y       z     vdW  Elec       q    Type
REMARK                         _______ _______ _______ _____ _____    ______ ____
ROOT
ATOM      1  O   UNL     1      36.908 -20.711 -19.540  0.00  0.00    -0.273 OA
ATOM      2  N   UNL     1      35.390 -19.659 -20.998  0.00  0.00    -0.273 N 
ATOM      3  C   UNL     1      34.588 -21.419 -19.696  0.00  0.00    +0.153 C 
ATOM      4  C   UNL     1      33.417 -20.582 -20.201  0.00  0.00    +0.048 C 
ATOM      5  C   UNL     1      34.004 -19.818 -21.372  0.00  0.00    +0.096 C 
ATOM      6  C   UNL     1      35.794 -20.574 -20.025  0.00  0.00    +0.242 C 
ENDROOT
BRANCH   3   7
ATOM      7  N   UNL     1      34.510 -21.615 -18.245  0.00  0.00    -0.171 NA
ATOM      8  H   UNL     1      35.460 -21.784 -17.911  0.00  0.00    +0.149 HD
BRANCH   7   9
ATOM      9  S   UNL     1      33.528 -22.889 -17.653  0.00  0.00    +0.066 S 
ATOM     10  O   UNL     1      33.772 -24.083 -18.438  0.00  0.00    -0.152 OA
ATOM     11  O   UNL     1      32.184 -22.391 -17.436  0.00  0.00    -0.152 OA
BRANCH   9  14
ATOM     12  S   UNL     1      35.726 -22.859 -15.732  0.00  0.00    -0.066 S 
ATOM     13  N   UNL     1      34.059 -24.463 -12.604  0.00  0.00    -0.243 NA
ATOM     14  C   UNL     1      34.106 -23.276 -16.001  0.00  0.00    +0.153 C 
ATOM     15  C   UNL     1      33.492 -23.837 -14.934  0.00  0.00    +0.046 C 
ATOM     16  C   UNL     1      34.379 -23.942 -13.820  0.00  0.00    +0.089 C 
ATOM     17  C   UNL     1      35.647 -23.441 -14.117  0.00  0.00    +0.048 C 
ATOM     18  C   UNL     1      36.655 -23.460 -13.141  0.00  0.00    +0.010 C 
ATOM     19  C   UNL     1      36.334 -23.990 -11.897  0.00  0.00    +0.021 C 
ATOM     20  C   UNL     1      35.052 -24.465 -11.691  0.00  0.00    +0.099 C 
ENDBRANCH   9  14
ENDBRANCH   7   9
ENDBRANCH   3   7
BRANCH   2  21
ATOM     21  C   UNL     1      36.256 -18.722 -21.678  0.00  0.00    +0.135 C 
BRANCH  21  24
ATOM     22  N   UNL     1      35.289 -17.182 -23.365  0.00  0.00    -0.313 N 
ATOM     23  N   UNL     1      33.432 -14.153 -24.364  0.00  0.00    -0.241 NA
ATOM     24  C   UNL     1      35.496 -17.482 -22.060  0.00  0.00    +0.046 C 
ATOM     25  C   UNL     1      34.934 -16.530 -21.272  0.00  0.00    +0.013 C 
ATOM     26  C   UNL     1      34.338 -15.574 -22.142  0.00  0.00    +0.017 C 
ATOM     27  C   UNL     1      34.576 -16.009 -23.448  0.00  0.00    +0.068 C 
ATOM     28  C   UNL     1      33.621 -14.386 -21.950  0.00  0.00    +0.022 C 
ATOM     29  C   UNL     1      34.124 -15.300 -24.554  0.00  0.00    +0.113 C 
ATOM     30  C   UNL     1      33.201 -13.730 -23.101  0.00  0.00    +0.099 C 
ATOM     31  H   UNL     1      35.600 -17.717 -24.130  0.00  0.00    +0.152 HD
ENDBRANCH  21  24
ENDBRANCH   2  21
TORSDOF 5
ENDMDL
MODEL 3
REMARK VINA RESULT:     -11.6      2.037      2.762
REMARK  Name = 445481
REMARK  5 active torsions:
REMARK  status: ('A' for Active; 'I' for Inactive)
REMARK    1  A    between atoms: N_2  and  C_21
REMARK    2  A    between atoms: C_3  and  N_7
REMARK    3  A    between atoms: N_7  and  S_9
REMARK    4  A    between atoms: S_9  and  C_14
REMARK    5  A    between atoms: C_21  and  C_24
REMARK                            x       y       z     vdW  Elec       q    Type
REMARK                         _______ _______ _______ _____ _____    ______ ____
ROOT
ATOM      1  O   UNL     1      32.912 -21.138 -19.680  0.00  0.00    -0.273 OA
ATOM      2  N   UNL     1      34.615 -22.036 -18.326  0.00  0.00    -0.273 N 
ATOM      3  C   UNL     1      35.263 -20.854 -20.228  0.00  0.00    +0.153 C 
ATOM      4  C   UNL     1      36.438 -20.947 -19.259  0.00  0.00    +0.048 C 
ATOM      5  C   UNL     1      36.057 -22.098 -18.348  0.00  0.00    +0.096 C 
ATOM      6  C   UNL     1      34.089 -21.327 -19.407  0.00  0.00    +0.242 C 
ENDROOT
BRANCH   3   7
ATOM      7  N   UNL     1      35.036 -19.468 -20.651  0.00  0.00    -0.171 NA
ATOM      8  H   UNL     1      34.027 -19.332 -20.713  0.00  0.00    +0.149 HD
BRANCH   7   9
ATOM      9  S   UNL     1      35.709 -18.959 -22.144  0.00  0.00    +0.066 S 
ATOM     10  O   UNL     1      35.202 -19.801 -23.209  0.00  0.00    -0.152 OA
ATOM     11  O   UNL     1      37.132 -18.736 -21.972  0.00  0.00    -0.152 OA
BRANCH   9  14
ATOM     12  S   UNL     1      34.699 -16.433 -21.085  0.00  0.00    -0.066 S 
ATOM     13  N   UNL     1      33.946 -14.456 -24.350  0.00  0.00    -0.243 NA
ATOM     14  C   UNL     1      35.064 -17.321 -22.481  0.00  0.00    +0.153 C 
ATOM     15  C   UNL     1      34.815 -16.666 -23.638  0.00  0.00    +0.046 C 
ATOM     16  C   UNL     1      34.295 -15.359 -23.393  0.00  0.00    +0.089 C 
ATOM     17  C   UNL     1      34.177 -15.094 -22.028  0.00  0.00    +0.048 C 
ATOM     18  C   UNL     1      33.683 -13.855 -21.594  0.00  0.00    +0.010 C 
ATOM     19  C   UNL     1      33.325 -12.930 -22.566  0.00  0.00    +0.021 C 
ATOM     20  C   UNL     1      33.475 -13.277 -23.896  0.00  0.00    +0.099 C 
ENDBRANCH   9  14
ENDBRANCH   7   9
ENDBRANCH   3   7
BRANCH   2  21
ATOM     21  C   UNL     1      33.840 -22.755 -17.339  0.00  0.00    +0.135 C 
BRANCH  21  24
ATOM     22  N   UNL     1      34.975 -24.489 -15.977  0.00  0.00    -0.313 N 
ATOM     23  N   UNL     1      37.108 -25.587 -13.171  0.00  0.00    -0.241 NA
ATOM     24  C   UNL     1      34.712 -23.177 -16.189  0.00  0.00    +0.046 C 
ATOM     25  C   UNL     1      35.334 -22.422 -15.247  0.00  0.00    +0.013 C 
ATOM     26  C   UNL     1      36.030 -23.323 -14.392  0.00  0.00    +0.017 C 
ATOM     27  C   UNL     1      35.788 -24.611 -14.874  0.00  0.00    +0.068 C 
ATOM     28  C   UNL     1      36.842 -23.171 -13.260  0.00  0.00    +0.022 C 
ATOM     29  C   UNL     1      36.324 -25.738 -14.265  0.00  0.00    +0.113 C 
ATOM     30  C   UNL     1      37.343 -24.341 -12.704  0.00  0.00    +0.099 C 
ATOM     31  H   UNL     1      34.638 -25.235 -16.523  0.00  0.00    +0.152 HD
ENDBRANCH  21  24
ENDBRANCH   2  21
TORSDOF 5
ENDMDL
MODEL 4
REMARK VINA RESULT:     -11.3      3.041      9.919
REMARK  Name = 445481
REMARK  5 active torsions:
REMARK  status: ('A' for Active; 'I' for Inactive)
REMARK    1  A    between atoms: N_2  and  C_21
REMARK    2  A    between atoms: C_3  and  N_7
REMARK    3  A    between atoms: N_7  and  S_9
REMARK    4  A    between atoms: S_9  and  C_14
REMARK    5  A    between atoms: C_21  and  C_24
REMARK                            x       y       z     vdW  Elec       q    Type
REMARK                         _______ _______ _______ _____ _____    ______ ____
ROOT
ATOM      1  O   UNL     1      34.006 -20.020 -21.633  0.00  0.00    -0.273 OA
ATOM      2  N   UNL     1      36.073 -18.896 -21.602  0.00  0.00    -0.273 N 
ATOM      3  C   UNL     1      35.664 -20.444 -19.907  0.00  0.00    +0.153 C 
ATOM      4  C   UNL     1      37.162 -20.177 -20.004  0.00  0.00    +0.048 C 
ATOM      5  C   UNL     1      37.242 -18.862 -20.755  0.00  0.00    +0.096 C 
ATOM      6  C   UNL     1      35.108 -19.798 -21.153  0.00  0.00    +0.242 C 
ENDROOT
BRANCH   3   7
ATOM      7  N   UNL     1      35.380 -21.883 -19.935  0.00  0.00    -0.171 NA
ATOM      8  H   UNL     1      35.118 -22.121 -20.892  0.00  0.00    +0.149 HD
BRANCH   7   9
ATOM      9  S   UNL     1      34.149 -22.483 -18.905  0.00  0.00    +0.066 S 
ATOM     10  O   UNL     1      33.754 -23.804 -19.352  0.00  0.00    -0.152 OA
ATOM     11  O   UNL     1      33.167 -21.440 -18.679  0.00  0.00    -0.152 OA
BRANCH   9  14
ATOM     12  S   UNL     1      33.826 -23.405 -16.154  0.00  0.00    -0.066 S 
ATOM     13  N   UNL     1      37.354 -22.705 -14.671  0.00  0.00    -0.243 NA
ATOM     14  C   UNL     1      34.885 -22.726 -17.289  0.00  0.00    +0.153 C 
ATOM     15  C   UNL     1      36.123 -22.468 -16.809  0.00  0.00    +0.046 C 
ATOM     16  C   UNL     1      36.236 -22.839 -15.435  0.00  0.00    +0.089 C 
ATOM     17  C   UNL     1      35.044 -23.371 -14.941  0.00  0.00    +0.048 C 
ATOM     18  C   UNL     1      34.964 -23.794 -13.606  0.00  0.00    +0.010 C 
ATOM     19  C   UNL     1      36.102 -23.659 -12.821  0.00  0.00    +0.021 C 
ATOM     20  C   UNL     1      37.240 -23.121 -13.393  0.00  0.00    +0.099 C 
ENDBRANCH   9  14
ENDBRANCH   7   9
ENDBRANCH   3   7
BRANCH   2  21
ATOM     21  C   UNL     1      35.914 -17.983 -22.711  0.00  0.00    +0.135 C 
BRANCH  21  24
ATOM     22  N   UNL     1      34.629 -15.928 -23.241  0.00  0.00    -0.313 N 
ATOM     23  N   UNL     1      32.572 -13.008 -22.309  0.00  0.00    -0.241 NA
ATOM     24  C   UNL     1      35.077 -16.801 -22.306  0.00  0.00    +0.046 C 
ATOM     25  C   UNL     1      34.654 -16.416 -21.075  0.00  0.00    +0.013 C 
ATOM     26  C   UNL     1      33.893 -15.226 -21.254  0.00  0.00    +0.017 C 
ATOM     27  C   UNL     1      33.894 -14.945 -22.621  0.00  0.00    +0.068 C 
ATOM     28  C   UNL     1      33.204 -14.363 -20.391  0.00  0.00    +0.022 C 
ATOM     29  C   UNL     1      33.236 -13.840 -23.146  0.00  0.00    +0.113 C 
ATOM     30  C   UNL     1      32.571 -13.280 -20.985  0.00  0.00    +0.099 C 
ATOM     31  H   UNL     1      34.803 -15.988 -24.208  0.00  0.00    +0.152 HD
ENDBRANCH  21  24
ENDBRANCH   2  21
TORSDOF 5
ENDMDL
MODEL 5
REMARK VINA RESULT:     -11.3      1.488      1.864
REMARK  Name = 445481
REMARK  5 active torsions:
REMARK  status: ('A' for Active; 'I' for Inactive)
REMARK    1  A    between atoms: N_2  and  C_21
REMARK    2  A    between atoms: C_3  and  N_7
REMARK    3  A    between atoms: N_7  and  S_9
REMARK    4  A    between atoms: S_9  and  C_14
REMARK    5  A    between atoms: C_21  and  C_24
REMARK                            x       y       z     vdW  Elec       q    Type
REMARK                         _______ _______ _______ _____ _____    ______ ____
ROOT
ATOM      1  O   UNL     1      36.228 -21.713 -19.851  0.00  0.00    -0.273 OA
ATOM      2  N   UNL     1      34.031 -22.173 -19.148  0.00  0.00    -0.273 N 
ATOM      3  C   UNL     1      34.423 -20.117 -20.172  0.00  0.00    +0.153 C 
ATOM      4  C   UNL     1      32.932 -20.431 -20.214  0.00  0.00    +0.048 C 
ATOM      5  C   UNL     1      32.760 -21.487 -19.139  0.00  0.00    +0.096 C 
ATOM      6  C   UNL     1      35.047 -21.418 -19.733  0.00  0.00    +0.242 C 
ENDROOT
BRANCH   3   7
ATOM      7  N   UNL     1      34.926 -19.759 -21.503  0.00  0.00    -0.171 NA
ATOM      8  H   UNL     1      35.360 -20.595 -21.897  0.00  0.00    +0.149 HD
BRANCH   7   9
ATOM      9  S   UNL     1      36.070 -18.488 -21.620  0.00  0.00    +0.066 S 
ATOM     10  O   UNL     1      36.778 -18.597 -22.881  0.00  0.00    -0.152 OA
ATOM     11  O   UNL     1      36.784 -18.374 -20.363  0.00  0.00    -0.152 OA
BRANCH   9  14
ATOM     12  S   UNL     1      34.951 -16.382 -23.302  0.00  0.00    -0.066 S 
ATOM     13  N   UNL     1      33.285 -14.065 -20.659  0.00  0.00    -0.243 NA
ATOM     14  C   UNL     1      35.147 -16.955 -21.721  0.00  0.00    +0.153 C 
ATOM     15  C   UNL     1      34.580 -16.175 -20.772  0.00  0.00    +0.046 C 
ATOM     16  C   UNL     1      33.942 -15.036 -21.350  0.00  0.00    +0.089 C 
ATOM     17  C   UNL     1      34.068 -15.019 -22.740  0.00  0.00    +0.048 C 
ATOM     18  C   UNL     1      33.503 -13.972 -23.483  0.00  0.00    +0.010 C 
ATOM     19  C   UNL     1      32.830 -12.978 -22.783  0.00  0.00    +0.021 C 
ATOM     20  C   UNL     1      32.755 -13.075 -21.406  0.00  0.00    +0.099 C 
ENDBRANCH   9  14
ENDBRANCH   7   9
ENDBRANCH   3   7
BRANCH   2  21
ATOM     21  C   UNL     1      34.206 -23.452 -18.494  0.00  0.00    +0.135 C 
BRANCH  21  24
ATOM     22  N   UNL     1      34.294 -23.885 -16.053  0.00  0.00    -0.313 N 
ATOM     23  N   UNL     1      32.845 -23.859 -12.658  0.00  0.00    -0.241 NA
ATOM     24  C   UNL     1      33.593 -23.430 -17.121  0.00  0.00    +0.046 C 
ATOM     25  C   UNL     1      32.367 -23.005 -16.722  0.00  0.00    +0.013 C 
ATOM     26  C   UNL     1      32.299 -23.208 -15.315  0.00  0.00    +0.017 C 
ATOM     27  C   UNL     1      33.520 -23.759 -14.923  0.00  0.00    +0.068 C 
ATOM     28  C   UNL     1      31.321 -22.977 -14.337  0.00  0.00    +0.022 C 
ATOM     29  C   UNL     1      33.791 -24.084 -13.600  0.00  0.00    +0.113 C 
ATOM     30  C   UNL     1      31.662 -23.325 -13.037  0.00  0.00    +0.099 C 
ATOM     31  H   UNL     1      35.208 -24.247 -16.082  0.00  0.00    +0.152 HD
ENDBRANCH  21  24
ENDBRANCH   2  21
TORSDOF 5
ENDMDL
MODEL 6
REMARK VINA RESULT:     -11.2      1.695      2.287
REMARK  Name = 445481
REMARK  5 active torsions:
REMARK  status: ('A' for Active; 'I' for Inactive)
REMARK    1  A    between atoms: N_2  and  C_21
REMARK    2  A    between atoms: C_3  and  N_7
REMARK    3  A    between atoms: N_7  and  S_9
REMARK    4  A    between atoms: S_9  and  C_14
REMARK    5  A    between atoms: C_21  and  C_24
REMARK                            x       y       z     vdW  Elec       q    Type
REMARK                         _______ _______ _______ _____ _____    ______ ____
ROOT
ATOM      1  O   UNL     1      32.342 -20.563 -19.592  0.00  0.00    -0.273 OA
ATOM      2  N   UNL     1      34.026 -22.001 -18.795  0.00  0.00    -0.273 N 
ATOM      3  C   UNL     1      34.549 -20.634 -20.609  0.00  0.00    +0.153 C 
ATOM      4  C   UNL     1      35.835 -21.125 -19.952  0.00  0.00    +0.048 C 
ATOM      5  C   UNL     1      35.386 -22.330 -19.148  0.00  0.00    +0.096 C 
ATOM      6  C   UNL     1      33.477 -21.019 -19.620  0.00  0.00    +0.242 C 
ENDROOT
BRANCH   3   7
ATOM      7  N   UNL     1      34.562 -19.177 -20.772  0.00  0.00    -0.171 NA
ATOM      8  H   UNL     1      33.712 -18.921 -21.276  0.00  0.00    +0.149 HD
BRANCH   7   9
ATOM      9  S   UNL     1      35.881 -18.469 -21.609  0.00  0.00    +0.066 S 
ATOM     10  O   UNL     1      36.506 -19.472 -22.450  0.00  0.00    -0.152 OA
ATOM     11  O   UNL     1      36.660 -17.672 -20.681  0.00  0.00    -0.152 OA
BRANCH   9  14
ATOM     12  S   UNL     1      34.659 -15.844 -21.974  0.00  0.00    -0.066 S 
ATOM     13  N   UNL     1      34.142 -15.745 -25.829  0.00  0.00    -0.243 NA
ATOM     14  C   UNL     1      35.199 -17.256 -22.738  0.00  0.00    +0.153 C 
ATOM     15  C   UNL     1      35.036 -17.259 -24.081  0.00  0.00    +0.046 C 
ATOM     16  C   UNL     1      34.436 -16.045 -24.534  0.00  0.00    +0.089 C 
ATOM     17  C   UNL     1      34.172 -15.170 -23.478  0.00  0.00    +0.048 C 
ATOM     18  C   UNL     1      33.582 -13.923 -23.731  0.00  0.00    +0.010 C 
ATOM     19  C   UNL     1      33.280 -13.612 -25.051  0.00  0.00    +0.021 C 
ATOM     20  C   UNL     1      33.576 -14.538 -26.034  0.00  0.00    +0.099 C 
ENDBRANCH   9  14
ENDBRANCH   7   9
ENDBRANCH   3   7
BRANCH   2  21
ATOM     21  C   UNL     1      33.311 -22.729 -17.769  0.00  0.00    +0.135 C 
BRANCH  21  24
ATOM     22  N   UNL     1      35.531 -22.746 -16.662  0.00  0.00    -0.313 N 
ATOM     23  N   UNL     1      37.755 -23.309 -13.771  0.00  0.00    -0.241 NA
ATOM     24  C   UNL     1      34.196 -22.966 -16.577  0.00  0.00    +0.046 C 
ATOM     25  C   UNL     1      33.877 -23.396 -15.329  0.00  0.00    +0.013 C 
ATOM     26  C   UNL     1      35.092 -23.447 -14.589  0.00  0.00    +0.017 C 
ATOM     27  C   UNL     1      36.111 -23.033 -15.449  0.00  0.00    +0.068 C 
ATOM     28  C   UNL     1      35.425 -23.802 -13.274  0.00  0.00    +0.022 C 
ATOM     29  C   UNL     1      37.437 -22.965 -15.041  0.00  0.00    +0.113 C 
ATOM     30  C   UNL     1      36.769 -23.710 -12.937  0.00  0.00    +0.099 C 
ATOM     31  H   UNL     1      36.008 -22.431 -17.463  0.00  0.00    +0.152 HD
ENDBRANCH  21  24
ENDBRANCH   2  21
TORSDOF 5
ENDMDL
MODEL 7
REMARK VINA RESULT:     -10.6      3.281     11.048
REMARK  Name = 445481
REMARK  5 active torsions:
REMARK  status: ('A' for Active; 'I' for Inactive)
REMARK    1  A    between atoms: N_2  and  C_21
REMARK    2  A    between atoms: C_3  and  N_7
REMARK    3  A    between atoms: N_7  and  S_9
REMARK    4  A    between atoms: S_9  and  C_14
REMARK    5  A    between atoms: C_21  and  C_24
REMARK                            x       y       z     vdW  Elec       q    Type
REMARK                         _______ _______ _______ _____ _____    ______ ____
ROOT
ATOM      1  O   UNL     1      34.058 -14.407 -20.869  0.00  0.00    -0.273 OA
ATOM      2  N   UNL     1      33.465 -14.329 -23.145  0.00  0.00    -0.273 N 
ATOM      3  C   UNL     1      35.144 -15.820 -22.521  0.00  0.00    +0.153 C 
ATOM      4  C   UNL     1      34.581 -16.224 -23.880  0.00  0.00    +0.048 C 
ATOM      5  C   UNL     1      33.893 -14.964 -24.369  0.00  0.00    +0.096 C 
ATOM      6  C   UNL     1      34.167 -14.782 -22.028  0.00  0.00    +0.242 C 
ENDROOT
BRANCH   3   7
ATOM      7  N   UNL     1      35.157 -16.958 -21.595  0.00  0.00    -0.171 NA
ATOM      8  H   UNL     1      35.873 -16.769 -20.894  0.00  0.00    +0.149 HD
BRANCH   7   9
ATOM      9  S   UNL     1      35.470 -18.517 -22.235  0.00  0.00    +0.066 S 
ATOM     10  O   UNL     1      36.901 -18.693 -22.386  0.00  0.00    -0.152 OA
ATOM     11  O   UNL     1      34.559 -18.771 -23.335  0.00  0.00    -0.152 OA
BRANCH   9  14
ATOM     12  S   UNL     1      36.268 -20.384 -20.138  0.00  0.00    -0.066 S 
ATOM     13  N   UNL     1      32.826 -21.764 -18.961  0.00  0.00    -0.243 NA
ATOM     14  C   UNL     1      34.970 -19.707 -20.991  0.00  0.00    +0.153 C 
ATOM     15  C   UNL     1      33.756 -20.163 -20.609  0.00  0.00    +0.046 C 
ATOM     16  C   UNL     1      33.868 -21.123 -19.559  0.00  0.00    +0.089 C 
ATOM     17  C   UNL     1      35.198 -21.344 -19.197  0.00  0.00    +0.048 C 
ATOM     18  C   UNL     1      35.505 -22.258 -18.178  0.00  0.00    +0.010 C 
ATOM     19  C   UNL     1      34.445 -22.915 -17.564  0.00  0.00    +0.021 C 
ATOM     20  C   UNL     1      33.159 -22.635 -17.987  0.00  0.00    +0.099 C 
ENDBRANCH   9  14
ENDBRANCH   7   9
ENDBRANCH   3   7
BRANCH   2  21
ATOM     21  C   UNL     1      32.499 -13.252 -23.148  0.00  0.00    +0.135 C 
BRANCH  21  24
ATOM     22  N   UNL     1      32.704 -10.821 -22.699  0.00  0.00    -0.313 N 
ATOM     23  N   UNL     1      34.348  -7.538 -23.078  0.00  0.00    -0.241 NA
ATOM     24  C   UNL     1      33.187 -11.926 -23.318  0.00  0.00    +0.046 C 
ATOM     25  C   UNL     1      34.293 -11.606 -24.038  0.00  0.00    +0.013 C 
ATOM     26  C   UNL     1      34.514 -10.212 -23.855  0.00  0.00    +0.017 C 
ATOM     27  C   UNL     1      33.504  -9.747 -23.012  0.00  0.00    +0.068 C 
ATOM     28  C   UNL     1      35.472  -9.301 -24.322  0.00  0.00    +0.022 C 
ATOM     29  C   UNL     1      33.421  -8.415 -22.625  0.00  0.00    +0.113 C 
ATOM     30  C   UNL     1      35.327  -7.988 -23.896  0.00  0.00    +0.099 C 
ATOM     31  H   UNL     1      31.909 -10.793 -22.120  0.00  0.00    +0.152 HD
ENDBRANCH  21  24
ENDBRANCH   2  21
TORSDOF 5
ENDMDL
MODEL 8
REMARK VINA RESULT:     -10.6      5.208      7.997
REMARK  Name = 445481
REMARK  5 active torsions:
REMARK  status: ('A' for Active; 'I' for Inactive)
REMARK    1  A    between atoms: N_2  and  C_21
REMARK    2  A    between atoms: C_3  and  N_7
REMARK    3  A    between atoms: N_7  and  S_9
REMARK    4  A    between atoms: S_9  and  C_14
REMARK    5  A    between atoms: C_21  and  C_24
REMARK                            x       y       z     vdW  Elec       q    Type
REMARK                         _______ _______ _______ _____ _____    ______ ____
ROOT
ATOM      1  O   UNL     1      34.435 -13.438 -23.354  0.00  0.00    -0.273 OA
ATOM      2  N   UNL     1      34.382 -15.311 -21.931  0.00  0.00    -0.273 N 
ATOM      3  C   UNL     1      33.440 -13.332 -21.140  0.00  0.00    +0.153 C 
ATOM      4  C   UNL     1      32.916 -14.509 -20.323  0.00  0.00    +0.048 C 
ATOM      5  C   UNL     1      33.926 -15.607 -20.593  0.00  0.00    +0.096 C 
ATOM      6  C   UNL     1      34.133 -13.991 -22.306  0.00  0.00    +0.242 C 
ENDROOT
BRANCH   3   7
ATOM      7  N   UNL     1      32.338 -12.499 -21.633  0.00  0.00    -0.171 NA
ATOM      8  H   UNL     1      32.700 -11.947 -22.411  0.00  0.00    +0.149 HD
BRANCH   7   9
ATOM      9  S   UNL     1      31.596 -11.409 -20.538  0.00  0.00    +0.066 S 
ATOM     10  O   UNL     1      32.356 -11.381 -19.304  0.00  0.00    -0.152 OA
ATOM     11  O   UNL     1      30.164 -11.639 -20.536  0.00  0.00    -0.152 OA
BRANCH   9  14
ATOM     12  S   UNL     1      32.033  -8.560 -20.082  0.00  0.00    -0.066 S 
ATOM     13  N   UNL     1      31.891  -7.151 -23.705  0.00  0.00    -0.243 NA
ATOM     14  C   UNL     1      31.759  -9.767 -21.237  0.00  0.00    +0.153 C 
ATOM     15  C   UNL     1      31.703  -9.315 -22.511  0.00  0.00    +0.046 C 
ATOM     16  C   UNL     1      31.893  -7.901 -22.569  0.00  0.00    +0.089 C 
ATOM     17  C   UNL     1      32.087  -7.350 -21.302  0.00  0.00    +0.048 C 
ATOM     18  C   UNL     1      32.291  -5.970 -21.161  0.00  0.00    +0.010 C 
ATOM     19  C   UNL     1      32.290  -5.199 -22.317  0.00  0.00    +0.021 C 
ATOM     20  C   UNL     1      32.090  -5.829 -23.531  0.00  0.00    +0.099 C 
ENDBRANCH   9  14
ENDBRANCH   7   9
ENDBRANCH   3   7
BRANCH   2  21
ATOM     21  C   UNL     1      35.125 -16.278 -22.710  0.00  0.00    +0.135 C 
BRANCH  21  24
ATOM     22  N   UNL     1      34.257 -18.313 -21.588  0.00  0.00    -0.313 N 
ATOM     23  N   UNL     1      34.677 -21.436 -19.667  0.00  0.00    -0.241 NA
ATOM     24  C   UNL     1      35.322 -17.547 -21.927  0.00  0.00    +0.046 C 
ATOM     25  C   UNL     1      36.465 -18.111 -21.459  0.00  0.00    +0.013 C 
ATOM     26  C   UNL     1      36.088 -19.306 -20.784  0.00  0.00    +0.017 C 
ATOM     27  C   UNL     1      34.699 -19.407 -20.881  0.00  0.00    +0.068 C 
ATOM     28  C   UNL     1      36.788 -20.310 -20.103  0.00  0.00    +0.022 C 
ATOM     29  C   UNL     1      33.996 -20.468 -20.324  0.00  0.00    +0.113 C 
ATOM     30  C   UNL     1      36.022 -21.339 -19.572  0.00  0.00    +0.099 C 
ATOM     31  H   UNL     1      33.318 -18.117 -21.810  0.00  0.00    +0.152 HD
ENDBRANCH  21  24
ENDBRANCH   2  21
TORSDOF 5
ENDMDL
MODEL 9
REMARK VINA RESULT:     -10.5      3.820      6.237
REMARK  Name = 445481
REMARK  5 active torsions:
REMARK  status: ('A' for Active; 'I' for Inactive)
REMARK    1  A    between atoms: N_2  and  C_21
REMARK    2  A    between atoms: C_3  and  N_7
REMARK    3  A    between atoms: N_7  and  S_9
REMARK    4  A    between atoms: S_9  and  C_14
REMARK    5  A    between atoms: C_21  and  C_24
REMARK                            x       y       z     vdW  Elec       q    Type
REMARK                         _______ _______ _______ _____ _____    ______ ____
ROOT
ATOM      1  O   UNL     1      35.072 -16.077 -20.606  0.00  0.00    -0.273 OA
ATOM      2  N   UNL     1      35.541 -17.221 -22.608  0.00  0.00    -0.273 N 
ATOM      3  C   UNL     1      33.988 -15.486 -22.700  0.00  0.00    +0.153 C 
ATOM      4  C   UNL     1      34.504 -15.784 -24.104  0.00  0.00    +0.048 C 
ATOM      5  C   UNL     1      35.090 -17.177 -23.979  0.00  0.00    +0.096 C 
ATOM      6  C   UNL     1      34.926 -16.259 -21.807  0.00  0.00    +0.242 C 
ENDROOT
BRANCH   3   7
ATOM      7  N   UNL     1      34.090 -14.055 -22.393  0.00  0.00    -0.171 NA
ATOM      8  H   UNL     1      34.363 -13.975 -21.413  0.00  0.00    +0.149 HD
BRANCH   7   9
ATOM      9  S   UNL     1      32.698 -13.080 -22.615  0.00  0.00    +0.066 S 
ATOM     10  O   UNL     1      31.952 -13.021 -21.373  0.00  0.00    -0.152 OA
ATOM     11  O   UNL     1      32.056 -13.446 -23.863  0.00  0.00    -0.152 OA
BRANCH   9  14
ATOM     12  S   UNL     1      32.314 -10.222 -22.165  0.00  0.00    -0.066 S 
ATOM     13  N   UNL     1      35.290  -8.704 -24.159  0.00  0.00    -0.243 NA
ATOM     14  C   UNL     1      33.268 -11.406 -22.910  0.00  0.00    +0.153 C 
ATOM     15  C   UNL     1      34.315 -10.916 -23.613  0.00  0.00    +0.046 C 
ATOM     16  C   UNL     1      34.358  -9.491 -23.554  0.00  0.00    +0.089 C 
ATOM     17  C   UNL     1      33.314  -8.970 -22.788  0.00  0.00    +0.048 C 
ATOM     18  C   UNL     1      33.194  -7.583 -22.616  0.00  0.00    +0.010 C 
ATOM     19  C   UNL     1      34.142  -6.775 -23.231  0.00  0.00    +0.021 C 
ATOM     20  C   UNL     1      35.143  -7.376 -23.972  0.00  0.00    +0.099 C 
ENDBRANCH   9  14
ENDBRANCH   7   9
ENDBRANCH   3   7
BRANCH   2  21
ATOM     21  C   UNL     1      36.441 -18.252 -22.139  0.00  0.00    +0.135 C 
BRANCH  21  24
ATOM     22  N   UNL     1      36.394 -20.022 -20.402  0.00  0.00    -0.313 N 
ATOM     23  N   UNL     1      34.656 -22.446 -18.228  0.00  0.00    -0.241 NA
ATOM     24  C   UNL     1      35.709 -19.232 -21.264  0.00  0.00    +0.046 C 
ATOM     25  C   UNL     1      34.380 -19.492 -21.172  0.00  0.00    +0.013 C 
ATOM     26  C   UNL     1      34.227 -20.510 -20.189  0.00  0.00    +0.017 C 
ATOM     27  C   UNL     1      35.505 -20.822 -19.723  0.00  0.00    +0.068 C 
ATOM     28  C   UNL     1      33.129 -21.195 -19.649  0.00  0.00    +0.022 C 
ATOM     29  C   UNL     1      35.719 -21.786 -18.747  0.00  0.00    +0.113 C 
ATOM     30  C   UNL     1      33.418 -22.145 -18.678  0.00  0.00    +0.099 C 
ATOM     31  H   UNL     1      37.371 -20.023 -20.281  0.00  0.00    +0.152 HD
ENDBRANCH  21  24
ENDBRANCH   2  21
TORSDOF 5
ENDMDL
