MODEL 1
REMARK VINA RESULT:     -11.2      0.000      0.000
REMARK  Name = 135565465
REMARK  7 active torsions:
REMARK  status: ('A' for Active; 'I' for Inactive)
REMARK    1  A    between atoms: N_2  and  C_9
REMARK    2  A    between atoms: N_2  and  O_21
REMARK    3  A    between atoms: C_3  and  C_23
REMARK    4  A    between atoms: C_10  and  C_14
REMARK    5  A    between atoms: C_23  and  C_24
REMARK    6  A    between atoms: C_24  and  C_25
REMARK    7  A    between atoms: C_25  and  N_27
REMARK                            x       y       z     vdW  Elec       q    Type
REMARK                         _______ _______ _______ _____ _____    ______ ____
ROOT
ATOM      1  O   UNL     1      35.984 -22.569 -16.977  0.00  0.00    -0.453 OA
ATOM      2  C   UNL     1      34.964 -20.561 -20.468  0.00  0.00    -0.040 C 
ATOM      3  C   UNL     1      33.944 -21.129 -19.699  0.00  0.00    +0.053 C 
ATOM      4  C   UNL     1      34.254 -21.811 -18.517  0.00  0.00    +0.036 C 
ATOM      5  C   UNL     1      36.293 -20.671 -20.064  0.00  0.00    -0.005 C 
ATOM      6  C   UNL     1      35.590 -21.918 -18.119  0.00  0.00    +0.143 C 
ATOM      7  C   UNL     1      36.607 -21.350 -18.889  0.00  0.00    +0.037 C 
ATOM      8  C   UNL     1      33.216 -22.429 -17.664  0.00  0.00    +0.110 C 
ATOM      9  C   UNL     1      35.016 -23.159 -16.185  0.00  0.00    +0.160 C 
ATOM     10  C   UNL     1      33.701 -23.124 -16.449  0.00  0.00    +0.060 C 
ENDROOT
BRANCH   9  13
ATOM     11  S   UNL     1      38.819 -25.630 -13.499  0.00  0.00    -0.091 S 
ATOM     12  N   UNL     1      34.702 -23.922 -13.939  0.00  0.00    -0.266 NA
ATOM     13  C   UNL     1      35.550 -23.830 -14.982  0.00  0.00    +0.093 C 
ATOM     14  C   UNL     1      36.847 -24.310 -14.991  0.00  0.00    +0.081 C 
ATOM     15  C   UNL     1      37.275 -24.932 -13.812  0.00  0.00    +0.011 C 
ATOM     16  C   UNL     1      36.428 -25.049 -12.705  0.00  0.00    +0.005 C 
ATOM     17  C   UNL     1      35.130 -24.525 -12.807  0.00  0.00    +0.152 C 
ATOM     18  C   UNL     1      37.083 -25.720 -11.620  0.00  0.00    +0.005 C 
ATOM     19  C   UNL     1      38.375 -26.085 -11.917  0.00  0.00    +0.035 C 
ENDBRANCH   9  13
BRANCH   8  20
ATOM     20  N   UNL     1      31.944 -22.400 -17.906  0.00  0.00    -0.135 NA
BRANCH  20  21
ATOM     21  O   UNL     1      31.266 -22.657 -16.714  0.00  0.00    -0.265 OA
ATOM     22  H   UNL     1      31.429 -23.451 -16.245  0.00  0.00    +0.247 HD
ENDBRANCH  20  21
ENDBRANCH   8  20
BRANCH   2  23
ATOM     23  C   UNL     1      34.628 -19.835 -21.727  0.00  0.00    +0.020 C 
BRANCH  23  24
ATOM     24  C   UNL     1      35.706 -18.812 -22.114  0.00  0.00    -0.018 C 
BRANCH  24  25
ATOM     25  C   UNL     1      35.386 -17.422 -21.566  0.00  0.00    -0.077 C 
BRANCH  25  27
ATOM     26  O   UNL     1      33.831 -15.089 -24.690  0.00  0.00    -0.358 OA
ATOM     27  N   UNL     1      35.283 -16.457 -22.658  0.00  0.00    +0.390 N 
ATOM     28  C   UNL     1      34.897 -17.124 -23.910  0.00  0.00    -0.045 C 
ATOM     29  C   UNL     1      34.315 -15.401 -22.333  0.00  0.00    -0.045 C 
ATOM     30  C   UNL     1      34.214 -14.414 -23.492  0.00  0.00    +0.119 C 
ATOM     31  C   UNL     1      34.784 -16.096 -25.031  0.00  0.00    +0.119 C 
ATOM     32  H   UNL     1      36.200 -16.030 -22.786  0.00  0.00    -0.079 HD
ENDBRANCH  25  27
ENDBRANCH  24  25
ENDBRANCH  23  24
ENDBRANCH   2  23
TORSDOF 7
ENDMDL
MODEL 2
REMARK VINA RESULT:     -11.1      3.024      4.152
REMARK  Name = 135565465
REMARK  7 active torsions:
REMARK  status: ('A' for Active; 'I' for Inactive)
REMARK    1  A    between atoms: N_2  and  C_9
REMARK    2  A    between atoms: N_2  and  O_21
REMARK    3  A    between atoms: C_3  and  C_23
REMARK    4  A    between atoms: C_10  and  C_14
REMARK    5  A    between atoms: C_23  and  C_24
REMARK    6  A    between atoms: C_24  and  C_25
REMARK    7  A    between atoms: C_25  and  N_27
REMARK                            x       y       z     vdW  Elec       q    Type
REMARK                         _______ _______ _______ _____ _____    ______ ____
ROOT
ATOM      1  O   UNL     1      33.080 -21.975 -18.258  0.00  0.00    -0.453 OA
ATOM      2  C   UNL     1      35.192 -19.920 -21.186  0.00  0.00    -0.040 C 
ATOM      3  C   UNL     1      35.906 -20.537 -20.154  0.00  0.00    +0.053 C 
ATOM      4  C   UNL     1      35.224 -21.238 -19.153  0.00  0.00    +0.036 C 
ATOM      5  C   UNL     1      33.802 -19.998 -21.224  0.00  0.00    -0.005 C 
ATOM      6  C   UNL     1      33.828 -21.311 -19.197  0.00  0.00    +0.143 C 
ATOM      7  C   UNL     1      33.118 -20.694 -20.230  0.00  0.00    +0.037 C 
ATOM      8  C   UNL     1      35.927 -21.911 -18.039  0.00  0.00    +0.110 C 
ATOM      9  C   UNL     1      33.735 -22.595 -17.208  0.00  0.00    +0.160 C 
ATOM     10  C   UNL     1      35.067 -22.606 -17.053  0.00  0.00    +0.060 C 
ENDROOT
BRANCH   9  13
ATOM     11  S   UNL     1      29.011 -24.359 -15.674  0.00  0.00    -0.091 S 
ATOM     12  N   UNL     1      33.417 -23.757 -15.142  0.00  0.00    -0.266 NA
ATOM     13  C   UNL     1      32.835 -23.280 -16.259  0.00  0.00    +0.093 C 
ATOM     14  C   UNL     1      31.489 -23.391 -16.558  0.00  0.00    +0.081 C 
ATOM     15  C   UNL     1      30.706 -24.055 -15.606  0.00  0.00    +0.011 C 
ATOM     16  C   UNL     1      31.269 -24.565 -14.432  0.00  0.00    +0.005 C 
ATOM     17  C   UNL     1      32.648 -24.395 -14.232  0.00  0.00    +0.152 C 
ATOM     18  C   UNL     1      30.276 -25.199 -13.614  0.00  0.00    +0.005 C 
ATOM     19  C   UNL     1      29.019 -25.157 -14.168  0.00  0.00    +0.035 C 
ENDBRANCH   9  13
BRANCH   8  20
ATOM     20  N   UNL     1      37.212 -21.932 -17.879  0.00  0.00    -0.135 NA
BRANCH  20  21
ATOM     21  O   UNL     1      37.560 -20.899 -17.007  0.00  0.00    -0.265 OA
ATOM     22  H   UNL     1      36.892 -20.411 -16.569  0.00  0.00    +0.247 HD
ENDBRANCH  20  21
ENDBRANCH   8  20
BRANCH   2  23
ATOM     23  C   UNL     1      35.924 -19.174 -22.251  0.00  0.00    +0.020 C 
BRANCH  23  24
ATOM     24  C   UNL     1      35.039 -18.122 -22.937  0.00  0.00    -0.018 C 
BRANCH  24  25
ATOM     25  C   UNL     1      35.325 -16.716 -22.409  0.00  0.00    -0.077 C 
BRANCH  25  27
ATOM     26  O   UNL     1      32.988 -14.502 -25.103  0.00  0.00    -0.358 OA
ATOM     27  N   UNL     1      34.911 -15.714 -23.389  0.00  0.00    +0.390 N 
ATOM     28  C   UNL     1      34.489 -16.351 -24.644  0.00  0.00    -0.045 C 
ATOM     29  C   UNL     1      33.823 -14.882 -22.857  0.00  0.00    -0.045 C 
ATOM     30  C   UNL     1      33.399 -13.853 -23.900  0.00  0.00    +0.119 C 
ATOM     31  C   UNL     1      34.051 -15.287 -25.644  0.00  0.00    +0.119 C 
ATOM     32  H   UNL     1      35.714 -15.115 -23.581  0.00  0.00    -0.079 HD
ENDBRANCH  25  27
ENDBRANCH  24  25
ENDBRANCH  23  24
ENDBRANCH   2  23
TORSDOF 7
ENDMDL
MODEL 3
REMARK VINA RESULT:     -11.0      4.684      8.642
REMARK  Name = 135565465
REMARK  7 active torsions:
REMARK  status: ('A' for Active; 'I' for Inactive)
REMARK    1  A    between atoms: N_2  and  C_9
REMARK    2  A    between atoms: N_2  and  O_21
REMARK    3  A    between atoms: C_3  and  C_23
REMARK    4  A    between atoms: C_10  and  C_14
REMARK    5  A    between atoms: C_23  and  C_24
REMARK    6  A    between atoms: C_24  and  C_25
REMARK    7  A    between atoms: C_25  and  N_27
REMARK                            x       y       z     vdW  Elec       q    Type
REMARK                         _______ _______ _______ _____ _____    ______ ____
ROOT
ATOM      1  O   UNL     1      34.641 -16.368 -21.441  0.00  0.00    -0.453 OA
ATOM      2  C   UNL     1      33.854 -12.796 -23.411  0.00  0.00    -0.040 C 
ATOM      3  C   UNL     1      34.236 -13.909 -24.168  0.00  0.00    +0.053 C 
ATOM      4  C   UNL     1      34.507 -15.127 -23.534  0.00  0.00    +0.036 C 
ATOM      5  C   UNL     1      33.742 -12.893 -22.026  0.00  0.00    -0.005 C 
ATOM      6  C   UNL     1      34.393 -15.216 -22.144  0.00  0.00    +0.143 C 
ATOM      7  C   UNL     1      34.012 -14.103 -21.391  0.00  0.00    +0.037 C 
ATOM      8  C   UNL     1      34.913 -16.336 -24.284  0.00  0.00    +0.110 C 
ATOM      9  C   UNL     1      35.033 -17.497 -22.139  0.00  0.00    +0.160 C 
ATOM     10  C   UNL     1      35.173 -17.547 -23.472  0.00  0.00    +0.060 C 
ENDROOT
BRANCH   9  13
ATOM     11  S   UNL     1      33.406 -21.651 -19.333  0.00  0.00    -0.091 S 
ATOM     12  N   UNL     1      36.560 -18.942 -20.999  0.00  0.00    -0.266 NA
ATOM     13  C   UNL     1      35.271 -18.679 -21.286  0.00  0.00    +0.093 C 
ATOM     14  C   UNL     1      34.193 -19.425 -20.843  0.00  0.00    +0.081 C 
ATOM     15  C   UNL     1      34.506 -20.528 -20.040  0.00  0.00    +0.011 C 
ATOM     16  C   UNL     1      35.830 -20.839 -19.717  0.00  0.00    +0.005 C 
ATOM     17  C   UNL     1      36.846 -20.011 -20.222  0.00  0.00    +0.152 C 
ATOM     18  C   UNL     1      35.902 -22.006 -18.886  0.00  0.00    +0.005 C 
ATOM     19  C   UNL     1      34.666 -22.540 -18.605  0.00  0.00    +0.035 C 
ENDBRANCH   9  13
BRANCH   8  20
ATOM     20  N   UNL     1      35.048 -16.399 -25.570  0.00  0.00    -0.135 NA
BRANCH  20  21
ATOM     21  O   UNL     1      33.858 -15.967 -26.157  0.00  0.00    -0.265 OA
ATOM     22  H   UNL     1      33.172 -16.581 -26.330  0.00  0.00    +0.247 HD
ENDBRANCH  20  21
ENDBRANCH   8  20
BRANCH   2  23
ATOM     23  C   UNL     1      33.566 -11.501 -24.092  0.00  0.00    +0.020 C 
BRANCH  23  24
ATOM     24  C   UNL     1      33.688 -10.303 -23.137  0.00  0.00    -0.018 C 
BRANCH  24  25
ATOM     25  C   UNL     1      32.482  -9.371 -23.247  0.00  0.00    -0.077 C 
BRANCH  25  27
ATOM     26  O   UNL     1      32.633  -8.417 -19.162  0.00  0.00    -0.358 OA
ATOM     27  N   UNL     1      32.126  -8.845 -21.930  0.00  0.00    +0.390 N 
ATOM     28  C   UNL     1      32.006  -9.933 -20.949  0.00  0.00    -0.045 C 
ATOM     29  C   UNL     1      33.119  -7.864 -21.474  0.00  0.00    -0.045 C 
ATOM     30  C   UNL     1      32.735  -7.340 -20.094  0.00  0.00    +0.119 C 
ATOM     31  C   UNL     1      31.646  -9.359 -19.582  0.00  0.00    +0.119 C 
ATOM     32  H   UNL     1      31.223  -8.380 -22.014  0.00  0.00    -0.079 HD
ENDBRANCH  25  27
ENDBRANCH  24  25
ENDBRANCH  23  24
ENDBRANCH   2  23
TORSDOF 7
ENDMDL
MODEL 4
REMARK VINA RESULT:     -10.9      1.452      1.846
REMARK  Name = 135565465
REMARK  7 active torsions:
REMARK  status: ('A' for Active; 'I' for Inactive)
REMARK    1  A    between atoms: N_2  and  C_9
REMARK    2  A    between atoms: N_2  and  O_21
REMARK    3  A    between atoms: C_3  and  C_23
REMARK    4  A    between atoms: C_10  and  C_14
REMARK    5  A    between atoms: C_23  and  C_24
REMARK    6  A    between atoms: C_24  and  C_25
REMARK    7  A    between atoms: C_25  and  N_27
REMARK                            x       y       z     vdW  Elec       q    Type
REMARK                         _______ _______ _______ _____ _____    ______ ____
ROOT
ATOM      1  O   UNL     1      36.650 -21.874 -17.493  0.00  0.00    -0.453 OA
ATOM      2  C   UNL     1      35.440 -20.049 -21.023  0.00  0.00    -0.040 C 
ATOM      3  C   UNL     1      34.501 -20.782 -20.292  0.00  0.00    +0.053 C 
ATOM      4  C   UNL     1      34.876 -21.408 -19.098  0.00  0.00    +0.036 C 
ATOM      5  C   UNL     1      36.753 -19.939 -20.570  0.00  0.00    -0.005 C 
ATOM      6  C   UNL     1      36.195 -21.293 -18.650  0.00  0.00    +0.143 C 
ATOM      7  C   UNL     1      37.132 -20.560 -19.383  0.00  0.00    +0.037 C 
ATOM      8  C   UNL     1      33.924 -22.193 -18.282  0.00  0.00    +0.110 C 
ATOM      9  C   UNL     1      35.764 -22.620 -16.735  0.00  0.00    +0.160 C 
ATOM     10  C   UNL     1      34.472 -22.802 -17.048  0.00  0.00    +0.060 C 
ENDROOT
BRANCH   9  13
ATOM     11  S   UNL     1      35.493 -24.346 -11.763  0.00  0.00    -0.091 S 
ATOM     12  N   UNL     1      37.674 -23.477 -15.577  0.00  0.00    -0.266 NA
ATOM     13  C   UNL     1      36.358 -23.197 -15.512  0.00  0.00    +0.093 C 
ATOM     14  C   UNL     1      35.557 -23.410 -14.404  0.00  0.00    +0.081 C 
ATOM     15  C   UNL     1      36.198 -23.960 -13.287  0.00  0.00    +0.011 C 
ATOM     16  C   UNL     1      37.562 -24.266 -13.311  0.00  0.00    +0.005 C 
ATOM     17  C   UNL     1      38.278 -24.007 -14.490  0.00  0.00    +0.152 C 
ATOM     18  C   UNL     1      37.992 -24.816 -12.057  0.00  0.00    +0.005 C 
ATOM     19  C   UNL     1      36.975 -24.912 -11.137  0.00  0.00    +0.035 C 
ENDBRANCH   9  13
BRANCH   8  20
ATOM     20  N   UNL     1      32.675 -22.374 -18.572  0.00  0.00    -0.135 NA
BRANCH  20  21
ATOM     21  O   UNL     1      31.994 -22.686 -17.394  0.00  0.00    -0.265 OA
ATOM     22  H   UNL     1      31.704 -22.001 -16.826  0.00  0.00    +0.247 HD
ENDBRANCH  20  21
ENDBRANCH   8  20
BRANCH   2  23
ATOM     23  C   UNL     1      35.035 -19.384 -22.295  0.00  0.00    +0.020 C 
BRANCH  23  24
ATOM     24  C   UNL     1      35.710 -18.016 -22.477  0.00  0.00    -0.018 C 
BRANCH  24  25
ATOM     25  C   UNL     1      35.021 -17.188 -23.561  0.00  0.00    -0.077 C 
BRANCH  25  27
ATOM     26  O   UNL     1      33.493 -13.548 -22.136  0.00  0.00    -0.358 OA
ATOM     27  N   UNL     1      34.926 -15.790 -23.148  0.00  0.00    +0.390 N 
ATOM     28  C   UNL     1      33.948 -15.066 -23.972  0.00  0.00    -0.045 C 
ATOM     29  C   UNL     1      34.560 -15.688 -21.729  0.00  0.00    -0.045 C 
ATOM     30  C   UNL     1      34.455 -14.221 -21.323  0.00  0.00    +0.119 C 
ATOM     31  C   UNL     1      33.858 -13.614 -23.514  0.00  0.00    +0.119 C 
ATOM     32  H   UNL     1      35.843 -15.362 -23.280  0.00  0.00    -0.079 HD
ENDBRANCH  25  27
ENDBRANCH  24  25
ENDBRANCH  23  24
ENDBRANCH   2  23
TORSDOF 7
ENDMDL
MODEL 5
REMARK VINA RESULT:     -10.8      5.380     12.469
REMARK  Name = 135565465
REMARK  7 active torsions:
REMARK  status: ('A' for Active; 'I' for Inactive)
REMARK    1  A    between atoms: N_2  and  C_9
REMARK    2  A    between atoms: N_2  and  O_21
REMARK    3  A    between atoms: C_3  and  C_23
REMARK    4  A    between atoms: C_10  and  C_14
REMARK    5  A    between atoms: C_23  and  C_24
REMARK    6  A    between atoms: C_24  and  C_25
REMARK    7  A    between atoms: C_25  and  N_27
REMARK                            x       y       z     vdW  Elec       q    Type
REMARK                         _______ _______ _______ _____ _____    ______ ____
ROOT
ATOM      1  O   UNL     1      33.799 -13.496 -22.130  0.00  0.00    -0.453 OA
ATOM      2  C   UNL     1      35.096 -17.364 -22.913  0.00  0.00    -0.040 C 
ATOM      3  C   UNL     1      34.696 -16.562 -23.986  0.00  0.00    +0.053 C 
ATOM      4  C   UNL     1      34.255 -15.254 -23.756  0.00  0.00    +0.036 C 
ATOM      5  C   UNL     1      35.057 -16.869 -21.612  0.00  0.00    -0.005 C 
ATOM      6  C   UNL     1      34.218 -14.764 -22.447  0.00  0.00    +0.143 C 
ATOM      7  C   UNL     1      34.619 -15.568 -21.377  0.00  0.00    +0.037 C 
ATOM      8  C   UNL     1      33.822 -14.360 -24.852  0.00  0.00    +0.110 C 
ATOM      9  C   UNL     1      33.382 -12.663 -23.152  0.00  0.00    +0.160 C 
ATOM     10  C   UNL     1      33.375 -13.006 -24.449  0.00  0.00    +0.060 C 
ENDROOT
BRANCH   9  13
ATOM     11  S   UNL     1      33.603  -7.398 -23.241  0.00  0.00    -0.091 S 
ATOM     12  N   UNL     1      31.996 -11.305 -21.754  0.00  0.00    -0.266 NA
ATOM     13  C   UNL     1      32.955 -11.323 -22.699  0.00  0.00    +0.093 C 
ATOM     14  C   UNL     1      33.544 -10.200 -23.251  0.00  0.00    +0.081 C 
ATOM     15  C   UNL     1      33.082  -8.970 -22.766  0.00  0.00    +0.011 C 
ATOM     16  C   UNL     1      32.088  -8.904 -21.786  0.00  0.00    +0.005 C 
ATOM     17  C   UNL     1      31.560 -10.109 -21.297  0.00  0.00    +0.152 C 
ATOM     18  C   UNL     1      31.781  -7.544 -21.450  0.00  0.00    +0.005 C 
ATOM     19  C   UNL     1      32.527  -6.634 -22.162  0.00  0.00    +0.035 C 
ENDBRANCH   9  13
BRANCH   8  20
ATOM     20  N   UNL     1      33.813 -14.678 -26.107  0.00  0.00    -0.135 NA
BRANCH  20  21
ATOM     21  O   UNL     1      33.816 -13.501 -26.856  0.00  0.00    -0.265 OA
ATOM     22  H   UNL     1      33.772 -13.540 -27.791  0.00  0.00    +0.247 HD
ENDBRANCH  20  21
ENDBRANCH   8  20
BRANCH   2  23
ATOM     23  C   UNL     1      35.565 -18.758 -23.164  0.00  0.00    +0.020 C 
BRANCH  23  24
ATOM     24  C   UNL     1      34.922 -19.770 -22.204  0.00  0.00    -0.018 C 
BRANCH  24  25
ATOM     25  C   UNL     1      35.763 -19.961 -20.942  0.00  0.00    -0.077 C 
BRANCH  25  27
ATOM     26  O   UNL     1      33.153 -22.449 -18.793  0.00  0.00    -0.358 OA
ATOM     27  N   UNL     1      34.943 -20.512 -19.865  0.00  0.00    +0.390 N 
ATOM     28  C   UNL     1      33.526 -20.548 -20.253  0.00  0.00    -0.045 C 
ATOM     29  C   UNL     1      35.398 -21.860 -19.500  0.00  0.00    -0.045 C 
ATOM     30  C   UNL     1      34.521 -22.419 -18.384  0.00  0.00    +0.119 C 
ATOM     31  C   UNL     1      32.693 -21.137 -19.119  0.00  0.00    +0.119 C 
ATOM     32  H   UNL     1      35.043 -19.903 -19.053  0.00  0.00    -0.079 HD
ENDBRANCH  25  27
ENDBRANCH  24  25
ENDBRANCH  23  24
ENDBRANCH   2  23
TORSDOF 7
ENDMDL
MODEL 6
REMARK VINA RESULT:     -10.6      4.892     12.365
REMARK  Name = 135565465
REMARK  7 active torsions:
REMARK  status: ('A' for Active; 'I' for Inactive)
REMARK    1  A    between atoms: N_2  and  C_9
REMARK    2  A    between atoms: N_2  and  O_21
REMARK    3  A    between atoms: C_3  and  C_23
REMARK    4  A    between atoms: C_10  and  C_14
REMARK    5  A    between atoms: C_23  and  C_24
REMARK    6  A    between atoms: C_24  and  C_25
REMARK    7  A    between atoms: C_25  and  N_27
REMARK                            x       y       z     vdW  Elec       q    Type
REMARK                         _______ _______ _______ _____ _____    ______ ____
ROOT
ATOM      1  O   UNL     1      34.087 -13.972 -22.069  0.00  0.00    -0.453 OA
ATOM      2  C   UNL     1      35.139 -17.990 -22.139  0.00  0.00    -0.040 C 
ATOM      3  C   UNL     1      34.852 -17.351 -23.349  0.00  0.00    +0.053 C 
ATOM      4  C   UNL     1      34.495 -15.998 -23.360  0.00  0.00    +0.036 C 
ATOM      5  C   UNL     1      35.071 -17.285 -20.939  0.00  0.00    -0.005 C 
ATOM      6  C   UNL     1      34.428 -15.298 -22.151  0.00  0.00    +0.143 C 
ATOM      7  C   UNL     1      34.716 -15.939 -20.944  0.00  0.00    +0.037 C 
ATOM      8  C   UNL     1      34.184 -15.271 -24.610  0.00  0.00    +0.110 C 
ATOM      9  C   UNL     1      33.782 -13.293 -23.235  0.00  0.00    +0.160 C 
ATOM     10  C   UNL     1      33.815 -13.845 -24.458  0.00  0.00    +0.060 C 
ENDROOT
BRANCH   9  13
ATOM     11  S   UNL     1      34.557  -8.128 -23.941  0.00  0.00    -0.091 S 
ATOM     12  N   UNL     1      32.343 -11.645 -22.270  0.00  0.00    -0.266 NA
ATOM     13  C   UNL     1      33.431 -11.873 -23.031  0.00  0.00    +0.093 C 
ATOM     14  C   UNL     1      34.211 -10.890 -23.612  0.00  0.00    +0.081 C 
ATOM     15  C   UNL     1      33.809  -9.571 -23.368  0.00  0.00    +0.011 C 
ATOM     16  C   UNL     1      32.686  -9.288 -22.585  0.00  0.00    +0.005 C 
ATOM     17  C   UNL     1      31.968 -10.366 -22.044  0.00  0.00    +0.152 C 
ATOM     18  C   UNL     1      32.473  -7.874 -22.477  0.00  0.00    +0.005 C 
ATOM     19  C   UNL     1      33.410  -7.136 -23.161  0.00  0.00    +0.035 C 
ENDBRANCH   9  13
BRANCH   8  20
ATOM     20  N   UNL     1      34.215 -15.791 -25.796  0.00  0.00    -0.135 NA
BRANCH  20  21
ATOM     21  O   UNL     1      34.002 -14.771 -26.725  0.00  0.00    -0.265 OA
ATOM     22  H   UNL     1      33.844 -13.896 -26.432  0.00  0.00    +0.247 HD
ENDBRANCH  20  21
ENDBRANCH   8  20
BRANCH   2  23
ATOM     23  C   UNL     1      35.518 -19.433 -22.134  0.00  0.00    +0.020 C 
BRANCH  23  24
ATOM     24  C   UNL     1      35.023 -20.160 -20.875  0.00  0.00    -0.018 C 
BRANCH  24  25
ATOM     25  C   UNL     1      36.174 -20.816 -20.113  0.00  0.00    -0.077 C 
BRANCH  25  27
ATOM     26  O   UNL     1      34.284 -22.665 -16.853  0.00  0.00    -0.358 OA
ATOM     27  N   UNL     1      35.663 -21.838 -19.203  0.00  0.00    +0.390 N 
ATOM     28  C   UNL     1      36.264 -21.698 -17.869  0.00  0.00    -0.045 C 
ATOM     29  C   UNL     1      34.199 -21.765 -19.105  0.00  0.00    -0.045 C 
ATOM     30  C   UNL     1      33.689 -22.831 -18.140  0.00  0.00    +0.119 C 
ATOM     31  C   UNL     1      35.706 -22.767 -16.935  0.00  0.00    +0.119 C 
ATOM     32  H   UNL     1      35.918 -22.750 -19.581  0.00  0.00    -0.079 HD
ENDBRANCH  25  27
ENDBRANCH  24  25
ENDBRANCH  23  24
ENDBRANCH   2  23
TORSDOF 7
ENDMDL
MODEL 7
REMARK VINA RESULT:     -10.6      3.809     10.864
REMARK  Name = 135565465
REMARK  7 active torsions:
REMARK  status: ('A' for Active; 'I' for Inactive)
REMARK    1  A    between atoms: N_2  and  C_9
REMARK    2  A    between atoms: N_2  and  O_21
REMARK    3  A    between atoms: C_3  and  C_23
REMARK    4  A    between atoms: C_10  and  C_14
REMARK    5  A    between atoms: C_23  and  C_24
REMARK    6  A    between atoms: C_24  and  C_25
REMARK    7  A    between atoms: C_25  and  N_27
REMARK                            x       y       z     vdW  Elec       q    Type
REMARK                         _______ _______ _______ _____ _____    ______ ____
ROOT
ATOM      1  O   UNL     1      34.059 -18.766 -21.616  0.00  0.00    -0.453 OA
ATOM      2  C   UNL     1      34.498 -21.935 -18.966  0.00  0.00    -0.040 C 
ATOM      3  C   UNL     1      35.631 -21.193 -19.317  0.00  0.00    +0.053 C 
ATOM      4  C   UNL     1      35.516 -20.119 -20.207  0.00  0.00    +0.036 C 
ATOM      5  C   UNL     1      33.253 -21.611 -19.499  0.00  0.00    -0.005 C 
ATOM      6  C   UNL     1      34.262 -19.800 -20.737  0.00  0.00    +0.143 C 
ATOM      7  C   UNL     1      33.133 -20.543 -20.385  0.00  0.00    +0.037 C 
ATOM      8  C   UNL     1      36.679 -19.299 -20.611  0.00  0.00    +0.110 C 
ATOM      9  C   UNL     1      35.147 -18.006 -22.006  0.00  0.00    +0.160 C 
ATOM     10  C   UNL     1      36.399 -18.201 -21.566  0.00  0.00    +0.060 C 
ENDROOT
BRANCH   9  13
ATOM     11  S   UNL     1      33.795 -13.041 -23.146  0.00  0.00    -0.091 S 
ATOM     12  N   UNL     1      34.831 -17.255 -24.255  0.00  0.00    -0.266 NA
ATOM     13  C   UNL     1      34.814 -16.920 -22.950  0.00  0.00    +0.093 C 
ATOM     14  C   UNL     1      34.513 -15.662 -22.460  0.00  0.00    +0.081 C 
ATOM     15  C   UNL     1      34.209 -14.691 -23.422  0.00  0.00    +0.011 C 
ATOM     16  C   UNL     1      34.215 -14.994 -24.787  0.00  0.00    +0.005 C 
ATOM     17  C   UNL     1      34.536 -16.306 -25.171  0.00  0.00    +0.152 C 
ATOM     18  C   UNL     1      33.873 -13.845 -25.574  0.00  0.00    +0.005 C 
ATOM     19  C   UNL     1      33.624 -12.728 -24.813  0.00  0.00    +0.035 C 
ENDBRANCH   9  13
BRANCH   8  20
ATOM     20  N   UNL     1      37.891 -19.475 -20.192  0.00  0.00    -0.135 NA
BRANCH  20  21
ATOM     21  O   UNL     1      38.151 -18.532 -19.198  0.00  0.00    -0.265 OA
ATOM     22  H   UNL     1      37.596 -17.783 -19.106  0.00  0.00    +0.247 HD
ENDBRANCH  20  21
ENDBRANCH   8  20
BRANCH   2  23
ATOM     23  C   UNL     1      34.627 -23.079 -18.017  0.00  0.00    +0.020 C 
BRANCH  23  24
ATOM     24  C   UNL     1      33.497 -23.101 -16.977  0.00  0.00    -0.018 C 
BRANCH  24  25
ATOM     25  C   UNL     1      34.045 -23.183 -15.552  0.00  0.00    -0.077 C 
BRANCH  25  27
ATOM     26  O   UNL     1      37.678 -24.822 -14.237  0.00  0.00    -0.358 OA
ATOM     27  N   UNL     1      35.358 -23.823 -15.551  0.00  0.00    +0.390 N 
ATOM     28  C   UNL     1      36.379 -22.920 -14.998  0.00  0.00    -0.045 C 
ATOM     29  C   UNL     1      35.328 -25.076 -14.784  0.00  0.00    -0.045 C 
ATOM     30  C   UNL     1      36.712 -25.718 -14.785  0.00  0.00    +0.119 C 
ATOM     31  C   UNL     1      37.737 -23.614 -14.995  0.00  0.00    +0.119 C 
ATOM     32  H   UNL     1      35.603 -24.038 -16.517  0.00  0.00    -0.079 HD
ENDBRANCH  25  27
ENDBRANCH  24  25
ENDBRANCH  23  24
ENDBRANCH   2  23
TORSDOF 7
ENDMDL
MODEL 8
REMARK VINA RESULT:     -10.6      3.285     10.356
REMARK  Name = 135565465
REMARK  7 active torsions:
REMARK  status: ('A' for Active; 'I' for Inactive)
REMARK    1  A    between atoms: N_2  and  C_9
REMARK    2  A    between atoms: N_2  and  O_21
REMARK    3  A    between atoms: C_3  and  C_23
REMARK    4  A    between atoms: C_10  and  C_14
REMARK    5  A    between atoms: C_23  and  C_24
REMARK    6  A    between atoms: C_24  and  C_25
REMARK    7  A    between atoms: C_25  and  N_27
REMARK                            x       y       z     vdW  Elec       q    Type
REMARK                         _______ _______ _______ _____ _____    ______ ____
ROOT
ATOM      1  O   UNL     1      36.068 -20.442 -19.483  0.00  0.00    -0.453 OA
ATOM      2  C   UNL     1      36.495 -22.925 -16.180  0.00  0.00    -0.040 C 
ATOM      3  C   UNL     1      35.276 -22.924 -16.864  0.00  0.00    +0.053 C 
ATOM      4  C   UNL     1      35.100 -22.100 -17.982  0.00  0.00    +0.036 C 
ATOM      5  C   UNL     1      37.539 -22.107 -16.604  0.00  0.00    -0.005 C 
ATOM      6  C   UNL     1      36.153 -21.281 -18.400  0.00  0.00    +0.143 C 
ATOM      7  C   UNL     1      37.370 -21.284 -17.715  0.00  0.00    +0.037 C 
ATOM      8  C   UNL     1      33.834 -22.060 -18.745  0.00  0.00    +0.110 C 
ATOM      9  C   UNL     1      34.880 -20.393 -20.190  0.00  0.00    +0.160 C 
ATOM     10  C   UNL     1      33.799 -21.131 -19.898  0.00  0.00    +0.060 C 
ENDROOT
BRANCH   9  13
ATOM     11  S   UNL     1      34.844 -15.562 -22.296  0.00  0.00    -0.091 S 
ATOM     12  N   UNL     1      34.957 -20.032 -22.554  0.00  0.00    -0.266 NA
ATOM     13  C   UNL     1      34.900 -19.460 -21.335  0.00  0.00    +0.093 C 
ATOM     14  C   UNL     1      34.860 -18.098 -21.102  0.00  0.00    +0.081 C 
ATOM     15  C   UNL     1      34.882 -17.284 -22.241  0.00  0.00    +0.011 C 
ATOM     16  C   UNL     1      34.941 -17.834 -23.525  0.00  0.00    +0.005 C 
ATOM     17  C   UNL     1      34.978 -19.233 -23.644  0.00  0.00    +0.152 C 
ATOM     18  C   UNL     1      34.953 -16.810 -24.528  0.00  0.00    +0.005 C 
ATOM     19  C   UNL     1      34.904 -15.541 -24.000  0.00  0.00    +0.035 C 
ENDBRANCH   9  13
BRANCH   8  20
ATOM     20  N   UNL     1      32.784 -22.768 -18.475  0.00  0.00    -0.135 NA
BRANCH  20  21
ATOM     21  O   UNL     1      31.996 -22.055 -17.571  0.00  0.00    -0.265 OA
ATOM     22  H   UNL     1      32.372 -21.360 -17.069  0.00  0.00    +0.247 HD
ENDBRANCH  20  21
ENDBRANCH   8  20
BRANCH   2  23
ATOM     23  C   UNL     1      36.676 -23.806 -14.990  0.00  0.00    +0.020 C 
BRANCH  23  24
ATOM     24  C   UNL     1      38.112 -24.342 -14.876  0.00  0.00    -0.018 C 
BRANCH  24  25
ATOM     25  C   UNL     1      38.393 -24.907 -13.485  0.00  0.00    -0.077 C 
BRANCH  25  27
ATOM     26  O   UNL     1      36.378 -24.109  -9.890  0.00  0.00    -0.358 OA
ATOM     27  N   UNL     1      37.402 -24.418 -12.528  0.00  0.00    +0.390 N 
ATOM     28  C   UNL     1      36.770 -25.535 -11.813  0.00  0.00    -0.045 C 
ATOM     29  C   UNL     1      38.017 -23.490 -11.569  0.00  0.00    -0.045 C 
ATOM     30  C   UNL     1      36.968 -23.003 -10.574  0.00  0.00    +0.119 C 
ATOM     31  C   UNL     1      35.750 -24.999 -10.813  0.00  0.00    +0.119 C 
ATOM     32  H   UNL     1      36.684 -23.918 -13.051  0.00  0.00    -0.079 HD
ENDBRANCH  25  27
ENDBRANCH  24  25
ENDBRANCH  23  24
ENDBRANCH   2  23
TORSDOF 7
ENDMDL
MODEL 9
REMARK VINA RESULT:     -10.5      4.127     10.975
REMARK  Name = 135565465
REMARK  7 active torsions:
REMARK  status: ('A' for Active; 'I' for Inactive)
REMARK    1  A    between atoms: N_2  and  C_9
REMARK    2  A    between atoms: N_2  and  O_21
REMARK    3  A    between atoms: C_3  and  C_23
REMARK    4  A    between atoms: C_10  and  C_14
REMARK    5  A    between atoms: C_23  and  C_24
REMARK    6  A    between atoms: C_24  and  C_25
REMARK    7  A    between atoms: C_25  and  N_27
REMARK                            x       y       z     vdW  Elec       q    Type
REMARK                         _______ _______ _______ _____ _____    ______ ____
ROOT
ATOM      1  O   UNL     1      34.063 -18.831 -21.673  0.00  0.00    -0.453 OA
ATOM      2  C   UNL     1      34.513 -21.870 -18.877  0.00  0.00    -0.040 C 
ATOM      3  C   UNL     1      35.643 -21.141 -19.262  0.00  0.00    +0.053 C 
ATOM      4  C   UNL     1      35.524 -20.110 -20.201  0.00  0.00    +0.036 C 
ATOM      5  C   UNL     1      33.267 -21.575 -19.424  0.00  0.00    -0.005 C 
ATOM      6  C   UNL     1      34.270 -19.822 -20.747  0.00  0.00    +0.143 C 
ATOM      7  C   UNL     1      33.143 -20.551 -20.360  0.00  0.00    +0.037 C 
ATOM      8  C   UNL     1      36.684 -19.306 -20.644  0.00  0.00    +0.110 C 
ATOM      9  C   UNL     1      35.149 -18.086 -22.098  0.00  0.00    +0.160 C 
ATOM     10  C   UNL     1      36.402 -18.255 -21.649  0.00  0.00    +0.060 C 
ENDROOT
BRANCH   9  13
ATOM     11  S   UNL     1      33.755 -13.192 -23.470  0.00  0.00    -0.091 S 
ATOM     12  N   UNL     1      34.843 -17.440 -24.381  0.00  0.00    -0.266 NA
ATOM     13  C   UNL     1      34.812 -17.047 -23.093  0.00  0.00    +0.093 C 
ATOM     14  C   UNL     1      34.495 -15.772 -22.662  0.00  0.00    +0.081 C 
ATOM     15  C   UNL     1      34.188 -14.848 -23.669  0.00  0.00    +0.011 C 
ATOM     16  C   UNL     1      34.208 -15.212 -25.019  0.00  0.00    +0.005 C 
ATOM     17  C   UNL     1      34.546 -16.536 -25.341  0.00  0.00    +0.152 C 
ATOM     18  C   UNL     1      33.861 -14.103 -25.860  0.00  0.00    +0.005 C 
ATOM     19  C   UNL     1      33.594 -12.956 -25.152  0.00  0.00    +0.035 C 
ENDBRANCH   9  13
BRANCH   8  20
ATOM     20  N   UNL     1      37.897 -19.458 -20.216  0.00  0.00    -0.135 NA
BRANCH  20  21
ATOM     21  O   UNL     1      38.141 -18.491 -19.240  0.00  0.00    -0.265 OA
ATOM     22  H   UNL     1      38.737 -18.671 -18.541  0.00  0.00    +0.247 HD
ENDBRANCH  20  21
ENDBRANCH   8  20
BRANCH   2  23
ATOM     23  C   UNL     1      34.645 -22.967 -17.875  0.00  0.00    +0.020 C 
BRANCH  23  24
ATOM     24  C   UNL     1      33.344 -23.197 -17.090  0.00  0.00    -0.018 C 
BRANCH  24  25
ATOM     25  C   UNL     1      33.618 -23.432 -15.605  0.00  0.00    -0.077 C 
BRANCH  25  27
ATOM     26  O   UNL     1      29.913 -24.658 -14.059  0.00  0.00    -0.358 OA
ATOM     27  N   UNL     1      32.364 -23.448 -14.855  0.00  0.00    +0.390 N 
ATOM     28  C   UNL     1      31.211 -23.522 -15.764  0.00  0.00    -0.045 C 
ATOM     29  C   UNL     1      32.333 -24.574 -13.912  0.00  0.00    -0.045 C 
ATOM     30  C   UNL     1      31.011 -24.578 -13.150  0.00  0.00    +0.119 C 
ATOM     31  C   UNL     1      29.916 -23.549 -14.959  0.00  0.00    +0.119 C 
ATOM     32  H   UNL     1      32.305 -22.578 -14.325  0.00  0.00    -0.079 HD
ENDBRANCH  25  27
ENDBRANCH  24  25
ENDBRANCH  23  24
ENDBRANCH   2  23
TORSDOF 7
ENDMDL
