MODEL 1
REMARK VINA RESULT:     -11.5      0.000      0.000
REMARK  Name = 11626560
REMARK  5 active torsions:
REMARK  status: ('A' for Active; 'I' for Inactive)
REMARK    1  A    between atoms: C_2  and  C_10
REMARK    2  A    between atoms: C_5  and  O_23
REMARK    3  A    between atoms: N_7  and  C_13
REMARK    4  A    between atoms: O_23  and  C_24
REMARK    5  A    between atoms: C_24  and  C_29
REMARK                            x       y       z     vdW  Elec       q    Type
REMARK                         _______ _______ _______ _____ _____    ______ ____
ROOT
ATOM      1  N   UNL     1      34.693 -16.808 -25.520  0.00  0.00    -0.226 NA
ATOM      2  C   UNL     1      35.063 -17.318 -23.183  0.00  0.00    +0.025 C 
ATOM      3  C   UNL     1      34.427 -16.133 -22.820  0.00  0.00    +0.041 C 
ATOM      4  C   UNL     1      35.169 -17.604 -24.536  0.00  0.00    +0.101 C 
ATOM      5  C   UNL     1      33.925 -15.289 -23.803  0.00  0.00    +0.170 C 
ATOM      6  C   UNL     1      34.082 -15.668 -25.127  0.00  0.00    +0.160 C 
ATOM      7  N   UNL     1      33.568 -14.809 -26.130  0.00  0.00    -0.340 N 
ATOM      8  H   UNL     1      33.664 -15.048 -27.080  0.00  0.00    +0.144 HD
ATOM      9  H   UNL     1      33.117 -13.971 -25.877  0.00  0.00    +0.144 HD
ENDROOT
BRANCH   2  13
ATOM     10  N   UNL     1      35.759 -19.867 -20.791  0.00  0.00    -0.212 N 
ATOM     11  N   UNL     1      36.934 -19.232 -20.658  0.00  0.00    -0.176 NA
ATOM     12  C   UNL     1      34.919 -19.297 -21.698  0.00  0.00    +0.086 C 
ATOM     13  C   UNL     1      35.591 -18.207 -22.195  0.00  0.00    +0.039 C 
ATOM     14  C   UNL     1      36.826 -18.216 -21.518  0.00  0.00    +0.119 C 
BRANCH  10  16
ATOM     15  N   UNL     1      34.643 -22.459 -17.566  0.00  0.00    +0.384 N 
ATOM     16  C   UNL     1      35.488 -21.066 -19.992  0.00  0.00    +0.092 C 
ATOM     17  C   UNL     1      34.009 -21.192 -19.594  0.00  0.00    -0.002 C 
ATOM     18  C   UNL     1      36.390 -21.170 -18.752  0.00  0.00    -0.002 C 
ATOM     19  C   UNL     1      33.777 -22.441 -18.745  0.00  0.00    -0.080 C 
ATOM     20  C   UNL     1      36.058 -22.421 -17.938  0.00  0.00    -0.080 C 
ATOM     21  H   UNL     1      34.464 -23.311 -17.035  0.00  0.00    -0.085 HD
ATOM     22  H   UNL     1      34.438 -21.632 -17.005  0.00  0.00    -0.085 HD
ENDBRANCH  10  16
ENDBRANCH   2  13
BRANCH   5  23
ATOM     23  O   UNL     1      33.302 -14.133 -23.450  0.00  0.00    -0.472 OA
BRANCH  23  24
ATOM     24  C   UNL     1      34.097 -13.132 -22.815  0.00  0.00    +0.190 C 
ATOM     25  C   UNL     1      34.733 -13.712 -21.556  0.00  0.00    +0.052 C 
BRANCH  24  29
ATOM     26 CL   UNL     1      31.946 -13.493 -20.688  0.00  0.00    -0.080 Cl
ATOM     27 CL   UNL     1      34.685 -10.588 -24.396  0.00  0.00    -0.082 Cl
ATOM     28  F   UNL     1      30.467 -10.980 -20.352  0.00  0.00    -0.203 F 
ATOM     29  C   UNL     1      33.234 -11.929 -22.512  0.00  0.00    +0.041 C 
ATOM     30  C   UNL     1      32.234 -12.026 -21.553  0.00  0.00    +0.085 C 
ATOM     31  C   UNL     1      33.452 -10.740 -23.197  0.00  0.00    +0.058 C 
ATOM     32  C   UNL     1      31.439 -10.915 -21.274  0.00  0.00    +0.150 C 
ATOM     33  C   UNL     1      32.655  -9.630 -22.918  0.00  0.00    +0.014 C 
ATOM     34  C   UNL     1      31.649  -9.717 -21.957  0.00  0.00    +0.031 C 
ENDBRANCH  24  29
ENDBRANCH  23  24
ENDBRANCH   5  23
TORSDOF 5
ENDMDL
MODEL 2
REMARK VINA RESULT:     -11.4      5.756     11.027
REMARK  Name = 11626560
REMARK  5 active torsions:
REMARK  status: ('A' for Active; 'I' for Inactive)
REMARK    1  A    between atoms: C_2  and  C_10
REMARK    2  A    between atoms: C_5  and  O_23
REMARK    3  A    between atoms: N_7  and  C_13
REMARK    4  A    between atoms: O_23  and  C_24
REMARK    5  A    between atoms: C_24  and  C_29
REMARK                            x       y       z     vdW  Elec       q    Type
REMARK                         _______ _______ _______ _____ _____    ______ ____
ROOT
ATOM      1  N   UNL     1      33.005 -21.952 -19.286  0.00  0.00    -0.226 NA
ATOM      2  C   UNL     1      34.965 -20.682 -19.920  0.00  0.00    +0.025 C 
ATOM      3  C   UNL     1      35.718 -21.361 -18.966  0.00  0.00    +0.041 C 
ATOM      4  C   UNL     1      33.624 -21.013 -20.037  0.00  0.00    +0.101 C 
ATOM      5  C   UNL     1      35.118 -22.333 -18.174  0.00  0.00    +0.170 C 
ATOM      6  C   UNL     1      33.770 -22.589 -18.371  0.00  0.00    +0.160 C 
ATOM      7  N   UNL     1      33.157 -23.581 -17.567  0.00  0.00    -0.340 N 
ATOM      8  H   UNL     1      32.201 -23.788 -17.682  0.00  0.00    +0.144 HD
ATOM      9  H   UNL     1      33.687 -24.065 -16.892  0.00  0.00    +0.144 HD
ENDROOT
BRANCH   2  13
ATOM     10  N   UNL     1      35.769 -17.965 -22.083  0.00  0.00    -0.212 N 
ATOM     11  N   UNL     1      37.035 -18.367 -21.894  0.00  0.00    -0.176 NA
ATOM     12  C   UNL     1      34.844 -18.712 -21.420  0.00  0.00    +0.086 C 
ATOM     13  C   UNL     1      35.555 -19.677 -20.749  0.00  0.00    +0.039 C 
ATOM     14  C   UNL     1      36.899 -19.415 -21.078  0.00  0.00    +0.119 C 
BRANCH  10  16
ATOM     15  N   UNL     1      33.732 -14.985 -24.392  0.00  0.00    +0.384 N 
ATOM     16  C   UNL     1      35.495 -16.809 -22.943  0.00  0.00    +0.092 C 
ATOM     17  C   UNL     1      34.680 -15.719 -22.229  0.00  0.00    -0.002 C 
ATOM     18  C   UNL     1      34.825 -17.201 -24.269  0.00  0.00    -0.002 C 
ATOM     19  C   UNL     1      34.400 -14.546 -23.167  0.00  0.00    -0.080 C 
ATOM     20  C   UNL     1      34.538 -15.965 -25.122  0.00  0.00    -0.080 C 
ATOM     21  H   UNL     1      33.573 -14.175 -24.993  0.00  0.00    -0.085 HD
ATOM     22  H   UNL     1      32.849 -15.426 -24.136  0.00  0.00    -0.085 HD
ENDBRANCH  10  16
ENDBRANCH   2  13
BRANCH   5  23
ATOM     23  O   UNL     1      35.852 -22.997 -17.243  0.00  0.00    -0.472 OA
BRANCH  23  24
ATOM     24  C   UNL     1      36.092 -22.330 -16.004  0.00  0.00    +0.190 C 
ATOM     25  C   UNL     1      37.337 -21.459 -16.130  0.00  0.00    +0.052 C 
BRANCH  24  29
ATOM     26 CL   UNL     1      38.845 -23.580 -15.630  0.00  0.00    -0.080 Cl
ATOM     27 CL   UNL     1      33.579 -22.941 -14.382  0.00  0.00    -0.082 Cl
ATOM     28  F   UNL     1      38.752 -25.516 -13.425  0.00  0.00    -0.203 F 
ATOM     29  C   UNL     1      36.227 -23.357 -14.904  0.00  0.00    +0.041 C 
ATOM     30  C   UNL     1      37.455 -23.966 -14.680  0.00  0.00    +0.085 C 
ATOM     31  C   UNL     1      35.120 -23.679 -14.128  0.00  0.00    +0.058 C 
ATOM     32  C   UNL     1      37.579 -24.913 -13.664  0.00  0.00    +0.150 C 
ATOM     33  C   UNL     1      35.244 -24.627 -13.113  0.00  0.00    +0.014 C 
ATOM     34  C   UNL     1      36.473 -25.244 -12.881  0.00  0.00    +0.031 C 
ENDBRANCH  24  29
ENDBRANCH  23  24
ENDBRANCH   5  23
TORSDOF 5
ENDMDL
MODEL 3
REMARK VINA RESULT:     -11.4      5.555     10.837
REMARK  Name = 11626560
REMARK  5 active torsions:
REMARK  status: ('A' for Active; 'I' for Inactive)
REMARK    1  A    between atoms: C_2  and  C_10
REMARK    2  A    between atoms: C_5  and  O_23
REMARK    3  A    between atoms: N_7  and  C_13
REMARK    4  A    between atoms: O_23  and  C_24
REMARK    5  A    between atoms: C_24  and  C_29
REMARK                            x       y       z     vdW  Elec       q    Type
REMARK                         _______ _______ _______ _____ _____    ______ ____
ROOT
ATOM      1  N   UNL     1      33.040 -21.939 -19.326  0.00  0.00    -0.226 NA
ATOM      2  C   UNL     1      34.982 -20.649 -19.976  0.00  0.00    +0.025 C 
ATOM      3  C   UNL     1      35.747 -21.314 -19.022  0.00  0.00    +0.041 C 
ATOM      4  C   UNL     1      33.644 -20.997 -20.085  0.00  0.00    +0.101 C 
ATOM      5  C   UNL     1      35.162 -22.289 -18.222  0.00  0.00    +0.170 C 
ATOM      6  C   UNL     1      33.817 -22.562 -18.411  0.00  0.00    +0.160 C 
ATOM      7  N   UNL     1      33.219 -23.557 -17.599  0.00  0.00    -0.340 N 
ATOM      8  H   UNL     1      32.265 -23.775 -17.708  0.00  0.00    +0.144 HD
ATOM      9  H   UNL     1      33.758 -24.030 -16.924  0.00  0.00    +0.144 HD
ENDROOT
BRANCH   2  13
ATOM     10  N   UNL     1      35.745 -17.918 -22.135  0.00  0.00    -0.212 N 
ATOM     11  N   UNL     1      37.012 -18.336 -21.992  0.00  0.00    -0.176 NA
ATOM     12  C   UNL     1      34.834 -18.661 -21.450  0.00  0.00    +0.086 C 
ATOM     13  C   UNL     1      35.556 -19.641 -20.813  0.00  0.00    +0.039 C 
ATOM     14  C   UNL     1      36.891 -19.391 -21.183  0.00  0.00    +0.119 C 
BRANCH  10  16
ATOM     15  N   UNL     1      33.672 -14.928 -24.399  0.00  0.00    +0.384 N 
ATOM     16  C   UNL     1      35.457 -16.749 -22.972  0.00  0.00    +0.092 C 
ATOM     17  C   UNL     1      34.615 -15.690 -22.243  0.00  0.00    -0.002 C 
ATOM     18  C   UNL     1      34.805 -17.125 -24.313  0.00  0.00    -0.002 C 
ATOM     19  C   UNL     1      34.321 -14.502 -23.159  0.00  0.00    -0.080 C 
ATOM     20  C   UNL     1      34.502 -15.877 -25.142  0.00  0.00    -0.080 C 
ATOM     21  H   UNL     1      33.502 -14.109 -24.983  0.00  0.00    -0.085 HD
ATOM     22  H   UNL     1      32.795 -15.390 -24.160  0.00  0.00    -0.085 HD
ENDBRANCH  10  16
ENDBRANCH   2  13
BRANCH   5  23
ATOM     23  O   UNL     1      35.909 -22.939 -17.291  0.00  0.00    -0.472 OA
BRANCH  23  24
ATOM     24  C   UNL     1      36.122 -22.275 -16.045  0.00  0.00    +0.190 C 
ATOM     25  C   UNL     1      37.364 -21.397 -16.145  0.00  0.00    +0.052 C 
BRANCH  24  29
ATOM     26 CL   UNL     1      33.607 -22.838 -14.420  0.00  0.00    -0.080 Cl
ATOM     27 CL   UNL     1      38.857 -23.580 -15.679  0.00  0.00    -0.082 Cl
ATOM     28  F   UNL     1      34.189 -24.873 -12.386  0.00  0.00    -0.203 F 
ATOM     29  C   UNL     1      36.242 -23.305 -14.946  0.00  0.00    +0.041 C 
ATOM     30  C   UNL     1      35.133 -23.609 -14.167  0.00  0.00    +0.085 C 
ATOM     31  C   UNL     1      37.460 -23.936 -14.729  0.00  0.00    +0.058 C 
ATOM     32  C   UNL     1      35.244 -24.560 -13.153  0.00  0.00    +0.150 C 
ATOM     33  C   UNL     1      37.571 -24.886 -13.714  0.00  0.00    +0.014 C 
ATOM     34  C   UNL     1      36.463 -25.198 -12.926  0.00  0.00    +0.031 C 
ENDBRANCH  24  29
ENDBRANCH  23  24
ENDBRANCH   5  23
TORSDOF 5
ENDMDL
MODEL 4
REMARK VINA RESULT:     -11.1      0.982      2.111
REMARK  Name = 11626560
REMARK  5 active torsions:
REMARK  status: ('A' for Active; 'I' for Inactive)
REMARK    1  A    between atoms: C_2  and  C_10
REMARK    2  A    between atoms: C_5  and  O_23
REMARK    3  A    between atoms: N_7  and  C_13
REMARK    4  A    between atoms: O_23  and  C_24
REMARK    5  A    between atoms: C_24  and  C_29
REMARK                            x       y       z     vdW  Elec       q    Type
REMARK                         _______ _______ _______ _____ _____    ______ ____
ROOT
ATOM      1  N   UNL     1      34.522 -16.221 -25.780  0.00  0.00    -0.226 NA
ATOM      2  C   UNL     1      34.844 -16.939 -23.491  0.00  0.00    +0.025 C 
ATOM      3  C   UNL     1      34.156 -15.816 -23.039  0.00  0.00    +0.041 C 
ATOM      4  C   UNL     1      34.998 -17.091 -24.861  0.00  0.00    +0.101 C 
ATOM      5  C   UNL     1      33.653 -14.898 -23.952  0.00  0.00    +0.170 C 
ATOM      6  C   UNL     1      33.861 -15.143 -25.300  0.00  0.00    +0.160 C 
ATOM      7  N   UNL     1      33.347 -14.210 -26.234  0.00  0.00    -0.340 N 
ATOM      8  H   UNL     1      33.477 -14.354 -27.199  0.00  0.00    +0.144 HD
ATOM      9  H   UNL     1      32.859 -13.415 -25.917  0.00  0.00    +0.144 HD
ENDROOT
BRANCH   2  13
ATOM     10  N   UNL     1      35.503 -19.359 -20.959  0.00  0.00    -0.212 N 
ATOM     11  N   UNL     1      36.756 -19.317 -21.435  0.00  0.00    -0.176 NA
ATOM     12  C   UNL     1      34.634 -18.534 -21.605  0.00  0.00    +0.086 C 
ATOM     13  C   UNL     1      35.373 -17.901 -22.575  0.00  0.00    +0.039 C 
ATOM     14  C   UNL     1      36.673 -18.422 -22.423  0.00  0.00    +0.119 C 
BRANCH  10  16
ATOM     15  N   UNL     1      34.639 -22.860 -18.642  0.00  0.00    +0.384 N 
ATOM     16  C   UNL     1      35.182 -20.249 -19.838  0.00  0.00    +0.092 C 
ATOM     17  C   UNL     1      36.298 -21.266 -19.551  0.00  0.00    -0.002 C 
ATOM     18  C   UNL     1      33.834 -20.966 -20.016  0.00  0.00    -0.002 C 
ATOM     19  C   UNL     1      35.913 -22.186 -18.392  0.00  0.00    -0.080 C 
ATOM     20  C   UNL     1      33.553 -21.899 -18.837  0.00  0.00    -0.080 C 
ATOM     21  H   UNL     1      34.415 -23.454 -17.844  0.00  0.00    -0.085 HD
ATOM     22  H   UNL     1      34.731 -23.415 -19.493  0.00  0.00    -0.085 HD
ENDBRANCH  10  16
ENDBRANCH   2  13
BRANCH   5  23
ATOM     23  O   UNL     1      32.981 -13.802 -23.512  0.00  0.00    -0.472 OA
BRANCH  23  24
ATOM     24  C   UNL     1      33.715 -12.856 -22.733  0.00  0.00    +0.190 C 
ATOM     25  C   UNL     1      34.764 -13.588 -21.904  0.00  0.00    +0.052 C 
BRANCH  24  29
ATOM     26 CL   UNL     1      33.345  -9.913 -23.427  0.00  0.00    -0.080 Cl
ATOM     27 CL   UNL     1      32.345 -14.380 -20.470  0.00  0.00    -0.082 Cl
ATOM     28  F   UNL     1      31.428  -8.700 -21.564  0.00  0.00    -0.203 F 
ATOM     29  C   UNL     1      32.755 -12.072 -21.869  0.00  0.00    +0.041 C 
ATOM     30  C   UNL     1      32.541 -10.725 -22.131  0.00  0.00    +0.085 C 
ATOM     31  C   UNL     1      32.099 -12.708 -20.822  0.00  0.00    +0.058 C 
ATOM     32  C   UNL     1      31.654 -10.001 -21.333  0.00  0.00    +0.150 C 
ATOM     33  C   UNL     1      31.213 -11.984 -20.025  0.00  0.00    +0.014 C 
ATOM     34  C   UNL     1      30.991 -10.631 -20.280  0.00  0.00    +0.031 C 
ENDBRANCH  24  29
ENDBRANCH  23  24
ENDBRANCH   5  23
TORSDOF 5
ENDMDL
MODEL 5
REMARK VINA RESULT:     -11.1      3.732      5.993
REMARK  Name = 11626560
REMARK  5 active torsions:
REMARK  status: ('A' for Active; 'I' for Inactive)
REMARK    1  A    between atoms: C_2  and  C_10
REMARK    2  A    between atoms: C_5  and  O_23
REMARK    3  A    between atoms: N_7  and  C_13
REMARK    4  A    between atoms: O_23  and  C_24
REMARK    5  A    between atoms: C_24  and  C_29
REMARK                            x       y       z     vdW  Elec       q    Type
REMARK                         _______ _______ _______ _____ _____    ______ ____
ROOT
ATOM      1  N   UNL     1      31.516 -11.757 -19.606  0.00  0.00    -0.226 NA
ATOM      2  C   UNL     1      32.657 -12.481 -21.614  0.00  0.00    +0.025 C 
ATOM      3  C   UNL     1      32.596 -11.185 -22.120  0.00  0.00    +0.041 C 
ATOM      4  C   UNL     1      32.106 -12.710 -20.363  0.00  0.00    +0.101 C 
ATOM      5  C   UNL     1      31.998 -10.177 -21.372  0.00  0.00    +0.170 C 
ATOM      6  C   UNL     1      31.478 -10.511 -20.132  0.00  0.00    +0.160 C 
ATOM      7  N   UNL     1      30.870  -9.485 -19.367  0.00  0.00    -0.340 N 
ATOM      8  H   UNL     1      30.490  -9.689 -18.482  0.00  0.00    +0.144 HD
ATOM      9  H   UNL     1      30.826  -8.567 -19.721  0.00  0.00    +0.144 HD
ENDROOT
BRANCH   2  13
ATOM     10  N   UNL     1      34.358 -15.363 -22.839  0.00  0.00    -0.212 N 
ATOM     11  N   UNL     1      34.004 -14.893 -24.044  0.00  0.00    -0.176 NA
ATOM     12  C   UNL     1      33.942 -14.593 -21.797  0.00  0.00    +0.086 C 
ATOM     13  C   UNL     1      33.265 -13.538 -22.360  0.00  0.00    +0.039 C 
ATOM     14  C   UNL     1      33.336 -13.775 -23.747  0.00  0.00    +0.119 C 
BRANCH  10  16
ATOM     15  N   UNL     1      35.415 -19.473 -22.238  0.00  0.00    +0.384 N 
ATOM     16  C   UNL     1      35.126 -16.609 -22.744  0.00  0.00    +0.092 C 
ATOM     17  C   UNL     1      34.663 -17.669 -23.755  0.00  0.00    -0.002 C 
ATOM     18  C   UNL     1      35.138 -17.192 -21.322  0.00  0.00    -0.002 C 
ATOM     19  C   UNL     1      35.474 -18.956 -23.606  0.00  0.00    -0.080 C 
ATOM     20  C   UNL     1      35.929 -18.499 -21.274  0.00  0.00    -0.080 C 
ATOM     21  H   UNL     1      35.975 -20.323 -22.180  0.00  0.00    -0.085 HD
ATOM     22  H   UNL     1      34.439 -19.664 -22.009  0.00  0.00    -0.085 HD
ENDBRANCH  10  16
ENDBRANCH   2  13
BRANCH   5  23
ATOM     23  O   UNL     1      31.940  -8.912 -21.864  0.00  0.00    -0.472 OA
BRANCH  23  24
ATOM     24  C   UNL     1      33.108  -8.103 -21.724  0.00  0.00    +0.190 C 
ATOM     25  C   UNL     1      33.145  -7.505 -20.323  0.00  0.00    +0.052 C 
BRANCH  24  29
ATOM     26 CL   UNL     1      30.794  -6.122 -21.682  0.00  0.00    -0.080 Cl
ATOM     27 CL   UNL     1      35.424  -8.155 -23.712  0.00  0.00    -0.082 Cl
ATOM     28  F   UNL     1      31.103  -4.205 -23.883  0.00  0.00    -0.203 F 
ATOM     29  C   UNL     1      33.108  -7.038 -22.796  0.00  0.00    +0.041 C 
ATOM     30  C   UNL     1      32.081  -6.103 -22.834  0.00  0.00    +0.085 C 
ATOM     31  C   UNL     1      34.135  -7.007 -23.731  0.00  0.00    +0.058 C 
ATOM     32  C   UNL     1      32.081  -5.120 -23.823  0.00  0.00    +0.150 C 
ATOM     33  C   UNL     1      34.134  -6.024 -24.720  0.00  0.00    +0.014 C 
ATOM     34  C   UNL     1      33.108  -5.081 -24.767  0.00  0.00    +0.031 C 
ENDBRANCH  24  29
ENDBRANCH  23  24
ENDBRANCH   5  23
TORSDOF 5
ENDMDL
MODEL 6
REMARK VINA RESULT:     -11.1      3.790      6.134
REMARK  Name = 11626560
REMARK  5 active torsions:
REMARK  status: ('A' for Active; 'I' for Inactive)
REMARK    1  A    between atoms: C_2  and  C_10
REMARK    2  A    between atoms: C_5  and  O_23
REMARK    3  A    between atoms: N_7  and  C_13
REMARK    4  A    between atoms: O_23  and  C_24
REMARK    5  A    between atoms: C_24  and  C_29
REMARK                            x       y       z     vdW  Elec       q    Type
REMARK                         _______ _______ _______ _____ _____    ______ ____
ROOT
ATOM      1  N   UNL     1      31.535 -11.805 -19.605  0.00  0.00    -0.226 NA
ATOM      2  C   UNL     1      32.678 -12.501 -21.622  0.00  0.00    +0.025 C 
ATOM      3  C   UNL     1      32.606 -11.201 -22.115  0.00  0.00    +0.041 C 
ATOM      4  C   UNL     1      32.131 -12.746 -20.371  0.00  0.00    +0.101 C 
ATOM      5  C   UNL     1      32.001 -10.205 -21.357  0.00  0.00    +0.170 C 
ATOM      6  C   UNL     1      31.486 -10.555 -20.119  0.00  0.00    +0.160 C 
ATOM      7  N   UNL     1      30.871  -9.541 -19.343  0.00  0.00    -0.340 N 
ATOM      8  H   UNL     1      30.494  -9.757 -18.460  0.00  0.00    +0.144 HD
ATOM      9  H   UNL     1      30.819  -8.620 -19.689  0.00  0.00    +0.144 HD
ENDROOT
BRANCH   2  13
ATOM     10  N   UNL     1      34.374 -15.374 -22.876  0.00  0.00    -0.212 N 
ATOM     11  N   UNL     1      34.063 -14.864 -24.078  0.00  0.00    -0.176 NA
ATOM     12  C   UNL     1      33.936 -14.626 -21.825  0.00  0.00    +0.086 C 
ATOM     13  C   UNL     1      33.293 -13.546 -22.379  0.00  0.00    +0.039 C 
ATOM     14  C   UNL     1      33.403 -13.746 -23.769  0.00  0.00    +0.119 C 
BRANCH  10  16
ATOM     15  N   UNL     1      35.358 -19.507 -22.320  0.00  0.00    +0.384 N 
ATOM     16  C   UNL     1      35.120 -16.633 -22.793  0.00  0.00    +0.092 C 
ATOM     17  C   UNL     1      34.642 -17.674 -23.819  0.00  0.00    -0.002 C 
ATOM     18  C   UNL     1      35.118 -17.233 -21.378  0.00  0.00    -0.002 C 
ATOM     19  C   UNL     1      35.430 -18.976 -23.681  0.00  0.00    -0.080 C 
ATOM     20  C   UNL     1      35.886 -18.554 -21.343  0.00  0.00    -0.080 C 
ATOM     21  H   UNL     1      35.903 -20.368 -22.270  0.00  0.00    -0.085 HD
ATOM     22  H   UNL     1      34.379 -19.685 -22.097  0.00  0.00    -0.085 HD
ENDBRANCH  10  16
ENDBRANCH   2  13
BRANCH   5  23
ATOM     23  O   UNL     1      31.931  -8.936 -21.837  0.00  0.00    -0.472 OA
BRANCH  23  24
ATOM     24  C   UNL     1      33.089  -8.115 -21.680  0.00  0.00    +0.190 C 
ATOM     25  C   UNL     1      33.094  -7.509 -20.281  0.00  0.00    +0.052 C 
BRANCH  24  29
ATOM     26 CL   UNL     1      35.424  -8.174 -23.636  0.00  0.00    -0.080 Cl
ATOM     27 CL   UNL     1      30.768  -6.132 -21.675  0.00  0.00    -0.082 Cl
ATOM     28  F   UNL     1      35.129  -5.996 -25.582  0.00  0.00    -0.203 F 
ATOM     29  C   UNL     1      33.098  -7.055 -22.757  0.00  0.00    +0.041 C 
ATOM     30  C   UNL     1      34.135  -7.026 -23.681  0.00  0.00    +0.085 C 
ATOM     31  C   UNL     1      32.069  -6.123 -22.810  0.00  0.00    +0.058 C 
ATOM     32  C   UNL     1      34.142  -6.048 -24.676  0.00  0.00    +0.150 C 
ATOM     33  C   UNL     1      32.077  -5.146 -23.804  0.00  0.00    +0.014 C 
ATOM     34  C   UNL     1      33.113  -5.107 -24.737  0.00  0.00    +0.031 C 
ENDBRANCH  24  29
ENDBRANCH  23  24
ENDBRANCH   5  23
TORSDOF 5
ENDMDL
MODEL 7
REMARK VINA RESULT:     -10.7      2.880      5.076
REMARK  Name = 11626560
REMARK  5 active torsions:
REMARK  status: ('A' for Active; 'I' for Inactive)
REMARK    1  A    between atoms: C_2  and  C_10
REMARK    2  A    between atoms: C_5  and  O_23
REMARK    3  A    between atoms: N_7  and  C_13
REMARK    4  A    between atoms: O_23  and  C_24
REMARK    5  A    between atoms: C_24  and  C_29
REMARK                            x       y       z     vdW  Elec       q    Type
REMARK                         _______ _______ _______ _____ _____    ______ ____
ROOT
ATOM      1  N   UNL     1      37.525 -20.010 -20.488  0.00  0.00    -0.226 NA
ATOM      2  C   UNL     1      35.266 -20.616 -19.864  0.00  0.00    +0.025 C 
ATOM      3  C   UNL     1      34.763 -19.680 -20.765  0.00  0.00    +0.041 C 
ATOM      4  C   UNL     1      36.643 -20.738 -19.766  0.00  0.00    +0.101 C 
ATOM      5  C   UNL     1      35.636 -18.912 -21.525  0.00  0.00    +0.170 C 
ATOM      6  C   UNL     1      36.996 -19.113 -21.351  0.00  0.00    +0.160 C 
ATOM      7  N   UNL     1      37.889 -18.332 -22.126  0.00  0.00    -0.340 N 
ATOM      8  H   UNL     1      38.861 -18.449 -22.027  0.00  0.00    +0.144 HD
ATOM      9  H   UNL     1      37.536 -17.670 -22.765  0.00  0.00    +0.144 HD
ENDROOT
BRANCH   2  13
ATOM     10  N   UNL     1      33.672 -22.767 -17.511  0.00  0.00    -0.212 N 
ATOM     11  N   UNL     1      32.563 -22.489 -18.213  0.00  0.00    -0.176 NA
ATOM     12  C   UNL     1      34.794 -22.154 -17.978  0.00  0.00    +0.086 C 
ATOM     13  C   UNL     1      34.392 -21.421 -19.068  0.00  0.00    +0.039 C 
ATOM     14  C   UNL     1      33.008 -21.665 -19.166  0.00  0.00    +0.119 C 
BRANCH  10  16
ATOM     15  N   UNL     1      33.652 -24.251 -13.491  0.00  0.00    +0.384 N 
ATOM     16  C   UNL     1      33.591 -23.662 -16.353  0.00  0.00    +0.092 C 
ATOM     17  C   UNL     1      32.416 -23.323 -15.422  0.00  0.00    -0.002 C 
ATOM     18  C   UNL     1      34.905 -23.725 -15.558  0.00  0.00    -0.002 C 
ATOM     19  C   UNL     1      32.383 -24.265 -14.219  0.00  0.00    -0.080 C 
ATOM     20  C   UNL     1      34.768 -24.650 -14.349  0.00  0.00    -0.080 C 
ATOM     21  H   UNL     1      33.591 -24.897 -12.704  0.00  0.00    -0.085 HD
ATOM     22  H   UNL     1      33.824 -23.299 -13.165  0.00  0.00    -0.085 HD
ENDBRANCH  10  16
ENDBRANCH   2  13
BRANCH   5  23
ATOM     23  O   UNL     1      35.146 -17.999 -22.404  0.00  0.00    -0.472 OA
BRANCH  23  24
ATOM     24  C   UNL     1      35.230 -16.624 -22.031  0.00  0.00    +0.190 C 
ATOM     25  C   UNL     1      34.507 -16.413 -20.706  0.00  0.00    +0.052 C 
BRANCH  24  29
ATOM     26 CL   UNL     1      34.549 -13.740 -21.321  0.00  0.00    -0.080 Cl
ATOM     27 CL   UNL     1      34.857 -17.966 -24.747  0.00  0.00    -0.082 Cl
ATOM     28  F   UNL     1      33.450 -12.382 -23.680  0.00  0.00    -0.203 F 
ATOM     29  C   UNL     1      34.649 -15.772 -23.136  0.00  0.00    +0.041 C 
ATOM     30  C   UNL     1      34.315 -14.449 -22.879  0.00  0.00    +0.085 C 
ATOM     31  C   UNL     1      34.454 -16.324 -24.396  0.00  0.00    +0.058 C 
ATOM     32  C   UNL     1      33.780 -13.663 -23.899  0.00  0.00    +0.150 C 
ATOM     33  C   UNL     1      33.918 -15.539 -25.416  0.00  0.00    +0.014 C 
ATOM     34  C   UNL     1      33.580 -14.209 -25.168  0.00  0.00    +0.031 C 
ENDBRANCH  24  29
ENDBRANCH  23  24
ENDBRANCH   5  23
TORSDOF 5
ENDMDL
MODEL 8
REMARK VINA RESULT:     -10.7      3.045      5.152
REMARK  Name = 11626560
REMARK  5 active torsions:
REMARK  status: ('A' for Active; 'I' for Inactive)
REMARK    1  A    between atoms: C_2  and  C_10
REMARK    2  A    between atoms: C_5  and  O_23
REMARK    3  A    between atoms: N_7  and  C_13
REMARK    4  A    between atoms: O_23  and  C_24
REMARK    5  A    between atoms: C_24  and  C_29
REMARK                            x       y       z     vdW  Elec       q    Type
REMARK                         _______ _______ _______ _____ _____    ______ ____
ROOT
ATOM      1  N   UNL     1      37.523 -20.001 -20.533  0.00  0.00    -0.226 NA
ATOM      2  C   UNL     1      35.269 -20.590 -19.875  0.00  0.00    +0.025 C 
ATOM      3  C   UNL     1      34.762 -19.607 -20.721  0.00  0.00    +0.041 C 
ATOM      4  C   UNL     1      36.646 -20.743 -19.819  0.00  0.00    +0.101 C 
ATOM      5  C   UNL     1      35.631 -18.824 -21.471  0.00  0.00    +0.170 C 
ATOM      6  C   UNL     1      36.991 -19.058 -21.343  0.00  0.00    +0.160 C 
ATOM      7  N   UNL     1      37.878 -18.262 -22.108  0.00  0.00    -0.340 N 
ATOM      8  H   UNL     1      38.850 -18.402 -22.040  0.00  0.00    +0.144 HD
ATOM      9  H   UNL     1      37.523 -17.567 -22.709  0.00  0.00    +0.144 HD
ENDROOT
BRANCH   2  13
ATOM     10  N   UNL     1      33.684 -22.768 -17.541  0.00  0.00    -0.212 N 
ATOM     11  N   UNL     1      32.581 -22.515 -18.261  0.00  0.00    -0.176 NA
ATOM     12  C   UNL     1      34.801 -22.132 -17.992  0.00  0.00    +0.086 C 
ATOM     13  C   UNL     1      34.400 -21.411 -19.090  0.00  0.00    +0.039 C 
ATOM     14  C   UNL     1      33.024 -21.685 -19.209  0.00  0.00    +0.119 C 
BRANCH  10  16
ATOM     15  N   UNL     1      33.664 -24.245 -13.518  0.00  0.00    +0.384 N 
ATOM     16  C   UNL     1      33.604 -23.661 -16.381  0.00  0.00    +0.092 C 
ATOM     17  C   UNL     1      32.427 -23.324 -15.452  0.00  0.00    -0.002 C 
ATOM     18  C   UNL     1      34.918 -23.720 -15.585  0.00  0.00    -0.002 C 
ATOM     19  C   UNL     1      32.396 -24.264 -14.248  0.00  0.00    -0.080 C 
ATOM     20  C   UNL     1      34.782 -24.644 -14.374  0.00  0.00    -0.080 C 
ATOM     21  H   UNL     1      33.604 -24.891 -12.731  0.00  0.00    -0.085 HD
ATOM     22  H   UNL     1      33.833 -23.293 -13.194  0.00  0.00    -0.085 HD
ENDBRANCH  10  16
ENDBRANCH   2  13
BRANCH   5  23
ATOM     23  O   UNL     1      35.137 -17.866 -22.298  0.00  0.00    -0.472 OA
BRANCH  23  24
ATOM     24  C   UNL     1      35.176 -16.517 -21.831  0.00  0.00    +0.190 C 
ATOM     25  C   UNL     1      34.487 -16.430 -20.474  0.00  0.00    +0.052 C 
BRANCH  24  29
ATOM     26 CL   UNL     1      34.916 -17.626 -24.657  0.00  0.00    -0.080 Cl
ATOM     27 CL   UNL     1      34.261 -13.771 -20.861  0.00  0.00    -0.082 Cl
ATOM     28  F   UNL     1      33.622 -15.632 -26.378  0.00  0.00    -0.203 F 
ATOM     29  C   UNL     1      34.528 -15.616 -22.856  0.00  0.00    +0.041 C 
ATOM     30  C   UNL     1      34.379 -16.061 -24.164  0.00  0.00    +0.085 C 
ATOM     31  C   UNL     1      34.089 -14.353 -22.478  0.00  0.00    +0.058 C 
ATOM     32  C   UNL     1      33.780 -15.228 -25.109  0.00  0.00    +0.150 C 
ATOM     33  C   UNL     1      33.490 -13.522 -23.424  0.00  0.00    +0.014 C 
ATOM     34  C   UNL     1      33.336 -13.959 -24.739  0.00  0.00    +0.031 C 
ENDBRANCH  24  29
ENDBRANCH  23  24
ENDBRANCH   5  23
TORSDOF 5
ENDMDL
MODEL 9
REMARK VINA RESULT:     -10.5      6.705     11.868
REMARK  Name = 11626560
REMARK  5 active torsions:
REMARK  status: ('A' for Active; 'I' for Inactive)
REMARK    1  A    between atoms: C_2  and  C_10
REMARK    2  A    between atoms: C_5  and  O_23
REMARK    3  A    between atoms: N_7  and  C_13
REMARK    4  A    between atoms: O_23  and  C_24
REMARK    5  A    between atoms: C_24  and  C_29
REMARK                            x       y       z     vdW  Elec       q    Type
REMARK                         _______ _______ _______ _____ _____    ______ ____
ROOT
ATOM      1  N   UNL     1      32.036 -22.937 -17.319  0.00  0.00    -0.226 NA
ATOM      2  C   UNL     1      34.250 -22.196 -17.958  0.00  0.00    +0.025 C 
ATOM      3  C   UNL     1      34.776 -22.757 -16.797  0.00  0.00    +0.041 C 
ATOM      4  C   UNL     1      32.884 -22.313 -18.168  0.00  0.00    +0.101 C 
ATOM      5  C   UNL     1      33.936 -23.406 -15.900  0.00  0.00    +0.170 C 
ATOM      6  C   UNL     1      32.585 -23.468 -16.204  0.00  0.00    +0.160 C 
ATOM      7  N   UNL     1      31.728 -24.132 -15.292  0.00  0.00    -0.340 N 
ATOM      8  H   UNL     1      30.763 -24.193 -15.478  0.00  0.00    +0.144 HD
ATOM      9  H   UNL     1      32.097 -24.530 -14.470  0.00  0.00    +0.144 HD
ENDROOT
BRANCH   2  13
ATOM     10  N   UNL     1      35.737 -20.226 -20.529  0.00  0.00    -0.212 N 
ATOM     11  N   UNL     1      36.883 -20.775 -20.099  0.00  0.00    -0.176 NA
ATOM     12  C   UNL     1      34.633 -20.637 -19.847  0.00  0.00    +0.086 C 
ATOM     13  C   UNL     1      35.089 -21.521 -18.899  0.00  0.00    +0.039 C 
ATOM     14  C   UNL     1      36.482 -21.567 -19.102  0.00  0.00    +0.119 C 
BRANCH  10  16
ATOM     15  N   UNL     1      34.559 -17.285 -23.415  0.00  0.00    +0.384 N 
ATOM     16  C   UNL     1      35.763 -19.273 -21.644  0.00  0.00    +0.092 C 
ATOM     17  C   UNL     1      35.502 -17.827 -21.194  0.00  0.00    -0.002 C 
ATOM     18  C   UNL     1      34.806 -19.664 -22.781  0.00  0.00    -0.002 C 
ATOM     19  C   UNL     1      35.515 -16.874 -22.388  0.00  0.00    -0.080 C 
ATOM     20  C   UNL     1      34.848 -18.632 -23.909  0.00  0.00    -0.080 C 
ATOM     21  H   UNL     1      34.607 -16.630 -24.196  0.00  0.00    -0.085 HD
ATOM     22  H   UNL     1      33.626 -17.290 -23.002  0.00  0.00    -0.085 HD
ENDBRANCH  10  16
ENDBRANCH   2  13
BRANCH   5  23
ATOM     23  O   UNL     1      34.449 -23.955 -14.767  0.00  0.00    -0.472 OA
BRANCH  23  24
ATOM     24  C   UNL     1      35.756 -24.522 -14.852  0.00  0.00    +0.190 C 
ATOM     25  C   UNL     1      35.651 -25.971 -15.313  0.00  0.00    +0.052 C 
BRANCH  24  29
ATOM     26 CL   UNL     1      33.949 -24.464 -12.400  0.00  0.00    -0.080 Cl
ATOM     27 CL   UNL     1      38.804 -24.361 -14.871  0.00  0.00    -0.082 Cl
ATOM     28  F   UNL     1      35.589 -24.226  -9.977  0.00  0.00    -0.203 F 
ATOM     29  C   UNL     1      36.439 -24.402 -13.509  0.00  0.00    +0.041 C 
ATOM     30  C   UNL     1      35.673 -24.369 -12.351  0.00  0.00    +0.085 C 
ATOM     31  C   UNL     1      37.825 -24.325 -13.450  0.00  0.00    +0.058 C 
ATOM     32  C   UNL     1      36.303 -24.259 -11.112  0.00  0.00    +0.150 C 
ATOM     33  C   UNL     1      38.455 -24.214 -12.211  0.00  0.00    +0.014 C 
ATOM     34  C   UNL     1      37.695 -24.180 -11.042  0.00  0.00    +0.031 C 
ENDBRANCH  24  29
ENDBRANCH  23  24
ENDBRANCH   5  23
TORSDOF 5
ENDMDL
