MODEL 1
REMARK VINA RESULT:     -12.1      0.000      0.000
REMARK  Name = 44129603
REMARK  3 active torsions:
REMARK  status: ('A' for Active; 'I' for Inactive)
REMARK    1  A    between atoms: N_5  and  C_17
REMARK    2  A    between atoms: C_12  and  C_24
REMARK    3  A    between atoms: C_24  and  O_25
REMARK                            x       y       z     vdW  Elec       q    Type
REMARK                         _______ _______ _______ _____ _____    ______ ____
ROOT
ATOM      1  N   UNL     1      36.736 -23.006 -14.847  0.00  0.00    -0.246 N 
ATOM      2  N   UNL     1      37.714 -23.104 -13.924  0.00  0.00    -0.163 NA
ATOM      3  N   UNL     1      34.137 -22.872 -16.274  0.00  0.00    -0.336 NA
ATOM      4  N   UNL     1      31.813 -23.530 -16.282  0.00  0.00    -0.170 NA
ATOM      5  N   UNL     1      32.749 -22.368 -18.094  0.00  0.00    -0.247 N 
ATOM      6  C   UNL     1      34.571 -24.178 -12.201  0.00  0.00    +0.035 C 
ATOM      7  C   UNL     1      35.702 -23.742 -13.064  0.00  0.00    +0.024 A 
ATOM      8  C   UNL     1      33.400 -24.748 -13.047  0.00  0.00    +0.035 C 
ATOM      9  C   UNL     1      35.515 -23.384 -14.380  0.00  0.00    +0.106 A 
ATOM     10  C   UNL     1      33.189 -24.060 -14.379  0.00  0.00    +0.030 C 
ATOM     11  C   UNL     1      34.240 -23.437 -15.057  0.00  0.00    +0.158 C 
ATOM     12  C   UNL     1      37.074 -23.551 -12.835  0.00  0.00    +0.174 A 
ATOM     13  C   UNL     1      31.988 -24.083 -15.061  0.00  0.00    +0.110 C 
ATOM     14  C   UNL     1      37.075 -22.511 -16.162  0.00  0.00    +0.154 C 
ATOM     15  C   UNL     1      32.909 -22.953 -16.819  0.00  0.00    +0.149 C 
ATOM     16  H   UNL     1      31.836 -22.448 -18.455  0.00  0.00    +0.165 HD
ENDROOT
BRANCH   5  17
ATOM     17  C   UNL     1      33.637 -21.693 -18.951  0.00  0.00    +0.058 C 
ATOM     18  C   UNL     1      33.162 -20.697 -19.804  0.00  0.00    +0.015 C 
ATOM     19  C   UNL     1      34.993 -22.019 -18.946  0.00  0.00    +0.015 C 
ATOM     20  C   UNL     1      34.043 -20.027 -20.653  0.00  0.00    +0.001 C 
ATOM     21  C   UNL     1      35.875 -21.348 -19.795  0.00  0.00    +0.001 C 
ATOM     22  C   UNL     1      35.400 -20.353 -20.648  0.00  0.00    +0.000 C 
ENDBRANCH   5  17
BRANCH  12  24
ATOM     23  O   UNL     1      37.769 -24.817 -10.929  0.00  0.00    -0.243 OA
ATOM     24  C   UNL     1      37.808 -23.784 -11.625  0.00  0.00    +0.357 C 
BRANCH  24  25
ATOM     25  O   UNL     1      38.603 -22.729 -11.263  0.00  0.00    -0.476 OA
ATOM     26  H   UNL     1      38.762 -22.551 -10.357  0.00  0.00    +0.295 HD
ENDBRANCH  24  25
ENDBRANCH  12  24
TORSDOF 3
ENDMDL
MODEL 2
REMARK VINA RESULT:     -10.4      8.353     11.861
REMARK  Name = 44129603
REMARK  3 active torsions:
REMARK  status: ('A' for Active; 'I' for Inactive)
REMARK    1  A    between atoms: N_5  and  C_17
REMARK    2  A    between atoms: C_12  and  C_24
REMARK    3  A    between atoms: C_24  and  O_25
REMARK                            x       y       z     vdW  Elec       q    Type
REMARK                         _______ _______ _______ _____ _____    ______ ____
ROOT
ATOM      1  N   UNL     1      33.066 -14.477 -20.996  0.00  0.00    -0.246 N 
ATOM      2  N   UNL     1      32.494 -13.453 -20.330  0.00  0.00    -0.163 NA
ATOM      3  N   UNL     1      34.438 -16.198 -22.986  0.00  0.00    -0.336 NA
ATOM      4  N   UNL     1      34.939 -16.564 -25.321  0.00  0.00    -0.170 NA
ATOM      5  N   UNL     1      35.588 -18.118 -23.686  0.00  0.00    -0.247 N 
ATOM      6  C   UNL     1      32.954 -12.256 -23.846  0.00  0.00    +0.035 C 
ATOM      7  C   UNL     1      32.840 -12.921 -22.520  0.00  0.00    +0.024 A 
ATOM      8  C   UNL     1      33.020 -13.296 -24.998  0.00  0.00    +0.035 C 
ATOM      9  C   UNL     1      33.285 -14.207 -22.312  0.00  0.00    +0.106 A 
ATOM     10  C   UNL     1      33.770 -14.567 -24.658  0.00  0.00    +0.030 C 
ATOM     11  C   UNL     1      33.853 -15.041 -23.346  0.00  0.00    +0.158 C 
ATOM     12  C   UNL     1      32.363 -12.504 -21.267  0.00  0.00    +0.174 A 
ATOM     13  C   UNL     1      34.330 -15.393 -25.612  0.00  0.00    +0.110 C 
ATOM     14  C   UNL     1      33.388 -15.681 -20.265  0.00  0.00    +0.154 C 
ATOM     15  C   UNL     1      34.956 -16.899 -24.013  0.00  0.00    +0.149 C 
ATOM     16  H   UNL     1      35.953 -18.596 -24.465  0.00  0.00    +0.165 HD
ENDROOT
BRANCH   5  17
ATOM     17  C   UNL     1      35.799 -18.783 -22.464  0.00  0.00    +0.058 C 
ATOM     18  C   UNL     1      34.796 -19.589 -21.926  0.00  0.00    +0.015 C 
ATOM     19  C   UNL     1      37.013 -18.637 -21.792  0.00  0.00    +0.015 C 
ATOM     20  C   UNL     1      35.007 -20.249 -20.715  0.00  0.00    +0.001 C 
ATOM     21  C   UNL     1      37.223 -19.298 -20.581  0.00  0.00    +0.001 C 
ATOM     22  C   UNL     1      36.220 -20.103 -20.043  0.00  0.00    +0.000 C 
ENDBRANCH   5  17
BRANCH  12  24
ATOM     23  O   UNL     1      32.007 -10.148 -21.475  0.00  0.00    -0.243 OA
ATOM     24  C   UNL     1      31.777 -11.241 -20.921  0.00  0.00    +0.357 C 
BRANCH  24  25
ATOM     25  O   UNL     1      30.894 -11.322 -19.878  0.00  0.00    -0.476 OA
ATOM     26  H   UNL     1      31.167 -11.084 -19.014  0.00  0.00    +0.295 HD
ENDBRANCH  24  25
ENDBRANCH  12  24
TORSDOF 3
ENDMDL
MODEL 3
REMARK VINA RESULT:     -10.4     10.931     13.953
REMARK  Name = 44129603
REMARK  3 active torsions:
REMARK  status: ('A' for Active; 'I' for Inactive)
REMARK    1  A    between atoms: N_5  and  C_17
REMARK    2  A    between atoms: C_12  and  C_24
REMARK    3  A    between atoms: C_24  and  O_25
REMARK                            x       y       z     vdW  Elec       q    Type
REMARK                         _______ _______ _______ _____ _____    ______ ____
ROOT
ATOM      1  N   UNL     1      33.997 -12.672 -23.583  0.00  0.00    -0.246 N 
ATOM      2  N   UNL     1      34.595 -13.776 -24.074  0.00  0.00    -0.163 NA
ATOM      3  N   UNL     1      32.672 -10.648 -21.865  0.00  0.00    -0.336 NA
ATOM      4  N   UNL     1      31.280 -10.256 -19.930  0.00  0.00    -0.170 NA
ATOM      5  N   UNL     1      31.950  -8.485 -21.318  0.00  0.00    -0.247 N 
ATOM      6  C   UNL     1      33.187 -14.768 -20.753  0.00  0.00    +0.035 C 
ATOM      7  C   UNL     1      33.647 -14.187 -22.042  0.00  0.00    +0.024 A 
ATOM      8  C   UNL     1      31.972 -13.987 -20.181  0.00  0.00    +0.035 C 
ATOM      9  C   UNL     1      33.410 -12.872 -22.372  0.00  0.00    +0.106 A 
ATOM     10  C   UNL     1      32.005 -12.495 -20.435  0.00  0.00    +0.030 C 
ATOM     11  C   UNL     1      32.666 -11.954 -21.541  0.00  0.00    +0.158 C 
ATOM     12  C   UNL     1      34.381 -14.697 -23.126  0.00  0.00    +0.174 A 
ATOM     13  C   UNL     1      31.311 -11.581 -19.667  0.00  0.00    +0.110 C 
ATOM     14  C   UNL     1      34.064 -11.451 -24.353  0.00  0.00    +0.154 C 
ATOM     15  C   UNL     1      31.968  -9.866 -21.024  0.00  0.00    +0.149 C 
ATOM     16  H   UNL     1      31.426  -7.951 -20.678  0.00  0.00    +0.165 HD
ENDROOT
BRANCH   5  17
ATOM     17  C   UNL     1      32.534  -7.722 -22.346  0.00  0.00    +0.058 C 
ATOM     18  C   UNL     1      31.726  -7.091 -23.291  0.00  0.00    +0.015 C 
ATOM     19  C   UNL     1      33.921  -7.598 -22.419  0.00  0.00    +0.015 C 
ATOM     20  C   UNL     1      32.305  -6.333 -24.310  0.00  0.00    +0.001 C 
ATOM     21  C   UNL     1      34.501  -6.840 -23.437  0.00  0.00    +0.001 C 
ATOM     22  C   UNL     1      33.693  -6.208 -24.382  0.00  0.00    +0.000 C 
ENDBRANCH   5  17
BRANCH  12  24
ATOM     23  O   UNL     1      34.954 -16.911 -22.424  0.00  0.00    -0.243 OA
ATOM     24  C   UNL     1      34.882 -16.030 -23.303  0.00  0.00    +0.357 C 
BRANCH  24  25
ATOM     25  O   UNL     1      35.301 -16.284 -24.581  0.00  0.00    -0.476 OA
ATOM     26  H   UNL     1      35.790 -15.637 -25.051  0.00  0.00    +0.295 HD
ENDBRANCH  24  25
ENDBRANCH  12  24
TORSDOF 3
ENDMDL
MODEL 4
REMARK VINA RESULT:      -9.8      1.910      4.449
REMARK  Name = 44129603
REMARK  3 active torsions:
REMARK  status: ('A' for Active; 'I' for Inactive)
REMARK    1  A    between atoms: N_5  and  C_17
REMARK    2  A    between atoms: C_12  and  C_24
REMARK    3  A    between atoms: C_24  and  O_25
REMARK                            x       y       z     vdW  Elec       q    Type
REMARK                         _______ _______ _______ _____ _____    ______ ____
ROOT
ATOM      1  N   UNL     1      34.898 -23.883 -12.977  0.00  0.00    -0.246 N 
ATOM      2  N   UNL     1      35.745 -24.198 -11.976  0.00  0.00    -0.163 NA
ATOM      3  N   UNL     1      33.656 -23.276 -15.603  0.00  0.00    -0.336 NA
ATOM      4  N   UNL     1      33.998 -22.436 -17.842  0.00  0.00    -0.170 NA
ATOM      5  N   UNL     1      31.852 -22.998 -17.074  0.00  0.00    -0.247 N 
ATOM      6  C   UNL     1      37.900 -23.478 -14.950  0.00  0.00    +0.035 C 
ATOM      7  C   UNL     1      36.880 -23.701 -13.890  0.00  0.00    +0.024 A 
ATOM      8  C   UNL     1      37.361 -22.545 -16.068  0.00  0.00    +0.035 C 
ATOM      9  C   UNL     1      35.532 -23.572 -14.140  0.00  0.00    +0.106 A 
ATOM     10  C   UNL     1      35.889 -22.718 -16.379  0.00  0.00    +0.030 C 
ATOM     11  C   UNL     1      34.984 -23.170 -15.415  0.00  0.00    +0.158 C 
ATOM     12  C   UNL     1      36.954 -24.088 -12.542  0.00  0.00    +0.174 A 
ATOM     13  C   UNL     1      35.322 -22.350 -17.583  0.00  0.00    +0.110 C 
ATOM     14  C   UNL     1      33.477 -23.933 -12.720  0.00  0.00    +0.154 C 
ATOM     15  C   UNL     1      33.238 -22.898 -16.826  0.00  0.00    +0.149 C 
ATOM     16  H   UNL     1      31.590 -22.713 -17.980  0.00  0.00    +0.165 HD
ENDROOT
BRANCH   5  17
ATOM     17  C   UNL     1      30.770 -23.424 -16.282  0.00  0.00    +0.058 C 
ATOM     18  C   UNL     1      29.575 -22.705 -16.287  0.00  0.00    +0.015 C 
ATOM     19  C   UNL     1      30.894 -24.567 -15.491  0.00  0.00    +0.015 C 
ATOM     20  C   UNL     1      28.502 -23.129 -15.502  0.00  0.00    +0.001 C 
ATOM     21  C   UNL     1      29.821 -24.990 -14.706  0.00  0.00    +0.001 C 
ATOM     22  C   UNL     1      28.626 -24.271 -14.711  0.00  0.00    +0.000 C 
ENDBRANCH   5  17
BRANCH  12  24
ATOM     23  O   UNL     1      38.910 -23.497 -11.299  0.00  0.00    -0.243 OA
ATOM     24  C   UNL     1      38.130 -24.351 -11.763  0.00  0.00    +0.357 C 
BRANCH  24  25
ATOM     25  O   UNL     1      38.351 -25.686 -11.552  0.00  0.00    -0.476 OA
ATOM     26  H   UNL     1      37.685 -26.310 -11.765  0.00  0.00    +0.295 HD
ENDBRANCH  24  25
ENDBRANCH  12  24
TORSDOF 3
ENDMDL
MODEL 5
REMARK VINA RESULT:      -9.7      3.543      7.032
REMARK  Name = 44129603
REMARK  3 active torsions:
REMARK  status: ('A' for Active; 'I' for Inactive)
REMARK    1  A    between atoms: N_5  and  C_17
REMARK    2  A    between atoms: C_12  and  C_24
REMARK    3  A    between atoms: C_24  and  O_25
REMARK                            x       y       z     vdW  Elec       q    Type
REMARK                         _______ _______ _______ _____ _____    ______ ____
ROOT
ATOM      1  N   UNL     1      32.568 -23.945 -14.929  0.00  0.00    -0.246 N 
ATOM      2  N   UNL     1      31.222 -24.020 -14.901  0.00  0.00    -0.163 NA
ATOM      3  N   UNL     1      35.393 -23.241 -15.504  0.00  0.00    -0.336 NA
ATOM      4  N   UNL     1      36.956 -22.365 -17.123  0.00  0.00    -0.170 NA
ATOM      5  N   UNL     1      37.694 -23.201 -15.058  0.00  0.00    -0.247 N 
ATOM      6  C   UNL     1      32.068 -21.962 -17.909  0.00  0.00    +0.035 C 
ATOM      7  C   UNL     1      31.942 -22.811 -16.694  0.00  0.00    +0.024 A 
ATOM      8  C   UNL     1      33.452 -22.146 -18.588  0.00  0.00    +0.035 C 
ATOM      9  C   UNL     1      33.045 -23.237 -15.988  0.00  0.00    +0.106 A 
ATOM     10  C   UNL     1      34.602 -22.365 -17.627  0.00  0.00    +0.030 C 
ATOM     11  C   UNL     1      34.408 -22.951 -16.373  0.00  0.00    +0.158 C 
ATOM     12  C   UNL     1      30.846 -23.321 -15.979  0.00  0.00    +0.174 A 
ATOM     13  C   UNL     1      35.919 -22.105 -17.951  0.00  0.00    +0.110 C 
ATOM     14  C   UNL     1      33.317 -24.577 -13.867  0.00  0.00    +0.154 C 
ATOM     15  C   UNL     1      36.627 -22.922 -15.939  0.00  0.00    +0.149 C 
ATOM     16  H   UNL     1      38.578 -22.952 -15.415  0.00  0.00    +0.165 HD
ENDROOT
BRANCH   5  17
ATOM     17  C   UNL     1      37.745 -23.766 -13.771  0.00  0.00    +0.058 C 
ATOM     18  C   UNL     1      37.294 -23.036 -12.671  0.00  0.00    +0.015 C 
ATOM     19  C   UNL     1      38.245 -25.056 -13.595  0.00  0.00    +0.015 C 
ATOM     20  C   UNL     1      37.343 -23.596 -11.394  0.00  0.00    +0.001 C 
ATOM     21  C   UNL     1      38.294 -25.616 -12.317  0.00  0.00    +0.001 C 
ATOM     22  C   UNL     1      37.843 -24.887 -11.218  0.00  0.00    +0.000 C 
ENDBRANCH   5  17
BRANCH  12  24
ATOM     23  O   UNL     1      28.874 -22.127 -16.618  0.00  0.00    -0.243 OA
ATOM     24  C   UNL     1      29.451 -23.180 -16.285  0.00  0.00    +0.357 C 
BRANCH  24  25
ATOM     25  O   UNL     1      28.754 -24.354 -16.178  0.00  0.00    -0.476 OA
ATOM     26  H   UNL     1      28.430 -24.778 -16.949  0.00  0.00    +0.295 HD
ENDBRANCH  24  25
ENDBRANCH  12  24
TORSDOF 3
ENDMDL
MODEL 6
REMARK VINA RESULT:      -9.6      3.569      6.692
REMARK  Name = 44129603
REMARK  3 active torsions:
REMARK  status: ('A' for Active; 'I' for Inactive)
REMARK    1  A    between atoms: N_5  and  C_17
REMARK    2  A    between atoms: C_12  and  C_24
REMARK    3  A    between atoms: C_24  and  O_25
REMARK                            x       y       z     vdW  Elec       q    Type
REMARK                         _______ _______ _______ _____ _____    ______ ____
ROOT
ATOM      1  N   UNL     1      36.582 -21.880 -17.603  0.00  0.00    -0.246 N 
ATOM      2  N   UNL     1      36.943 -21.135 -18.667  0.00  0.00    -0.163 NA
ATOM      3  N   UNL     1      35.163 -23.633 -15.674  0.00  0.00    -0.336 NA
ATOM      4  N   UNL     1      33.026 -24.414 -14.865  0.00  0.00    -0.170 NA
ATOM      5  N   UNL     1      35.025 -25.049 -13.811  0.00  0.00    -0.247 N 
ATOM      6  C   UNL     1      33.292 -21.833 -19.100  0.00  0.00    +0.035 C 
ATOM      7  C   UNL     1      34.724 -21.651 -18.738  0.00  0.00    +0.024 A 
ATOM      8  C   UNL     1      32.424 -22.133 -17.848  0.00  0.00    +0.035 C 
ATOM      9  C   UNL     1      35.261 -22.208 -17.599  0.00  0.00    +0.106 A 
ATOM     10  C   UNL     1      33.110 -22.974 -16.792  0.00  0.00    +0.030 C 
ATOM     11  C   UNL     1      34.498 -22.968 -16.636  0.00  0.00    +0.158 C 
ATOM     12  C   UNL     1      35.803 -21.002 -19.359  0.00  0.00    +0.174 A 
ATOM     13  C   UNL     1      32.422 -23.718 -15.853  0.00  0.00    +0.110 C 
ATOM     14  C   UNL     1      37.597 -22.250 -16.644  0.00  0.00    +0.154 C 
ATOM     15  C   UNL     1      34.373 -24.329 -14.835  0.00  0.00    +0.149 C 
ATOM     16  H   UNL     1      34.410 -25.545 -13.222  0.00  0.00    +0.165 HD
ENDROOT
BRANCH   5  17
ATOM     17  C   UNL     1      36.381 -25.200 -13.467  0.00  0.00    +0.058 C 
ATOM     18  C   UNL     1      36.914 -24.479 -12.400  0.00  0.00    +0.015 C 
ATOM     19  C   UNL     1      37.191 -26.072 -14.194  0.00  0.00    +0.015 C 
ATOM     20  C   UNL     1      38.259 -24.629 -12.058  0.00  0.00    +0.001 C 
ATOM     21  C   UNL     1      38.536 -26.223 -13.853  0.00  0.00    +0.001 C 
ATOM     22  C   UNL     1      39.069 -25.501 -12.785  0.00  0.00    +0.000 C 
ENDBRANCH   5  17
BRANCH  12  24
ATOM     23  O   UNL     1      34.954 -20.342 -21.495  0.00  0.00    -0.243 OA
ATOM     24  C   UNL     1      35.797 -20.251 -20.581  0.00  0.00    +0.357 C 
BRANCH  24  25
ATOM     25  O   UNL     1      36.843 -19.374 -20.682  0.00  0.00    -0.476 OA
ATOM     26  H   UNL     1      37.724 -19.694 -20.697  0.00  0.00    +0.295 HD
ENDBRANCH  24  25
ENDBRANCH  12  24
TORSDOF 3
ENDMDL
MODEL 7
REMARK VINA RESULT:      -9.4      7.878     11.428
REMARK  Name = 44129603
REMARK  3 active torsions:
REMARK  status: ('A' for Active; 'I' for Inactive)
REMARK    1  A    between atoms: N_5  and  C_17
REMARK    2  A    between atoms: C_12  and  C_24
REMARK    3  A    between atoms: C_24  and  O_25
REMARK                            x       y       z     vdW  Elec       q    Type
REMARK                         _______ _______ _______ _____ _____    ______ ____
ROOT
ATOM      1  N   UNL     1      34.765 -15.992 -20.900  0.00  0.00    -0.246 N 
ATOM      2  N   UNL     1      35.309 -17.099 -20.355  0.00  0.00    -0.163 NA
ATOM      3  N   UNL     1      33.472 -14.013 -22.694  0.00  0.00    -0.336 NA
ATOM      4  N   UNL     1      33.061 -13.337 -24.976  0.00  0.00    -0.170 NA
ATOM      5  N   UNL     1      32.352 -12.010 -23.174  0.00  0.00    -0.247 N 
ATOM      6  C   UNL     1      34.981 -17.816 -24.012  0.00  0.00    +0.035 C 
ATOM      7  C   UNL     1      35.046 -17.333 -22.607  0.00  0.00    +0.024 A 
ATOM      8  C   UNL     1      34.960 -16.632 -25.018  0.00  0.00    +0.035 C 
ATOM      9  C   UNL     1      34.595 -16.083 -22.246  0.00  0.00    +0.106 A 
ATOM     10  C   UNL     1      34.200 -15.412 -24.541  0.00  0.00    +0.030 C 
ATOM     11  C   UNL     1      34.069 -15.116 -23.182  0.00  0.00    +0.158 C 
ATOM     12  C   UNL     1      35.474 -17.916 -21.403  0.00  0.00    +0.174 A 
ATOM     13  C   UNL     1      33.678 -14.463 -25.397  0.00  0.00    +0.110 C 
ATOM     14  C   UNL     1      34.418 -14.893 -20.028  0.00  0.00    +0.154 C 
ATOM     15  C   UNL     1      32.995 -13.179 -23.637  0.00  0.00    +0.149 C 
ATOM     16  H   UNL     1      32.018 -11.430 -23.896  0.00  0.00    +0.165 HD
ENDROOT
BRANCH   5  17
ATOM     17  C   UNL     1      32.096 -11.511 -21.884  0.00  0.00    +0.058 C 
ATOM     18  C   UNL     1      31.894 -12.392 -20.822  0.00  0.00    +0.015 C 
ATOM     19  C   UNL     1      32.045 -10.134 -21.667  0.00  0.00    +0.015 C 
ATOM     20  C   UNL     1      31.641 -11.897 -19.542  0.00  0.00    +0.001 C 
ATOM     21  C   UNL     1      31.792  -9.638 -20.387  0.00  0.00    +0.001 C 
ATOM     22  C   UNL     1      31.590 -10.520 -19.326  0.00  0.00    +0.000 C 
ENDBRANCH   5  17
BRANCH  12  24
ATOM     23  O   UNL     1      35.416 -20.292 -21.132  0.00  0.00    -0.243 OA
ATOM     24  C   UNL     1      36.045 -19.218 -21.207  0.00  0.00    +0.357 C 
BRANCH  24  25
ATOM     25  O   UNL     1      37.409 -19.199 -21.102  0.00  0.00    -0.476 OA
ATOM     26  H   UNL     1      37.936 -19.053 -21.863  0.00  0.00    +0.295 HD
ENDBRANCH  24  25
ENDBRANCH  12  24
TORSDOF 3
ENDMDL
MODEL 8
REMARK VINA RESULT:      -9.2      3.506      6.707
REMARK  Name = 44129603
REMARK  3 active torsions:
REMARK  status: ('A' for Active; 'I' for Inactive)
REMARK    1  A    between atoms: N_5  and  C_17
REMARK    2  A    between atoms: C_12  and  C_24
REMARK    3  A    between atoms: C_24  and  O_25
REMARK                            x       y       z     vdW  Elec       q    Type
REMARK                         _______ _______ _______ _____ _____    ______ ____
ROOT
ATOM      1  N   UNL     1      35.317 -22.567 -16.787  0.00  0.00    -0.246 N 
ATOM      2  N   UNL     1      35.321 -22.017 -18.018  0.00  0.00    -0.163 NA
ATOM      3  N   UNL     1      34.597 -23.949 -14.262  0.00  0.00    -0.336 NA
ATOM      4  N   UNL     1      32.824 -24.558 -12.739  0.00  0.00    -0.170 NA
ATOM      5  N   UNL     1      35.067 -25.027 -12.233  0.00  0.00    -0.247 N 
ATOM      6  C   UNL     1      31.734 -22.737 -17.231  0.00  0.00    +0.035 C 
ATOM      7  C   UNL     1      33.201 -22.513 -17.343  0.00  0.00    +0.024 A 
ATOM      8  C   UNL     1      31.284 -22.810 -15.746  0.00  0.00    +0.035 C 
ATOM      9  C   UNL     1      34.070 -22.873 -16.338  0.00  0.00    +0.106 A 
ATOM     10  C   UNL     1      32.282 -23.467 -14.816  0.00  0.00    +0.030 C 
ATOM     11  C   UNL     1      33.653 -23.450 -15.081  0.00  0.00    +0.158 C 
ATOM     12  C   UNL     1      34.024 -21.991 -18.354  0.00  0.00    +0.174 A 
ATOM     13  C   UNL     1      31.929 -24.032 -13.606  0.00  0.00    +0.110 C 
ATOM     14  C   UNL     1      36.583 -22.779 -16.123  0.00  0.00    +0.154 C 
ATOM     15  C   UNL     1      34.115 -24.483 -13.123  0.00  0.00    +0.149 C 
ATOM     16  H   UNL     1      34.672 -25.408 -11.416  0.00  0.00    +0.165 HD
ENDROOT
BRANCH   5  17
ATOM     17  C   UNL     1      36.469 -25.133 -12.286  0.00  0.00    +0.058 C 
ATOM     18  C   UNL     1      37.065 -26.143 -13.040  0.00  0.00    +0.015 C 
ATOM     19  C   UNL     1      37.263 -24.226 -11.583  0.00  0.00    +0.015 C 
ATOM     20  C   UNL     1      38.456 -26.247 -13.092  0.00  0.00    +0.001 C 
ATOM     21  C   UNL     1      38.653 -24.329 -11.636  0.00  0.00    +0.001 C 
ATOM     22  C   UNL     1      39.249 -25.340 -12.390  0.00  0.00    +0.000 C 
ENDBRANCH   5  17
BRANCH  12  24
ATOM     23  O   UNL     1      32.528 -21.627 -20.184  0.00  0.00    -0.243 OA
ATOM     24  C   UNL     1      33.630 -21.458 -19.626  0.00  0.00    +0.357 C 
BRANCH  24  25
ATOM     25  O   UNL     1      34.606 -20.706 -20.223  0.00  0.00    -0.476 OA
ATOM     26  H   UNL     1      34.387 -20.126 -20.926  0.00  0.00    +0.295 HD
ENDBRANCH  24  25
ENDBRANCH  12  24
TORSDOF 3
ENDMDL
MODEL 9
REMARK VINA RESULT:      -9.1      2.551      4.376
REMARK  Name = 44129603
REMARK  3 active torsions:
REMARK  status: ('A' for Active; 'I' for Inactive)
REMARK    1  A    between atoms: N_5  and  C_17
REMARK    2  A    between atoms: C_12  and  C_24
REMARK    3  A    between atoms: C_24  and  O_25
REMARK                            x       y       z     vdW  Elec       q    Type
REMARK                         _______ _______ _______ _____ _____    ______ ____
ROOT
ATOM      1  N   UNL     1      32.502 -23.042 -16.058  0.00  0.00    -0.246 N 
ATOM      2  N   UNL     1      31.420 -23.594 -15.473  0.00  0.00    -0.163 NA
ATOM      3  N   UNL     1      35.250 -22.357 -16.946  0.00  0.00    -0.336 NA
ATOM      4  N   UNL     1      37.602 -22.377 -16.399  0.00  0.00    -0.170 NA
ATOM      5  N   UNL     1      36.824 -21.348 -18.360  0.00  0.00    -0.247 N 
ATOM      6  C   UNL     1      34.380 -24.957 -13.635  0.00  0.00    +0.035 C 
ATOM      7  C   UNL     1      33.344 -24.292 -14.469  0.00  0.00    +0.024 A 
ATOM      8  C   UNL     1      35.702 -24.141 -13.616  0.00  0.00    +0.035 C 
ATOM      9  C   UNL     1      33.676 -23.426 -15.487  0.00  0.00    +0.106 A 
ATOM     10  C   UNL     1      36.031 -23.443 -14.919  0.00  0.00    +0.030 C 
ATOM     11  C   UNL     1      35.032 -23.045 -15.810  0.00  0.00    +0.158 C 
ATOM     12  C   UNL     1      31.942 -24.360 -14.506  0.00  0.00    +0.174 A 
ATOM     13  C   UNL     1      37.311 -23.062 -15.271  0.00  0.00    +0.110 C 
ATOM     14  C   UNL     1      32.303 -22.165 -17.189  0.00  0.00    +0.154 C 
ATOM     15  C   UNL     1      36.544 -22.063 -17.175  0.00  0.00    +0.149 C 
ATOM     16  H   UNL     1      37.781 -21.155 -18.489  0.00  0.00    +0.165 HD
ENDROOT
BRANCH   5  17
ATOM     17  C   UNL     1      36.005 -20.857 -19.393  0.00  0.00    +0.058 C 
ATOM     18  C   UNL     1      34.672 -21.256 -19.475  0.00  0.00    +0.015 C 
ATOM     19  C   UNL     1      36.528 -19.969 -20.334  0.00  0.00    +0.015 C 
ATOM     20  C   UNL     1      33.859 -20.768 -20.500  0.00  0.00    +0.001 C 
ATOM     21  C   UNL     1      35.715 -19.481 -21.358  0.00  0.00    +0.001 C 
ATOM     22  C   UNL     1      34.382 -19.880 -21.441  0.00  0.00    +0.000 C 
ENDBRANCH   5  17
BRANCH  12  24
ATOM     23  O   UNL     1      31.022 -25.048 -12.408  0.00  0.00    -0.243 OA
ATOM     24  C   UNL     1      31.073 -25.117 -13.651  0.00  0.00    +0.357 C 
BRANCH  24  25
ATOM     25  O   UNL     1      30.253 -25.973 -14.337  0.00  0.00    -0.476 OA
ATOM     26  H   UNL     1      29.499 -26.337 -13.916  0.00  0.00    +0.295 HD
ENDBRANCH  24  25
ENDBRANCH  12  24
TORSDOF 3
ENDMDL
