MODEL 1
REMARK VINA RESULT:     -13.0      0.000      0.000
REMARK  Name = 445756
REMARK  6 active torsions:
REMARK  status: ('A' for Active; 'I' for Inactive)
REMARK    1  A    between atoms: C_3  and  C_11
REMARK    2  A    between atoms: C_6  and  C_22
REMARK    3  A    between atoms: C_11  and  N_12
REMARK    4  A    between atoms: C_22  and  N_23
REMARK    5  A    between atoms: N_23  and  C_25
REMARK    6  A    between atoms: C_30  and  C_33
REMARK                            x       y       z     vdW  Elec       q    Type
REMARK                         _______ _______ _______ _____ _____    ______ ____
ROOT
ATOM      1  N   UNL     1      34.575 -15.462 -22.482  0.00  0.00    -0.261 N 
ATOM      2  N   UNL     1      33.761 -15.537 -20.415  0.00  0.00    -0.392 NA
ATOM      3  C   UNL     1      31.898 -12.505 -21.558  0.00  0.00    -0.017 C 
ATOM      4  C   UNL     1      33.714 -14.399 -22.389  0.00  0.00    +0.079 C 
ATOM      5  C   UNL     1      33.219 -14.468 -21.089  0.00  0.00    +0.128 C 
ATOM      6  C   UNL     1      34.570 -16.110 -21.278  0.00  0.00    +0.183 C 
ATOM      7  C   UNL     1      32.291 -13.505 -20.658  0.00  0.00    +0.084 C 
ATOM      8  C   UNL     1      32.412 -12.463 -22.856  0.00  0.00    -0.005 C 
ATOM      9  C   UNL     1      33.336 -13.414 -23.302  0.00  0.00    +0.017 C 
ATOM     10  C   UNL     1      35.349 -15.828 -23.647  0.00  0.00    +0.120 C 
ENDROOT
BRANCH   3  11
ATOM     11  C   UNL     1      30.912 -11.472 -21.121  0.00  0.00    +0.120 C 
BRANCH  11  12
ATOM     12  N   UNL     1      31.576 -10.276 -20.593  0.00  0.00    -0.260 N 
ATOM     13  N   UNL     1      32.436  -8.872 -19.128  0.00  0.00    -0.394 NA
ATOM     14  C   UNL     1      32.036  -9.239 -21.342  0.00  0.00    +0.079 C 
ATOM     15  C   UNL     1      31.827 -10.027 -19.285  0.00  0.00    +0.164 C 
ATOM     16  C   UNL     1      32.574  -8.366 -20.400  0.00  0.00    +0.128 C 
ATOM     17  C   UNL     1      32.037  -8.982 -22.714  0.00  0.00    +0.017 C 
ATOM     18  C   UNL     1      31.452 -10.961 -18.205  0.00  0.00    +0.084 C 
ATOM     19  C   UNL     1      33.152  -7.161 -20.836  0.00  0.00    +0.086 C 
ATOM     20  C   UNL     1      32.616  -7.778 -23.128  0.00  0.00    -0.003 C 
ATOM     21  C   UNL     1      33.164  -6.882 -22.207  0.00  0.00    -0.019 C 
ENDBRANCH  11  12
ENDBRANCH   3  11
BRANCH   6  22
ATOM     22  C   UNL     1      35.394 -17.310 -21.028  0.00  0.00    +0.164 C 
BRANCH  22  23
ATOM     23  N   UNL     1      34.826 -18.564 -21.509  0.00  0.00    -0.326 N 
ATOM     24  H   UNL     1      34.543 -18.619 -22.450  0.00  0.00    +0.147 HD
BRANCH  23  25
ATOM     25  C   UNL     1      34.665 -19.675 -20.710  0.00  0.00    +0.045 C 
ATOM     26  C   UNL     1      33.381 -20.114 -20.320  0.00  0.00    +0.014 C 
ATOM     27  C   UNL     1      35.777 -20.412 -20.251  0.00  0.00    +0.014 C 
ATOM     28  C   UNL     1      33.218 -21.237 -19.510  0.00  0.00    +0.004 C 
ATOM     29  C   UNL     1      35.614 -21.535 -19.441  0.00  0.00    +0.004 C 
ATOM     30  C   UNL     1      34.335 -21.947 -19.070  0.00  0.00    +0.031 C 
BRANCH  30  33
ATOM     31  N   UNL     1      34.481 -23.084 -16.867  0.00  0.00    -0.343 N 
ATOM     32  N   UNL     1      33.706 -24.244 -18.742  0.00  0.00    -0.285 NA
ATOM     33  C   UNL     1      34.165 -23.118 -18.224  0.00  0.00    +0.117 C 
ATOM     34  H   UNL     1      34.358 -23.889 -16.312  0.00  0.00    +0.144 HD
ATOM     35  H   UNL     1      34.827 -22.256 -16.463  0.00  0.00    +0.144 HD
ATOM     36  H   UNL     1      33.591 -25.038 -18.171  0.00  0.00    +0.188 HD
ENDBRANCH  30  33
ENDBRANCH  23  25
ENDBRANCH  22  23
ENDBRANCH   6  22
TORSDOF 6
ENDMDL
MODEL 2
REMARK VINA RESULT:     -11.2      1.161      1.877
REMARK  Name = 445756
REMARK  6 active torsions:
REMARK  status: ('A' for Active; 'I' for Inactive)
REMARK    1  A    between atoms: C_3  and  C_11
REMARK    2  A    between atoms: C_6  and  C_22
REMARK    3  A    between atoms: C_11  and  N_12
REMARK    4  A    between atoms: C_22  and  N_23
REMARK    5  A    between atoms: N_23  and  C_25
REMARK    6  A    between atoms: C_30  and  C_33
REMARK                            x       y       z     vdW  Elec       q    Type
REMARK                         _______ _______ _______ _____ _____    ______ ____
ROOT
ATOM      1  N   UNL     1      34.367 -15.650 -21.524  0.00  0.00    -0.261 N 
ATOM      2  N   UNL     1      33.992 -14.698 -23.497  0.00  0.00    -0.392 NA
ATOM      3  C   UNL     1      31.855 -12.418 -21.446  0.00  0.00    -0.017 C 
ATOM      4  C   UNL     1      33.515 -14.607 -21.271  0.00  0.00    +0.079 C 
ATOM      5  C   UNL     1      33.295 -14.028 -22.518  0.00  0.00    +0.128 C 
ATOM      6  C   UNL     1      34.623 -15.664 -22.867  0.00  0.00    +0.183 C 
ATOM      7  C   UNL     1      32.450 -12.910 -22.616  0.00  0.00    +0.084 C 
ATOM      8  C   UNL     1      32.095 -13.020 -20.209  0.00  0.00    -0.005 C 
ATOM      9  C   UNL     1      32.934 -14.133 -20.093  0.00  0.00    +0.017 C 
ATOM     10  C   UNL     1      34.900 -16.569 -20.543  0.00  0.00    +0.120 C 
ENDROOT
BRANCH   3  11
ATOM     11  C   UNL     1      30.953 -11.230 -21.526  0.00  0.00    +0.120 C 
BRANCH  11  12
ATOM     12  N   UNL     1      31.571 -10.038 -20.938  0.00  0.00    -0.260 N 
ATOM     13  N   UNL     1      32.217  -8.595 -19.403  0.00  0.00    -0.394 NA
ATOM     14  C   UNL     1      32.220  -9.066 -21.633  0.00  0.00    +0.079 C 
ATOM     15  C   UNL     1      31.587  -9.728 -19.619  0.00  0.00    +0.164 C 
ATOM     16  C   UNL     1      32.619  -8.167 -20.648  0.00  0.00    +0.128 C 
ATOM     17  C   UNL     1      32.491  -8.887 -22.990  0.00  0.00    +0.017 C 
ATOM     18  C   UNL     1      30.965 -10.583 -18.588  0.00  0.00    +0.084 C 
ATOM     19  C   UNL     1      33.333  -7.016 -21.021  0.00  0.00    +0.086 C 
ATOM     20  C   UNL     1      33.202  -7.735 -23.342  0.00  0.00    -0.003 C 
ATOM     21  C   UNL     1      33.617  -6.815 -22.377  0.00  0.00    -0.019 C 
ENDBRANCH  11  12
ENDBRANCH   3  11
BRANCH   6  22
ATOM     22  C   UNL     1      35.510 -16.668 -23.488  0.00  0.00    +0.164 C 
BRANCH  22  23
ATOM     23  N   UNL     1      35.029 -18.043 -23.428  0.00  0.00    -0.326 N 
ATOM     24  H   UNL     1      34.515 -18.393 -24.192  0.00  0.00    +0.147 HD
BRANCH  23  25
ATOM     25  C   UNL     1      35.257 -18.877 -22.354  0.00  0.00    +0.045 C 
ATOM     26  C   UNL     1      34.214 -19.641 -21.789  0.00  0.00    +0.014 C 
ATOM     27  C   UNL     1      36.541 -18.994 -21.782  0.00  0.00    +0.014 C 
ATOM     28  C   UNL     1      34.444 -20.483 -20.702  0.00  0.00    +0.004 C 
ATOM     29  C   UNL     1      36.772 -19.836 -20.694  0.00  0.00    +0.004 C 
ATOM     30  C   UNL     1      35.723 -20.580 -20.154  0.00  0.00    +0.031 C 
BRANCH  30  33
ATOM     31  N   UNL     1      36.948 -21.170 -18.076  0.00  0.00    -0.343 N 
ATOM     32  N   UNL     1      35.242 -22.554 -18.870  0.00  0.00    -0.285 NA
ATOM     33  C   UNL     1      35.963 -21.457 -19.019  0.00  0.00    +0.117 C 
ATOM     34  H   UNL     1      37.094 -21.778 -17.315  0.00  0.00    +0.144 HD
ATOM     35  H   UNL     1      37.498 -20.359 -18.170  0.00  0.00    +0.144 HD
ATOM     36  H   UNL     1      35.403 -23.150 -18.103  0.00  0.00    +0.188 HD
ENDBRANCH  30  33
ENDBRANCH  23  25
ENDBRANCH  22  23
ENDBRANCH   6  22
TORSDOF 6
ENDMDL
MODEL 3
REMARK VINA RESULT:     -11.1      1.796      2.815
REMARK  Name = 445756
REMARK  6 active torsions:
REMARK  status: ('A' for Active; 'I' for Inactive)
REMARK    1  A    between atoms: C_3  and  C_11
REMARK    2  A    between atoms: C_6  and  C_22
REMARK    3  A    between atoms: C_11  and  N_12
REMARK    4  A    between atoms: C_22  and  N_23
REMARK    5  A    between atoms: N_23  and  C_25
REMARK    6  A    between atoms: C_30  and  C_33
REMARK                            x       y       z     vdW  Elec       q    Type
REMARK                         _______ _______ _______ _____ _____    ______ ____
ROOT
ATOM      1  N   UNL     1      34.436 -15.679 -21.382  0.00  0.00    -0.261 N 
ATOM      2  N   UNL     1      35.307 -15.640 -23.426  0.00  0.00    -0.392 NA
ATOM      3  C   UNL     1      33.565 -12.336 -23.580  0.00  0.00    -0.017 C 
ATOM      4  C   UNL     1      34.026 -14.492 -21.932  0.00  0.00    +0.079 C 
ATOM      5  C   UNL     1      34.583 -14.491 -23.208  0.00  0.00    +0.128 C 
ATOM      6  C   UNL     1      35.198 -16.329 -22.312  0.00  0.00    +0.183 C 
ATOM      7  C   UNL     1      34.353 -13.394 -24.055  0.00  0.00    +0.084 C 
ATOM      8  C   UNL     1      33.021 -12.366 -22.294  0.00  0.00    -0.005 C 
ATOM      9  C   UNL     1      33.240 -13.450 -21.437  0.00  0.00    +0.017 C 
ATOM     10  C   UNL     1      34.117 -16.155 -20.054  0.00  0.00    +0.120 C 
ENDROOT
BRANCH   3  11
ATOM     11  C   UNL     1      33.308 -11.160 -24.463  0.00  0.00    +0.120 C 
BRANCH  11  12
ATOM     12  N   UNL     1      33.876  -9.928 -23.906  0.00  0.00    -0.260 N 
ATOM     13  N   UNL     1      35.317  -8.300 -23.547  0.00  0.00    -0.394 NA
ATOM     14  C   UNL     1      33.261  -9.120 -23.002  0.00  0.00    +0.079 C 
ATOM     15  C   UNL     1      35.093  -9.414 -24.208  0.00  0.00    +0.164 C 
ATOM     16  C   UNL     1      34.186  -8.100 -22.790  0.00  0.00    +0.128 C 
ATOM     17  C   UNL     1      32.021  -9.175 -22.365  0.00  0.00    +0.017 C 
ATOM     18  C   UNL     1      36.018 -10.055 -25.164  0.00  0.00    +0.084 C 
ATOM     19  C   UNL     1      33.870  -7.067 -21.892  0.00  0.00    +0.086 C 
ATOM     20  C   UNL     1      31.725  -8.138 -21.474  0.00  0.00    -0.003 C 
ATOM     21  C   UNL     1      32.632  -7.101 -21.240  0.00  0.00    -0.019 C 
ENDBRANCH  11  12
ENDBRANCH   3  11
BRANCH   6  22
ATOM     22  C   UNL     1      35.804 -17.650 -22.048  0.00  0.00    +0.164 C 
BRANCH  22  23
ATOM     23  N   UNL     1      34.880 -18.778 -22.097  0.00  0.00    -0.326 N 
ATOM     24  H   UNL     1      34.283 -18.859 -22.876  0.00  0.00    +0.147 HD
BRANCH  23  25
ATOM     25  C   UNL     1      34.801 -19.733 -21.107  0.00  0.00    +0.045 C 
ATOM     26  C   UNL     1      33.553 -20.182 -20.624  0.00  0.00    +0.014 C 
ATOM     27  C   UNL     1      35.965 -20.294 -20.540  0.00  0.00    +0.014 C 
ATOM     28  C   UNL     1      33.473 -21.147 -19.621  0.00  0.00    +0.004 C 
ATOM     29  C   UNL     1      35.885 -21.259 -19.536  0.00  0.00    +0.004 C 
ATOM     30  C   UNL     1      34.639 -21.685 -19.076  0.00  0.00    +0.031 C 
BRANCH  30  33
ATOM     31  N   UNL     1      35.480 -22.730 -16.987  0.00  0.00    -0.343 N 
ATOM     32  N   UNL     1      33.591 -23.593 -18.058  0.00  0.00    -0.285 NA
ATOM     33  C   UNL     1      34.556 -22.690 -18.029  0.00  0.00    +0.117 C 
ATOM     34  H   UNL     1      35.405 -23.420 -16.288  0.00  0.00    +0.144 HD
ATOM     35  H   UNL     1      36.208 -22.068 -16.949  0.00  0.00    +0.144 HD
ATOM     36  H   UNL     1      33.532 -24.274 -17.349  0.00  0.00    +0.188 HD
ENDBRANCH  30  33
ENDBRANCH  23  25
ENDBRANCH  22  23
ENDBRANCH   6  22
TORSDOF 6
ENDMDL
MODEL 4
REMARK VINA RESULT:     -11.0      5.210     13.050
REMARK  Name = 445756
REMARK  6 active torsions:
REMARK  status: ('A' for Active; 'I' for Inactive)
REMARK    1  A    between atoms: C_3  and  C_11
REMARK    2  A    between atoms: C_6  and  C_22
REMARK    3  A    between atoms: C_11  and  N_12
REMARK    4  A    between atoms: C_22  and  N_23
REMARK    5  A    between atoms: N_23  and  C_25
REMARK    6  A    between atoms: C_30  and  C_33
REMARK                            x       y       z     vdW  Elec       q    Type
REMARK                         _______ _______ _______ _____ _____    ______ ____
ROOT
ATOM      1  N   UNL     1      34.694 -22.420 -18.354  0.00  0.00    -0.261 N 
ATOM      2  N   UNL     1      36.569 -21.316 -17.905  0.00  0.00    -0.392 NA
ATOM      3  C   UNL     1      36.089 -22.845 -14.528  0.00  0.00    -0.017 C 
ATOM      4  C   UNL     1      34.977 -22.698 -17.042  0.00  0.00    +0.079 C 
ATOM      5  C   UNL     1      36.152 -21.997 -16.785  0.00  0.00    +0.128 C 
ATOM      6  C   UNL     1      35.673 -21.591 -18.826  0.00  0.00    +0.183 C 
ATOM      7  C   UNL     1      36.726 -22.067 -15.505  0.00  0.00    +0.084 C 
ATOM      8  C   UNL     1      34.911 -23.537 -14.817  0.00  0.00    -0.005 C 
ATOM      9  C   UNL     1      34.326 -23.479 -16.085  0.00  0.00    +0.017 C 
ATOM     10  C   UNL     1      33.561 -22.918 -19.102  0.00  0.00    +0.120 C 
ENDROOT
BRANCH   3  11
ATOM     11  C   UNL     1      36.682 -22.935 -13.161  0.00  0.00    +0.120 C 
BRANCH  11  12
ATOM     12  N   UNL     1      37.310 -24.238 -12.925  0.00  0.00    -0.260 N 
ATOM     13  N   UNL     1      37.676 -26.220 -12.034  0.00  0.00    -0.394 NA
ATOM     14  C   UNL     1      38.386 -24.724 -13.600  0.00  0.00    +0.079 C 
ATOM     15  C   UNL     1      36.915 -25.149 -12.003  0.00  0.00    +0.164 C 
ATOM     16  C   UNL     1      38.600 -25.973 -13.023  0.00  0.00    +0.128 C 
ATOM     17  C   UNL     1      39.174 -24.211 -14.631  0.00  0.00    +0.017 C 
ATOM     18  C   UNL     1      35.767 -24.928 -11.100  0.00  0.00    +0.084 C 
ATOM     19  C   UNL     1      39.658 -26.771 -13.492  0.00  0.00    +0.086 C 
ATOM     20  C   UNL     1      40.222 -25.019 -15.083  0.00  0.00    -0.003 C 
ATOM     21  C   UNL     1      40.462 -26.276 -14.525  0.00  0.00    -0.019 C 
ENDBRANCH  11  12
ENDBRANCH   3  11
BRANCH   6  22
ATOM     22  C   UNL     1      35.677 -21.091 -20.216  0.00  0.00    +0.164 C 
BRANCH  22  23
ATOM     23  N   UNL     1      36.238 -19.756 -20.393  0.00  0.00    -0.326 N 
ATOM     24  H   UNL     1      36.966 -19.471 -19.793  0.00  0.00    +0.147 HD
BRANCH  23  25
ATOM     25  C   UNL     1      35.800 -18.874 -21.357  0.00  0.00    +0.045 C 
ATOM     26  C   UNL     1      35.548 -19.302 -22.678  0.00  0.00    +0.014 C 
ATOM     27  C   UNL     1      35.590 -17.511 -21.057  0.00  0.00    +0.014 C 
ATOM     28  C   UNL     1      35.107 -18.409 -23.653  0.00  0.00    +0.004 C 
ATOM     29  C   UNL     1      35.149 -16.618 -22.032  0.00  0.00    +0.004 C 
ATOM     30  C   UNL     1      34.908 -17.067 -23.331  0.00  0.00    +0.031 C 
BRANCH  30  33
ATOM     31  N   UNL     1      33.695 -15.011 -24.016  0.00  0.00    -0.343 N 
ATOM     32  N   UNL     1      34.743 -16.350 -25.619  0.00  0.00    -0.285 NA
ATOM     33  C   UNL     1      34.449 -16.135 -24.349  0.00  0.00    +0.117 C 
ATOM     34  H   UNL     1      33.395 -14.393 -24.721  0.00  0.00    +0.144 HD
ATOM     35  H   UNL     1      33.463 -14.834 -23.075  0.00  0.00    +0.144 HD
ATOM     36  H   UNL     1      34.433 -15.720 -26.310  0.00  0.00    +0.188 HD
ENDBRANCH  30  33
ENDBRANCH  23  25
ENDBRANCH  22  23
ENDBRANCH   6  22
TORSDOF 6
ENDMDL
MODEL 5
REMARK VINA RESULT:     -10.9      2.364      4.802
REMARK  Name = 445756
REMARK  6 active torsions:
REMARK  status: ('A' for Active; 'I' for Inactive)
REMARK    1  A    between atoms: C_3  and  C_11
REMARK    2  A    between atoms: C_6  and  C_22
REMARK    3  A    between atoms: C_11  and  N_12
REMARK    4  A    between atoms: C_22  and  N_23
REMARK    5  A    between atoms: N_23  and  C_25
REMARK    6  A    between atoms: C_30  and  C_33
REMARK                            x       y       z     vdW  Elec       q    Type
REMARK                         _______ _______ _______ _____ _____    ______ ____
ROOT
ATOM      1  N   UNL     1      32.266 -12.382 -21.240  0.00  0.00    -0.261 N 
ATOM      2  N   UNL     1      32.907 -11.190 -23.003  0.00  0.00    -0.392 NA
ATOM      3  C   UNL     1      32.370  -8.332 -20.656  0.00  0.00    -0.017 C 
ATOM      4  C   UNL     1      32.230 -11.075 -20.830  0.00  0.00    +0.079 C 
ATOM      5  C   UNL     1      32.635 -10.350 -21.949  0.00  0.00    +0.128 C 
ATOM      6  C   UNL     1      32.676 -12.400 -22.545  0.00  0.00    +0.183 C 
ATOM      7  C   UNL     1      32.709  -8.950 -21.867  0.00  0.00    +0.084 C 
ATOM      8  C   UNL     1      31.969  -9.086 -19.551  0.00  0.00    -0.005 C 
ATOM      9  C   UNL     1      31.889 -10.481 -19.614  0.00  0.00    +0.017 C 
ATOM     10  C   UNL     1      31.930 -13.535 -20.434  0.00  0.00    +0.120 C 
ENDROOT
BRANCH   3  11
ATOM     11  C   UNL     1      32.444  -6.844 -20.547  0.00  0.00    +0.120 C 
BRANCH  11  12
ATOM     12  N   UNL     1      32.352  -6.197 -21.859  0.00  0.00    -0.260 N 
ATOM     13  N   UNL     1      31.520  -5.015 -23.522  0.00  0.00    -0.394 NA
ATOM     14  C   UNL     1      33.311  -6.239 -22.823  0.00  0.00    +0.079 C 
ATOM     15  C   UNL     1      31.304  -5.464 -22.306  0.00  0.00    +0.164 C 
ATOM     16  C   UNL     1      32.766  -5.489 -23.861  0.00  0.00    +0.128 C 
ATOM     17  C   UNL     1      34.567  -6.842 -22.890  0.00  0.00    +0.017 C 
ATOM     18  C   UNL     1      30.092  -5.223 -21.496  0.00  0.00    +0.084 C 
ATOM     19  C   UNL     1      33.506  -5.319 -25.044  0.00  0.00    +0.086 C 
ATOM     20  C   UNL     1      35.288  -6.663 -24.075  0.00  0.00    -0.003 C 
ATOM     21  C   UNL     1      34.769  -5.915 -25.134  0.00  0.00    -0.019 C 
ENDBRANCH  11  12
ENDBRANCH   3  11
BRANCH   6  22
ATOM     22  C   UNL     1      32.824 -13.658 -23.305  0.00  0.00    +0.164 C 
BRANCH  22  23
ATOM     23  N   UNL     1      34.183 -14.183 -23.375  0.00  0.00    -0.326 N 
ATOM     24  H   UNL     1      34.866 -13.653 -23.847  0.00  0.00    +0.147 HD
BRANCH  23  25
ATOM     25  C   UNL     1      34.558 -15.385 -22.815  0.00  0.00    +0.045 C 
ATOM     26  C   UNL     1      34.943 -16.478 -23.622  0.00  0.00    +0.014 C 
ATOM     27  C   UNL     1      34.568 -15.567 -21.416  0.00  0.00    +0.014 C 
ATOM     28  C   UNL     1      35.321 -17.695 -23.056  0.00  0.00    +0.004 C 
ATOM     29  C   UNL     1      34.946 -16.784 -20.850  0.00  0.00    +0.004 C 
ATOM     30  C   UNL     1      35.321 -17.848 -21.669  0.00  0.00    +0.031 C 
BRANCH  30  33
ATOM     31  N   UNL     1      36.989 -19.308 -20.550  0.00  0.00    -0.343 N 
ATOM     32  N   UNL     1      34.853 -20.120 -21.040  0.00  0.00    -0.285 NA
ATOM     33  C   UNL     1      35.714 -19.118 -21.079  0.00  0.00    +0.117 C 
ATOM     34  H   UNL     1      37.233 -20.177 -20.154  0.00  0.00    +0.144 HD
ATOM     35  H   UNL     1      37.645 -18.575 -20.571  0.00  0.00    +0.144 HD
ATOM     36  H   UNL     1      35.117 -20.981 -20.641  0.00  0.00    +0.188 HD
ENDBRANCH  30  33
ENDBRANCH  23  25
ENDBRANCH  22  23
ENDBRANCH   6  22
TORSDOF 6
ENDMDL
MODEL 6
REMARK VINA RESULT:     -10.9      3.487      6.458
REMARK  Name = 445756
REMARK  6 active torsions:
REMARK  status: ('A' for Active; 'I' for Inactive)
REMARK    1  A    between atoms: C_3  and  C_11
REMARK    2  A    between atoms: C_6  and  C_22
REMARK    3  A    between atoms: C_11  and  N_12
REMARK    4  A    between atoms: C_22  and  N_23
REMARK    5  A    between atoms: N_23  and  C_25
REMARK    6  A    between atoms: C_30  and  C_33
REMARK                            x       y       z     vdW  Elec       q    Type
REMARK                         _______ _______ _______ _____ _____    ______ ____
ROOT
ATOM      1  N   UNL     1      35.611 -20.800 -19.854  0.00  0.00    -0.261 N 
ATOM      2  N   UNL     1      33.698 -20.622 -20.973  0.00  0.00    -0.392 NA
ATOM      3  C   UNL     1      35.571 -17.947 -22.791  0.00  0.00    -0.017 C 
ATOM      4  C   UNL     1      35.815 -19.803 -20.773  0.00  0.00    +0.079 C 
ATOM      5  C   UNL     1      34.607 -19.711 -21.459  0.00  0.00    +0.128 C 
ATOM      6  C   UNL     1      34.332 -21.257 -20.012  0.00  0.00    +0.183 C 
ATOM      7  C   UNL     1      34.475 -18.767 -22.491  0.00  0.00    +0.084 C 
ATOM      8  C   UNL     1      36.771 -18.063 -22.085  0.00  0.00    -0.005 C 
ATOM      9  C   UNL     1      36.920 -18.998 -21.056  0.00  0.00    +0.017 C 
ATOM     10  C   UNL     1      36.577 -21.279 -18.892  0.00  0.00    +0.120 C 
ENDROOT
BRANCH   3  11
ATOM     11  C   UNL     1      35.453 -16.936 -23.884  0.00  0.00    +0.120 C 
BRANCH  11  12
ATOM     12  N   UNL     1      34.501 -15.875 -23.543  0.00  0.00    -0.260 N 
ATOM     13  N   UNL     1      33.032 -14.256 -23.819  0.00  0.00    -0.394 NA
ATOM     14  C   UNL     1      34.178 -15.487 -22.281  0.00  0.00    +0.079 C 
ATOM     15  C   UNL     1      33.805 -15.125 -24.432  0.00  0.00    +0.164 C 
ATOM     16  C   UNL     1      33.251 -14.467 -22.477  0.00  0.00    +0.128 C 
ATOM     17  C   UNL     1      34.591 -15.915 -21.019  0.00  0.00    +0.017 C 
ATOM     18  C   UNL     1      33.928 -15.295 -25.893  0.00  0.00    +0.084 C 
ATOM     19  C   UNL     1      32.693 -13.825 -21.359  0.00  0.00    +0.086 C 
ATOM     20  C   UNL     1      34.025 -15.264 -19.917  0.00  0.00    -0.003 C 
ATOM     21  C   UNL     1      33.093 -14.237 -20.082  0.00  0.00    -0.019 C 
ENDBRANCH  11  12
ENDBRANCH   3  11
BRANCH   6  22
ATOM     22  C   UNL     1      33.776 -22.340 -19.175  0.00  0.00    +0.164 C 
BRANCH  22  23
ATOM     23  N   UNL     1      32.796 -21.915 -18.182  0.00  0.00    -0.326 N 
ATOM     24  H   UNL     1      32.277 -21.096 -18.357  0.00  0.00    +0.147 HD
BRANCH  23  25
ATOM     25  C   UNL     1      32.562 -22.602 -17.010  0.00  0.00    +0.045 C 
ATOM     26  C   UNL     1      31.250 -22.798 -16.528  0.00  0.00    +0.014 C 
ATOM     27  C   UNL     1      33.627 -23.131 -16.250  0.00  0.00    +0.014 C 
ATOM     28  C   UNL     1      31.014 -23.491 -15.342  0.00  0.00    +0.004 C 
ATOM     29  C   UNL     1      33.390 -23.823 -15.063  0.00  0.00    +0.004 C 
ATOM     30  C   UNL     1      32.084 -24.003 -14.609  0.00  0.00    +0.031 C 
BRANCH  30  33
ATOM     31  N   UNL     1      30.543 -24.971 -12.920  0.00  0.00    -0.343 N 
ATOM     32  N   UNL     1      32.856 -25.157 -12.647  0.00  0.00    -0.285 NA
ATOM     33  C   UNL     1      31.838 -24.725 -13.370  0.00  0.00    +0.117 C 
ATOM     34  H   UNL     1      30.399 -25.462 -12.078  0.00  0.00    +0.144 HD
ATOM     35  H   UNL     1      29.771 -24.655 -13.443  0.00  0.00    +0.144 HD
ATOM     36  H   UNL     1      32.691 -25.646 -11.808  0.00  0.00    +0.188 HD
ENDBRANCH  30  33
ENDBRANCH  23  25
ENDBRANCH  22  23
ENDBRANCH   6  22
TORSDOF 6
ENDMDL
MODEL 7
REMARK VINA RESULT:     -10.8      2.168     11.421
REMARK  Name = 445756
REMARK  6 active torsions:
REMARK  status: ('A' for Active; 'I' for Inactive)
REMARK    1  A    between atoms: C_3  and  C_11
REMARK    2  A    between atoms: C_6  and  C_22
REMARK    3  A    between atoms: C_11  and  N_12
REMARK    4  A    between atoms: C_22  and  N_23
REMARK    5  A    between atoms: N_23  and  C_25
REMARK    6  A    between atoms: C_30  and  C_33
REMARK                            x       y       z     vdW  Elec       q    Type
REMARK                         _______ _______ _______ _____ _____    ______ ____
ROOT
ATOM      1  N   UNL     1      32.887 -13.250 -21.006  0.00  0.00    -0.261 N 
ATOM      2  N   UNL     1      33.265 -13.430 -23.189  0.00  0.00    -0.392 NA
ATOM      3  C   UNL     1      34.776 -16.692 -22.166  0.00  0.00    -0.017 C 
ATOM      4  C   UNL     1      33.517 -14.456 -21.170  0.00  0.00    +0.079 C 
ATOM      5  C   UNL     1      33.742 -14.546 -22.541  0.00  0.00    +0.128 C 
ATOM      6  C   UNL     1      32.760 -12.674 -22.240  0.00  0.00    +0.183 C 
ATOM      7  C   UNL     1      34.384 -15.684 -23.057  0.00  0.00    +0.084 C 
ATOM      8  C   UNL     1      34.535 -16.573 -20.795  0.00  0.00    -0.005 C 
ATOM      9  C   UNL     1      33.898 -15.448 -20.264  0.00  0.00    +0.017 C 
ATOM     10  C   UNL     1      32.439 -12.689 -19.751  0.00  0.00    +0.120 C 
ENDROOT
BRANCH   3  11
ATOM     11  C   UNL     1      35.459 -17.912 -22.692  0.00  0.00    +0.120 C 
BRANCH  11  12
ATOM     12  N   UNL     1      35.798 -18.851 -21.619  0.00  0.00    -0.260 N 
ATOM     13  N   UNL     1      37.021 -19.958 -20.158  0.00  0.00    -0.394 NA
ATOM     14  C   UNL     1      34.914 -19.659 -20.975  0.00  0.00    +0.079 C 
ATOM     15  C   UNL     1      37.038 -19.054 -21.112  0.00  0.00    +0.164 C 
ATOM     16  C   UNL     1      35.705 -20.347 -20.059  0.00  0.00    +0.128 C 
ATOM     17  C   UNL     1      33.538 -19.852 -21.097  0.00  0.00    +0.017 C 
ATOM     18  C   UNL     1      38.230 -18.328 -21.595  0.00  0.00    +0.084 C 
ATOM     19  C   UNL     1      35.103 -21.288 -19.206  0.00  0.00    +0.086 C 
ATOM     20  C   UNL     1      32.956 -20.792 -20.241  0.00  0.00    -0.003 C 
ATOM     21  C   UNL     1      33.722 -21.499 -19.311  0.00  0.00    -0.019 C 
ENDBRANCH  11  12
ENDBRANCH   3  11
BRANCH   6  22
ATOM     22  C   UNL     1      32.121 -11.356 -22.430  0.00  0.00    +0.164 C 
BRANCH  22  23
ATOM     23  N   UNL     1      33.034 -10.265 -22.752  0.00  0.00    -0.326 N 
ATOM     24  H   UNL     1      33.972 -10.485 -22.955  0.00  0.00    +0.147 HD
BRANCH  23  25
ATOM     25  C   UNL     1      32.649  -8.942 -22.784  0.00  0.00    +0.045 C 
ATOM     26  C   UNL     1      33.604  -7.904 -22.785  0.00  0.00    +0.014 C 
ATOM     27  C   UNL     1      31.285  -8.580 -22.814  0.00  0.00    +0.014 C 
ATOM     28  C   UNL     1      33.214  -6.565 -22.815  0.00  0.00    +0.004 C 
ATOM     29  C   UNL     1      30.895  -7.242 -22.844  0.00  0.00    +0.004 C 
ATOM     30  C   UNL     1      31.859  -6.234 -22.844  0.00  0.00    +0.031 C 
BRANCH  30  33
ATOM     31  N   UNL     1      30.496  -4.343 -21.990  0.00  0.00    -0.343 N 
ATOM     32  N   UNL     1      31.992  -4.014 -23.755  0.00  0.00    -0.285 NA
ATOM     33  C   UNL     1      31.453  -4.838 -22.874  0.00  0.00    +0.117 C 
ATOM     34  H   UNL     1      30.235  -3.394 -22.028  0.00  0.00    +0.144 HD
ATOM     35  H   UNL     1      30.080  -4.941 -21.328  0.00  0.00    +0.144 HD
ATOM     36  H   UNL     1      31.717  -3.069 -23.777  0.00  0.00    +0.188 HD
ENDBRANCH  30  33
ENDBRANCH  23  25
ENDBRANCH  22  23
ENDBRANCH   6  22
TORSDOF 6
ENDMDL
MODEL 8
REMARK VINA RESULT:     -10.8      4.685     12.902
REMARK  Name = 445756
REMARK  6 active torsions:
REMARK  status: ('A' for Active; 'I' for Inactive)
REMARK    1  A    between atoms: C_3  and  C_11
REMARK    2  A    between atoms: C_6  and  C_22
REMARK    3  A    between atoms: C_11  and  N_12
REMARK    4  A    between atoms: C_22  and  N_23
REMARK    5  A    between atoms: N_23  and  C_25
REMARK    6  A    between atoms: C_30  and  C_33
REMARK                            x       y       z     vdW  Elec       q    Type
REMARK                         _______ _______ _______ _____ _____    ______ ____
ROOT
ATOM      1  N   UNL     1      34.725 -21.655 -18.693  0.00  0.00    -0.261 N 
ATOM      2  N   UNL     1      36.884 -21.167 -18.890  0.00  0.00    -0.392 NA
ATOM      3  C   UNL     1      37.122 -23.145 -15.728  0.00  0.00    -0.017 C 
ATOM      4  C   UNL     1      35.332 -22.242 -17.614  0.00  0.00    +0.079 C 
ATOM      5  C   UNL     1      36.680 -21.923 -17.759  0.00  0.00    +0.128 C 
ATOM      6  C   UNL     1      35.692 -21.024 -19.425  0.00  0.00    +0.183 C 
ATOM      7  C   UNL     1      37.600 -22.381 -16.801  0.00  0.00    +0.084 C 
ATOM      8  C   UNL     1      35.764 -23.449 -15.610  0.00  0.00    -0.005 C 
ATOM      9  C   UNL     1      34.835 -23.003 -16.554  0.00  0.00    +0.017 C 
ATOM     10  C   UNL     1      33.313 -21.697 -19.000  0.00  0.00    +0.120 C 
ENDROOT
BRANCH   3  11
ATOM     11  C   UNL     1      38.082 -23.643 -14.698  0.00  0.00    +0.120 C 
BRANCH  11  12
ATOM     12  N   UNL     1      37.424 -24.506 -13.712  0.00  0.00    -0.260 N 
ATOM     13  N   UNL     1      36.530 -26.314 -12.825  0.00  0.00    -0.394 NA
ATOM     14  C   UNL     1      37.026 -24.117 -12.472  0.00  0.00    +0.079 C 
ATOM     15  C   UNL     1      37.114 -25.813 -13.891  0.00  0.00    +0.164 C 
ATOM     16  C   UNL     1      36.465 -25.271 -11.930  0.00  0.00    +0.128 C 
ATOM     17  C   UNL     1      37.097 -22.905 -11.785  0.00  0.00    +0.017 C 
ATOM     18  C   UNL     1      37.416 -26.544 -15.138  0.00  0.00    +0.084 C 
ATOM     19  C   UNL     1      35.941 -25.230 -10.627  0.00  0.00    +0.086 C 
ATOM     20  C   UNL     1      36.570 -22.883 -10.490  0.00  0.00    -0.003 C 
ATOM     21  C   UNL     1      36.001 -24.024  -9.919  0.00  0.00    -0.019 C 
ENDBRANCH  11  12
ENDBRANCH   3  11
BRANCH   6  22
ATOM     22  C   UNL     1      35.382 -20.284 -20.665  0.00  0.00    +0.164 C 
BRANCH  22  23
ATOM     23  N   UNL     1      35.702 -18.861 -20.634  0.00  0.00    -0.326 N 
ATOM     24  H   UNL     1      36.215 -18.513 -19.868  0.00  0.00    +0.147 HD
BRANCH  23  25
ATOM     25  C   UNL     1      35.320 -17.979 -21.622  0.00  0.00    +0.045 C 
ATOM     26  C   UNL     1      34.978 -16.644 -21.317  0.00  0.00    +0.014 C 
ATOM     27  C   UNL     1      35.257 -18.381 -22.973  0.00  0.00    +0.014 C 
ATOM     28  C   UNL     1      34.590 -15.753 -22.317  0.00  0.00    +0.004 C 
ATOM     29  C   UNL     1      34.869 -17.490 -23.973  0.00  0.00    +0.004 C 
ATOM     30  C   UNL     1      34.535 -16.176 -23.645  0.00  0.00    +0.031 C 
BRANCH  30  33
ATOM     31  N   UNL     1      33.712 -13.952 -24.383  0.00  0.00    -0.343 N 
ATOM     32  N   UNL     1      34.148 -15.628 -25.952  0.00  0.00    -0.285 NA
ATOM     33  C   UNL     1      34.129 -15.247 -24.687  0.00  0.00    +0.117 C 
ATOM     34  H   UNL     1      33.441 -13.339 -25.105  0.00  0.00    +0.144 HD
ATOM     35  H   UNL     1      33.688 -13.650 -23.446  0.00  0.00    +0.144 HD
ATOM     36  H   UNL     1      33.873 -15.000 -26.660  0.00  0.00    +0.188 HD
ENDBRANCH  30  33
ENDBRANCH  23  25
ENDBRANCH  22  23
ENDBRANCH   6  22
TORSDOF 6
ENDMDL
MODEL 9
REMARK VINA RESULT:     -10.7      2.312     11.097
REMARK  Name = 445756
REMARK  6 active torsions:
REMARK  status: ('A' for Active; 'I' for Inactive)
REMARK    1  A    between atoms: C_3  and  C_11
REMARK    2  A    between atoms: C_6  and  C_22
REMARK    3  A    between atoms: C_11  and  N_12
REMARK    4  A    between atoms: C_22  and  N_23
REMARK    5  A    between atoms: N_23  and  C_25
REMARK    6  A    between atoms: C_30  and  C_33
REMARK                            x       y       z     vdW  Elec       q    Type
REMARK                         _______ _______ _______ _____ _____    ______ ____
ROOT
ATOM      1  N   UNL     1      35.986 -19.329 -20.723  0.00  0.00    -0.261 N 
ATOM      2  N   UNL     1      33.777 -19.550 -20.828  0.00  0.00    -0.392 NA
ATOM      3  C   UNL     1      34.461 -22.547 -18.702  0.00  0.00    -0.017 C 
ATOM      4  C   UNL     1      35.695 -20.451 -19.990  0.00  0.00    +0.079 C 
ATOM      5  C   UNL     1      34.310 -20.567 -20.071  0.00  0.00    +0.128 C 
ATOM      6  C   UNL     1      34.809 -18.827 -21.203  0.00  0.00    +0.183 C 
ATOM      7  C   UNL     1      33.673 -21.634 -19.415  0.00  0.00    +0.084 C 
ATOM      8  C   UNL     1      35.849 -22.403 -18.639  0.00  0.00    -0.005 C 
ATOM      9  C   UNL     1      36.500 -21.347 -19.284  0.00  0.00    +0.017 C 
ATOM     10  C   UNL     1      37.304 -18.779 -20.945  0.00  0.00    +0.120 C 
ENDROOT
BRANCH   3  11
ATOM     11  C   UNL     1      33.805 -23.688 -17.996  0.00  0.00    +0.120 C 
BRANCH  11  12
ATOM     12  N   UNL     1      33.497 -23.360 -16.601  0.00  0.00    -0.260 N 
ATOM     13  N   UNL     1      33.821 -22.932 -14.464  0.00  0.00    -0.394 NA
ATOM     14  C   UNL     1      32.252 -23.137 -16.104  0.00  0.00    +0.079 C 
ATOM     15  C   UNL     1      34.405 -23.232 -15.603  0.00  0.00    +0.164 C 
ATOM     16  C   UNL     1      32.478 -22.869 -14.756  0.00  0.00    +0.128 C 
ATOM     17  C   UNL     1      30.982 -23.141 -16.681  0.00  0.00    +0.017 C 
ATOM     18  C   UNL     1      35.856 -23.412 -15.811  0.00  0.00    +0.084 C 
ATOM     19  C   UNL     1      31.384 -22.587 -13.922  0.00  0.00    +0.086 C 
ATOM     20  C   UNL     1      29.904 -22.859 -15.835  0.00  0.00    -0.003 C 
ATOM     21  C   UNL     1      30.100 -22.586 -14.479  0.00  0.00    -0.019 C 
ENDBRANCH  11  12
ENDBRANCH   3  11
BRANCH   6  22
ATOM     22  C   UNL     1      34.757 -17.611 -22.040  0.00  0.00    +0.164 C 
BRANCH  22  23
ATOM     23  N   UNL     1      35.076 -16.367 -21.349  0.00  0.00    -0.326 N 
ATOM     24  H   UNL     1      35.903 -16.328 -20.814  0.00  0.00    +0.147 HD
BRANCH  23  25
ATOM     25  C   UNL     1      34.278 -15.245 -21.405  0.00  0.00    +0.045 C 
ATOM     26  C   UNL     1      34.407 -14.309 -22.454  0.00  0.00    +0.014 C 
ATOM     27  C   UNL     1      33.306 -14.991 -20.415  0.00  0.00    +0.014 C 
ATOM     28  C   UNL     1      33.601 -13.173 -22.509  0.00  0.00    +0.004 C 
ATOM     29  C   UNL     1      32.500 -13.855 -20.470  0.00  0.00    +0.004 C 
ATOM     30  C   UNL     1      32.648 -12.945 -21.517  0.00  0.00    +0.031 C 
BRANCH  30  33
ATOM     31  N   UNL     1      32.251 -10.586 -22.180  0.00  0.00    -0.343 N 
ATOM     32  N   UNL     1      30.599 -11.782 -21.040  0.00  0.00    -0.285 NA
ATOM     33  C   UNL     1      31.808 -11.759 -21.574  0.00  0.00    +0.117 C 
ATOM     34  H   UNL     1      31.666  -9.794 -22.207  0.00  0.00    +0.144 HD
ATOM     35  H   UNL     1      33.150 -10.547 -22.581  0.00  0.00    +0.144 HD
ATOM     36  H   UNL     1      30.029 -10.980 -21.077  0.00  0.00    +0.188 HD
ENDBRANCH  30  33
ENDBRANCH  23  25
ENDBRANCH  22  23
ENDBRANCH   6  22
TORSDOF 6
ENDMDL
