MODEL 1
REMARK VINA RESULT:     -11.2      0.000      0.000
REMARK  Name = 444581
REMARK  5 active torsions:
REMARK  status: ('A' for Active; 'I' for Inactive)
REMARK    1  A    between atoms: N_2  and  C_7
REMARK    2  A    between atoms: N_3  and  C_20
REMARK    3  A    between atoms: C_8  and  O_13
REMARK    4  A    between atoms: O_13  and  C_14
REMARK    5  A    between atoms: C_21  and  C_28
REMARK                            x       y       z     vdW  Elec       q    Type
REMARK                         _______ _______ _______ _____ _____    ______ ____
ROOT
ATOM      1  O   UNL     1      36.899 -21.130 -17.116  0.00  0.00    -0.252 OA
ATOM      2  N   UNL     1      35.395 -21.845 -18.758  0.00  0.00    -0.268 N 
ATOM      3  N   UNL     1      35.631 -23.076 -16.818  0.00  0.00    -0.268 N 
ATOM      4  C   UNL     1      36.064 -21.929 -17.526  0.00  0.00    +0.308 C 
ATOM      5  H   UNL     1      34.750 -22.564 -18.948  0.00  0.00    +0.156 HD
ATOM      6  H   UNL     1      34.954 -23.627 -17.270  0.00  0.00    +0.156 HD
ENDROOT
BRANCH   2   7
ATOM      7  C   UNL     1      35.537 -20.856 -19.760  0.00  0.00    +0.052 C 
ATOM      8  C   UNL     1      35.814 -18.921 -21.722  0.00  0.00    +0.145 C 
ATOM      9  C   UNL     1      34.430 -20.483 -20.504  0.00  0.00    +0.018 C 
ATOM     10  C   UNL     1      36.778 -20.283 -19.976  0.00  0.00    +0.018 C 
ATOM     11  C   UNL     1      34.569 -19.508 -21.492  0.00  0.00    +0.039 C 
ATOM     12  C   UNL     1      36.918 -19.308 -20.964  0.00  0.00    +0.039 C 
BRANCH   8  13
ATOM     13  O   UNL     1      35.949 -17.969 -22.686  0.00  0.00    -0.453 OA
BRANCH  13  14
ATOM     14  C   UNL     1      35.181 -16.823 -22.571  0.00  0.00    +0.145 C 
ATOM     15  C   UNL     1      34.921 -16.309 -21.314  0.00  0.00    +0.037 C 
ATOM     16  C   UNL     1      34.692 -16.223 -23.717  0.00  0.00    +0.037 C 
ATOM     17  C   UNL     1      34.147 -15.155 -21.198  0.00  0.00    +0.003 C 
ATOM     18  C   UNL     1      33.918 -15.068 -23.601  0.00  0.00    +0.003 C 
ATOM     19  C   UNL     1      33.645 -14.534 -22.341  0.00  0.00    +0.000 C 
ENDBRANCH  13  14
ENDBRANCH   8  13
ENDBRANCH   2   7
BRANCH   3  20
ATOM     20  C   UNL     1      36.038 -23.529 -15.562  0.00  0.00    +0.052 C 
ATOM     21  C   UNL     1      36.854 -24.433 -13.052  0.00  0.00    +0.031 C 
ATOM     22  C   UNL     1      37.396 -23.675 -15.280  0.00  0.00    +0.015 C 
ATOM     23  C   UNL     1      35.087 -23.835 -14.589  0.00  0.00    +0.015 C 
ATOM     24  C   UNL     1      37.804 -24.128 -14.026  0.00  0.00    +0.004 C 
ATOM     25  C   UNL     1      35.494 -24.287 -13.334  0.00  0.00    +0.004 C 
BRANCH  21  28
ATOM     26  N   UNL     1      38.007 -24.087 -10.880  0.00  0.00    -0.343 N 
ATOM     27  N   UNL     1      36.975 -26.129 -11.354  0.00  0.00    -0.285 NA
ATOM     28  C   UNL     1      37.278 -24.904 -11.743  0.00  0.00    +0.117 C 
ATOM     29  H   UNL     1      38.283 -24.426  -9.999  0.00  0.00    +0.144 HD
ATOM     30  H   UNL     1      38.245 -23.172 -11.153  0.00  0.00    +0.144 HD
ATOM     31  H   UNL     1      37.261 -26.451 -10.469  0.00  0.00    +0.188 HD
ENDBRANCH  21  28
ENDBRANCH   3  20
TORSDOF 5
ENDMDL
MODEL 2
REMARK VINA RESULT:     -10.9      7.380     13.590
REMARK  Name = 444581
REMARK  5 active torsions:
REMARK  status: ('A' for Active; 'I' for Inactive)
REMARK    1  A    between atoms: N_2  and  C_7
REMARK    2  A    between atoms: N_3  and  C_20
REMARK    3  A    between atoms: C_8  and  O_13
REMARK    4  A    between atoms: O_13  and  C_14
REMARK    5  A    between atoms: C_21  and  C_28
REMARK                            x       y       z     vdW  Elec       q    Type
REMARK                         _______ _______ _______ _____ _____    ______ ____
ROOT
ATOM      1  O   UNL     1      33.582 -11.070 -23.242  0.00  0.00    -0.252 OA
ATOM      2  N   UNL     1      32.661 -12.696 -21.836  0.00  0.00    -0.268 N 
ATOM      3  N   UNL     1      31.930 -10.509 -21.680  0.00  0.00    -0.268 N 
ATOM      4  C   UNL     1      32.809 -11.396 -22.348  0.00  0.00    +0.308 C 
ATOM      5  H   UNL     1      31.997 -12.802 -21.116  0.00  0.00    +0.156 HD
ATOM      6  H   UNL     1      31.365 -10.912 -20.982  0.00  0.00    +0.156 HD
ENDROOT
BRANCH   2   7
ATOM      7  C   UNL     1      33.348 -13.869 -22.226  0.00  0.00    +0.052 C 
ATOM      8  C   UNL     1      34.695 -16.165 -22.990  0.00  0.00    +0.145 C 
ATOM      9  C   UNL     1      33.945 -14.658 -21.257  0.00  0.00    +0.018 C 
ATOM     10  C   UNL     1      33.409 -14.204 -23.568  0.00  0.00    +0.018 C 
ATOM     11  C   UNL     1      34.624 -15.814 -21.641  0.00  0.00    +0.039 C 
ATOM     12  C   UNL     1      34.087 -15.360 -23.953  0.00  0.00    +0.039 C 
BRANCH   8  13
ATOM     13  O   UNL     1      35.356 -17.294 -23.365  0.00  0.00    -0.453 OA
BRANCH  13  14
ATOM     14  C   UNL     1      35.639 -18.230 -22.384  0.00  0.00    +0.145 C 
ATOM     15  C   UNL     1      34.651 -19.114 -21.992  0.00  0.00    +0.037 C 
ATOM     16  C   UNL     1      36.903 -18.255 -21.823  0.00  0.00    +0.037 C 
ATOM     17  C   UNL     1      34.936 -20.057 -21.003  0.00  0.00    +0.003 C 
ATOM     18  C   UNL     1      37.188 -19.197 -20.835  0.00  0.00    +0.003 C 
ATOM     19  C   UNL     1      36.204 -20.099 -20.424  0.00  0.00    +0.000 C 
ENDBRANCH  13  14
ENDBRANCH   8  13
ENDBRANCH   2   7
BRANCH   3  20
ATOM     20  C   UNL     1      31.758  -9.139 -21.880  0.00  0.00    +0.052 C 
ATOM     21  C   UNL     1      31.417  -6.399 -22.279  0.00  0.00    +0.031 C 
ATOM     22  C   UNL     1      32.202  -8.233 -20.917  0.00  0.00    +0.015 C 
ATOM     23  C   UNL     1      31.143  -8.675 -23.043  0.00  0.00    +0.015 C 
ATOM     24  C   UNL     1      32.031  -6.863 -21.116  0.00  0.00    +0.004 C 
ATOM     25  C   UNL     1      30.972  -7.305 -23.243  0.00  0.00    +0.004 C 
BRANCH  21  28
ATOM     26  N   UNL     1      30.314  -4.239 -21.744  0.00  0.00    -0.343 N 
ATOM     27  N   UNL     1      31.959  -4.344 -23.400  0.00  0.00    -0.285 NA
ATOM     28  C   UNL     1      31.239  -4.971 -22.488  0.00  0.00    +0.117 C 
ATOM     29  H   UNL     1      30.210  -3.274 -21.902  0.00  0.00    +0.144 HD
ATOM     30  H   UNL     1      29.766  -4.689 -21.062  0.00  0.00    +0.144 HD
ATOM     31  H   UNL     1      31.841  -3.378 -23.544  0.00  0.00    +0.188 HD
ENDBRANCH  21  28
ENDBRANCH   3  20
TORSDOF 5
ENDMDL
MODEL 3
REMARK VINA RESULT:     -10.8      6.192     12.150
REMARK  Name = 444581
REMARK  5 active torsions:
REMARK  status: ('A' for Active; 'I' for Inactive)
REMARK    1  A    between atoms: N_2  and  C_7
REMARK    2  A    between atoms: N_3  and  C_20
REMARK    3  A    between atoms: C_8  and  O_13
REMARK    4  A    between atoms: O_13  and  C_14
REMARK    5  A    between atoms: C_21  and  C_28
REMARK                            x       y       z     vdW  Elec       q    Type
REMARK                         _______ _______ _______ _____ _____    ______ ____
ROOT
ATOM      1  O   UNL     1      33.911 -13.541 -21.165  0.00  0.00    -0.252 OA
ATOM      2  N   UNL     1      34.241 -14.695 -23.172  0.00  0.00    -0.268 N 
ATOM      3  N   UNL     1      33.490 -12.511 -23.226  0.00  0.00    -0.268 N 
ATOM      4  C   UNL     1      33.885 -13.583 -22.391  0.00  0.00    +0.308 C 
ATOM      5  H   UNL     1      34.168 -14.577 -24.147  0.00  0.00    +0.156 HD
ATOM      6  H   UNL     1      33.519 -12.690 -24.194  0.00  0.00    +0.156 HD
ENDROOT
BRANCH   2   7
ATOM      7  C   UNL     1      34.691 -15.961 -22.731  0.00  0.00    +0.052 C 
ATOM      8  C   UNL     1      35.573 -18.441 -21.867  0.00  0.00    +0.145 C 
ATOM      9  C   UNL     1      34.872 -16.182 -21.375  0.00  0.00    +0.018 C 
ATOM     10  C   UNL     1      34.941 -16.955 -23.663  0.00  0.00    +0.018 C 
ATOM     11  C   UNL     1      35.316 -17.430 -20.940  0.00  0.00    +0.039 C 
ATOM     12  C   UNL     1      35.385 -18.204 -23.228  0.00  0.00    +0.039 C 
BRANCH   8  13
ATOM     13  O   UNL     1      36.005 -19.660 -21.442  0.00  0.00    -0.453 OA
BRANCH  13  14
ATOM     14  C   UNL     1      35.181 -20.373 -20.587  0.00  0.00    +0.145 C 
ATOM     15  C   UNL     1      35.745 -21.270 -19.700  0.00  0.00    +0.037 C 
ATOM     16  C   UNL     1      33.814 -20.168 -20.645  0.00  0.00    +0.037 C 
ATOM     17  C   UNL     1      34.914 -21.989 -18.839  0.00  0.00    +0.003 C 
ATOM     18  C   UNL     1      32.984 -20.886 -19.784  0.00  0.00    +0.003 C 
ATOM     19  C   UNL     1      33.534 -21.797 -18.881  0.00  0.00    +0.000 C 
ENDBRANCH  13  14
ENDBRANCH   8  13
ENDBRANCH   2   7
BRANCH   3  20
ATOM     20  C   UNL     1      33.063 -11.234 -22.861  0.00  0.00    +0.052 C 
ATOM     21  C   UNL     1      32.209  -8.680 -22.133  0.00  0.00    +0.031 C 
ATOM     22  C   UNL     1      33.690 -10.110 -23.397  0.00  0.00    +0.015 C 
ATOM     23  C   UNL     1      32.009 -11.081 -21.961  0.00  0.00    +0.015 C 
ATOM     24  C   UNL     1      33.264  -8.832 -23.033  0.00  0.00    +0.004 C 
ATOM     25  C   UNL     1      31.582  -9.805 -21.596  0.00  0.00    +0.004 C 
BRANCH  21  28
ATOM     26  N   UNL     1      32.299  -6.693 -20.646  0.00  0.00    -0.343 N 
ATOM     27  N   UNL     1      30.830  -6.740 -22.462  0.00  0.00    -0.285 NA
ATOM     28  C   UNL     1      31.763  -7.348 -21.753  0.00  0.00    +0.117 C 
ATOM     29  H   UNL     1      31.983  -5.792 -20.407  0.00  0.00    +0.144 HD
ATOM     30  H   UNL     1      32.994  -7.131 -20.104  0.00  0.00    +0.144 HD
ATOM     31  H   UNL     1      30.526  -5.839 -22.207  0.00  0.00    +0.188 HD
ENDBRANCH  21  28
ENDBRANCH   3  20
TORSDOF 5
ENDMDL
MODEL 4
REMARK VINA RESULT:     -10.7      2.876      3.843
REMARK  Name = 444581
REMARK  5 active torsions:
REMARK  status: ('A' for Active; 'I' for Inactive)
REMARK    1  A    between atoms: N_2  and  C_7
REMARK    2  A    between atoms: N_3  and  C_20
REMARK    3  A    between atoms: C_8  and  O_13
REMARK    4  A    between atoms: O_13  and  C_14
REMARK    5  A    between atoms: C_21  and  C_28
REMARK                            x       y       z     vdW  Elec       q    Type
REMARK                         _______ _______ _______ _____ _____    ______ ____
ROOT
ATOM      1  O   UNL     1      32.919 -21.244 -18.744  0.00  0.00    -0.252 OA
ATOM      2  N   UNL     1      35.222 -21.366 -19.134  0.00  0.00    -0.268 N 
ATOM      3  N   UNL     1      34.291 -22.603 -17.419  0.00  0.00    -0.268 N 
ATOM      4  C   UNL     1      34.028 -21.687 -18.466  0.00  0.00    +0.308 C 
ATOM      5  H   UNL     1      36.036 -21.803 -18.795  0.00  0.00    +0.156 HD
ATOM      6  H   UNL     1      35.232 -22.872 -17.312  0.00  0.00    +0.156 HD
ENDROOT
BRANCH   2   7
ATOM      7  C   UNL     1      35.397 -20.493 -20.233  0.00  0.00    +0.052 C 
ATOM      8  C   UNL     1      35.739 -18.781 -22.384  0.00  0.00    +0.145 C 
ATOM      9  C   UNL     1      36.608 -19.840 -20.394  0.00  0.00    +0.018 C 
ATOM     10  C   UNL     1      34.354 -20.308 -21.124  0.00  0.00    +0.018 C 
ATOM     11  C   UNL     1      36.780 -18.978 -21.476  0.00  0.00    +0.039 C 
ATOM     12  C   UNL     1      34.525 -19.446 -22.208  0.00  0.00    +0.039 C 
BRANCH   8  13
ATOM     13  O   UNL     1      35.908 -17.941 -23.441  0.00  0.00    -0.453 OA
BRANCH  13  14
ATOM     14  C   UNL     1      35.149 -16.783 -23.471  0.00  0.00    +0.145 C 
ATOM     15  C   UNL     1      34.646 -16.337 -24.678  0.00  0.00    +0.037 C 
ATOM     16  C   UNL     1      34.916 -16.101 -22.289  0.00  0.00    +0.037 C 
ATOM     17  C   UNL     1      33.883 -15.170 -24.708  0.00  0.00    +0.003 C 
ATOM     18  C   UNL     1      34.153 -14.934 -22.319  0.00  0.00    +0.003 C 
ATOM     19  C   UNL     1      33.636 -14.468 -23.529  0.00  0.00    +0.000 C 
ENDBRANCH  13  14
ENDBRANCH   8  13
ENDBRANCH   2   7
BRANCH   3  20
ATOM     20  C   UNL     1      33.393 -23.175 -16.516  0.00  0.00    +0.052 C 
ATOM     21  C   UNL     1      31.598 -24.320 -14.715  0.00  0.00    +0.031 C 
ATOM     22  C   UNL     1      32.023 -23.115 -16.765  0.00  0.00    +0.015 C 
ATOM     23  C   UNL     1      33.867 -23.807 -15.367  0.00  0.00    +0.015 C 
ATOM     24  C   UNL     1      31.124 -23.687 -15.864  0.00  0.00    +0.004 C 
ATOM     25  C   UNL     1      32.970 -24.380 -14.466  0.00  0.00    +0.004 C 
BRANCH  21  28
ATOM     26  N   UNL     1      29.621 -25.736 -14.210  0.00  0.00    -0.343 N 
ATOM     27  N   UNL     1      30.789 -24.683 -12.481  0.00  0.00    -0.285 NA
ATOM     28  C   UNL     1      30.662 -24.917 -13.775  0.00  0.00    +0.117 C 
ATOM     29  H   UNL     1      29.000 -26.131 -13.557  0.00  0.00    +0.144 HD
ATOM     30  H   UNL     1      29.509 -25.919 -15.170  0.00  0.00    +0.144 HD
ATOM     31  H   UNL     1      30.157 -25.086 -11.843  0.00  0.00    +0.188 HD
ENDBRANCH  21  28
ENDBRANCH   3  20
TORSDOF 5
ENDMDL
MODEL 5
REMARK VINA RESULT:     -10.7      2.531      3.436
REMARK  Name = 444581
REMARK  5 active torsions:
REMARK  status: ('A' for Active; 'I' for Inactive)
REMARK    1  A    between atoms: N_2  and  C_7
REMARK    2  A    between atoms: N_3  and  C_20
REMARK    3  A    between atoms: C_8  and  O_13
REMARK    4  A    between atoms: O_13  and  C_14
REMARK    5  A    between atoms: C_21  and  C_28
REMARK                            x       y       z     vdW  Elec       q    Type
REMARK                         _______ _______ _______ _____ _____    ______ ____
ROOT
ATOM      1  O   UNL     1      33.279 -20.904 -19.116  0.00  0.00    -0.252 OA
ATOM      2  N   UNL     1      35.514 -20.924 -19.804  0.00  0.00    -0.268 N 
ATOM      3  N   UNL     1      34.864 -22.230 -18.012  0.00  0.00    -0.268 N 
ATOM      4  C   UNL     1      34.432 -21.306 -18.994  0.00  0.00    +0.308 C 
ATOM      5  H   UNL     1      36.382 -21.333 -19.583  0.00  0.00    +0.156 HD
ATOM      6  H   UNL     1      35.820 -22.462 -18.035  0.00  0.00    +0.156 HD
ENDROOT
BRANCH   2   7
ATOM      7  C   UNL     1      35.511 -20.024 -20.895  0.00  0.00    +0.052 C 
ATOM      8  C   UNL     1      35.506 -18.262 -23.032  0.00  0.00    +0.145 C 
ATOM      9  C   UNL     1      34.501 -20.107 -21.839  0.00  0.00    +0.018 C 
ATOM     10  C   UNL     1      36.518 -19.078 -20.997  0.00  0.00    +0.018 C 
ATOM     11  C   UNL     1      34.498 -19.220 -22.916  0.00  0.00    +0.039 C 
ATOM     12  C   UNL     1      36.515 -18.191 -22.073  0.00  0.00    +0.039 C 
BRANCH   8  13
ATOM     13  O   UNL     1      35.502 -17.395 -24.082  0.00  0.00    -0.453 OA
BRANCH  13  14
ATOM     14  C   UNL     1      34.754 -16.236 -23.957  0.00  0.00    +0.145 C 
ATOM     15  C   UNL     1      34.143 -15.705 -25.077  0.00  0.00    +0.037 C 
ATOM     16  C   UNL     1      34.640 -15.641 -22.714  0.00  0.00    +0.037 C 
ATOM     17  C   UNL     1      33.390 -14.537 -24.951  0.00  0.00    +0.003 C 
ATOM     18  C   UNL     1      33.888 -14.473 -22.588  0.00  0.00    +0.003 C 
ATOM     19  C   UNL     1      33.263 -13.920 -23.707  0.00  0.00    +0.000 C 
ENDBRANCH  13  14
ENDBRANCH   8  13
ENDBRANCH   2   7
BRANCH   3  20
ATOM     20  C   UNL     1      34.114 -22.855 -17.015  0.00  0.00    +0.052 C 
ATOM     21  C   UNL     1      32.615 -24.106 -15.023  0.00  0.00    +0.031 C 
ATOM     22  C   UNL     1      32.726 -22.923 -17.126  0.00  0.00    +0.015 C 
ATOM     23  C   UNL     1      34.753 -23.412 -15.908  0.00  0.00    +0.015 C 
ATOM     24  C   UNL     1      31.976 -23.549 -16.130  0.00  0.00    +0.004 C 
ATOM     25  C   UNL     1      34.004 -24.038 -14.912  0.00  0.00    +0.004 C 
BRANCH  21  28
ATOM     26  N   UNL     1      30.454 -24.915 -14.105  0.00  0.00    -0.343 N 
ATOM     27  N   UNL     1      32.432 -25.214 -12.898  0.00  0.00    -0.285 NA
ATOM     28  C   UNL     1      31.834 -24.759 -13.984  0.00  0.00    +0.117 C 
ATOM     29  H   UNL     1      29.945 -25.361 -13.391  0.00  0.00    +0.144 HD
ATOM     30  H   UNL     1      29.989 -24.581 -14.906  0.00  0.00    +0.144 HD
ATOM     31  H   UNL     1      31.906 -25.656 -12.194  0.00  0.00    +0.188 HD
ENDBRANCH  21  28
ENDBRANCH   3  20
TORSDOF 5
ENDMDL
MODEL 6
REMARK VINA RESULT:     -10.6      3.288     10.872
REMARK  Name = 444581
REMARK  5 active torsions:
REMARK  status: ('A' for Active; 'I' for Inactive)
REMARK    1  A    between atoms: N_2  and  C_7
REMARK    2  A    between atoms: N_3  and  C_20
REMARK    3  A    between atoms: C_8  and  O_13
REMARK    4  A    between atoms: O_13  and  C_14
REMARK    5  A    between atoms: C_21  and  C_28
REMARK                            x       y       z     vdW  Elec       q    Type
REMARK                         _______ _______ _______ _____ _____    ______ ____
ROOT
ATOM      1  O   UNL     1      33.834 -19.788 -19.926  0.00  0.00    -0.252 OA
ATOM      2  N   UNL     1      35.745 -21.089 -19.570  0.00  0.00    -0.268 N 
ATOM      3  N   UNL     1      35.728 -19.537 -21.281  0.00  0.00    -0.268 N 
ATOM      4  C   UNL     1      34.980 -20.108 -20.223  0.00  0.00    +0.308 C 
ATOM      5  H   UNL     1      36.652 -21.234 -19.924  0.00  0.00    +0.156 HD
ATOM      6  H   UNL     1      36.637 -19.893 -21.403  0.00  0.00    +0.156 HD
ENDROOT
BRANCH   2   7
ATOM      7  C   UNL     1      35.372 -21.892 -18.467  0.00  0.00    +0.052 C 
ATOM      8  C   UNL     1      34.641 -23.468 -16.309  0.00  0.00    +0.145 C 
ATOM      9  C   UNL     1      36.223 -21.988 -17.379  0.00  0.00    +0.018 C 
ATOM     10  C   UNL     1      34.163 -22.567 -18.498  0.00  0.00    +0.018 C 
ATOM     11  C   UNL     1      35.856 -22.781 -16.292  0.00  0.00    +0.039 C 
ATOM     12  C   UNL     1      33.794 -23.360 -17.412  0.00  0.00    +0.039 C 
BRANCH   8  13
ATOM     13  O   UNL     1      34.282 -24.240 -15.247  0.00  0.00    -0.453 OA
BRANCH  13  14
ATOM     14  C   UNL     1      35.291 -24.876 -14.544  0.00  0.00    +0.145 C 
ATOM     15  C   UNL     1      35.971 -25.923 -15.138  0.00  0.00    +0.037 C 
ATOM     16  C   UNL     1      35.592 -24.447 -13.263  0.00  0.00    +0.037 C 
ATOM     17  C   UNL     1      36.987 -26.564 -14.429  0.00  0.00    +0.003 C 
ATOM     18  C   UNL     1      36.608 -25.088 -12.554  0.00  0.00    +0.003 C 
ATOM     19  C   UNL     1      37.306 -26.147 -13.137  0.00  0.00    +0.000 C 
ENDBRANCH  13  14
ENDBRANCH   8  13
ENDBRANCH   2   7
BRANCH   3  20
ATOM     20  C   UNL     1      35.347 -18.535 -22.175  0.00  0.00    +0.052 C 
ATOM     21  C   UNL     1      34.588 -16.532 -23.961  0.00  0.00    +0.031 C 
ATOM     22  C   UNL     1      35.282 -17.209 -21.749  0.00  0.00    +0.015 C 
ATOM     23  C   UNL     1      35.033 -18.860 -23.494  0.00  0.00    +0.015 C 
ATOM     24  C   UNL     1      34.901 -16.207 -22.642  0.00  0.00    +0.004 C 
ATOM     25  C   UNL     1      34.653 -17.859 -24.388  0.00  0.00    +0.004 C 
BRANCH  21  28
ATOM     26  N   UNL     1      33.758 -14.241 -24.445  0.00  0.00    -0.343 N 
ATOM     27  N   UNL     1      34.236 -15.715 -26.194  0.00  0.00    -0.285 NA
ATOM     28  C   UNL     1      34.192 -15.488 -24.894  0.00  0.00    +0.117 C 
ATOM     29  H   UNL     1      33.496 -13.549 -25.093  0.00  0.00    +0.144 HD
ATOM     30  H   UNL     1      33.715 -14.054 -23.480  0.00  0.00    +0.144 HD
ATOM     31  H   UNL     1      33.969 -15.010 -26.827  0.00  0.00    +0.188 HD
ENDBRANCH  21  28
ENDBRANCH   3  20
TORSDOF 5
ENDMDL
MODEL 7
REMARK VINA RESULT:     -10.5      2.534      3.371
REMARK  Name = 444581
REMARK  5 active torsions:
REMARK  status: ('A' for Active; 'I' for Inactive)
REMARK    1  A    between atoms: N_2  and  C_7
REMARK    2  A    between atoms: N_3  and  C_20
REMARK    3  A    between atoms: C_8  and  O_13
REMARK    4  A    between atoms: O_13  and  C_14
REMARK    5  A    between atoms: C_21  and  C_28
REMARK                            x       y       z     vdW  Elec       q    Type
REMARK                         _______ _______ _______ _____ _____    ______ ____
ROOT
ATOM      1  O   UNL     1      33.274 -20.696 -19.209  0.00  0.00    -0.252 OA
ATOM      2  N   UNL     1      35.460 -20.771 -20.038  0.00  0.00    -0.268 N 
ATOM      3  N   UNL     1      34.882 -22.092 -18.234  0.00  0.00    -0.268 N 
ATOM      4  C   UNL     1      34.419 -21.136 -19.169  0.00  0.00    +0.308 C 
ATOM      5  H   UNL     1      36.326 -21.211 -19.881  0.00  0.00    +0.156 HD
ATOM      6  H   UNL     1      35.827 -22.353 -18.322  0.00  0.00    +0.156 HD
ENDROOT
BRANCH   2   7
ATOM      7  C   UNL     1      35.416 -19.849 -21.110  0.00  0.00    +0.052 C 
ATOM      8  C   UNL     1      35.329 -18.042 -23.208  0.00  0.00    +0.145 C 
ATOM      9  C   UNL     1      36.162 -18.684 -21.033  0.00  0.00    +0.018 C 
ATOM     10  C   UNL     1      34.628 -20.129 -22.214  0.00  0.00    +0.018 C 
ATOM     11  C   UNL     1      36.118 -17.774 -22.089  0.00  0.00    +0.039 C 
ATOM     12  C   UNL     1      34.584 -19.220 -23.271  0.00  0.00    +0.039 C 
BRANCH   8  13
ATOM     13  O   UNL     1      35.288 -17.155 -24.240  0.00  0.00    -0.453 OA
BRANCH  13  14
ATOM     14  C   UNL     1      34.574 -15.983 -24.052  0.00  0.00    +0.145 C 
ATOM     15  C   UNL     1      34.513 -15.426 -22.789  0.00  0.00    +0.037 C 
ATOM     16  C   UNL     1      33.939 -15.402 -25.135  0.00  0.00    +0.037 C 
ATOM     17  C   UNL     1      33.793 -14.246 -22.600  0.00  0.00    +0.003 C 
ATOM     18  C   UNL     1      33.219 -14.222 -24.947  0.00  0.00    +0.003 C 
ATOM     19  C   UNL     1      33.146 -13.643 -23.679  0.00  0.00    +0.000 C 
ENDBRANCH  13  14
ENDBRANCH   8  13
ENDBRANCH   2   7
BRANCH   3  20
ATOM     20  C   UNL     1      34.177 -22.714 -17.202  0.00  0.00    +0.052 C 
ATOM     21  C   UNL     1      32.769 -23.956 -15.139  0.00  0.00    +0.031 C 
ATOM     22  C   UNL     1      34.854 -23.165 -16.069  0.00  0.00    +0.015 C 
ATOM     23  C   UNL     1      32.797 -22.884 -17.304  0.00  0.00    +0.015 C 
ATOM     24  C   UNL     1      34.150 -23.786 -15.037  0.00  0.00    +0.004 C 
ATOM     25  C   UNL     1      32.092 -23.505 -16.273  0.00  0.00    +0.004 C 
BRANCH  21  28
ATOM     26  N   UNL     1      30.649 -24.745 -14.116  0.00  0.00    -0.343 N 
ATOM     27  N   UNL     1      32.681 -25.064 -13.008  0.00  0.00    -0.285 NA
ATOM     28  C   UNL     1      32.034 -24.603 -14.063  0.00  0.00    +0.117 C 
ATOM     29  H   UNL     1      30.171 -25.186 -13.377  0.00  0.00    +0.144 HD
ATOM     30  H   UNL     1      30.149 -24.404 -14.892  0.00  0.00    +0.144 HD
ATOM     31  H   UNL     1      32.186 -25.502 -12.279  0.00  0.00    +0.188 HD
ENDBRANCH  21  28
ENDBRANCH   3  20
TORSDOF 5
ENDMDL
MODEL 8
REMARK VINA RESULT:     -10.5      3.652     10.464
REMARK  Name = 444581
REMARK  5 active torsions:
REMARK  status: ('A' for Active; 'I' for Inactive)
REMARK    1  A    between atoms: N_2  and  C_7
REMARK    2  A    between atoms: N_3  and  C_20
REMARK    3  A    between atoms: C_8  and  O_13
REMARK    4  A    between atoms: O_13  and  C_14
REMARK    5  A    between atoms: C_21  and  C_28
REMARK                            x       y       z     vdW  Elec       q    Type
REMARK                         _______ _______ _______ _____ _____    ______ ____
ROOT
ATOM      1  O   UNL     1      33.800 -19.758 -19.988  0.00  0.00    -0.252 OA
ATOM      2  N   UNL     1      35.704 -21.075 -19.656  0.00  0.00    -0.268 N 
ATOM      3  N   UNL     1      35.688 -19.508 -21.353  0.00  0.00    -0.268 N 
ATOM      4  C   UNL     1      34.942 -20.083 -20.296  0.00  0.00    +0.308 C 
ATOM      5  H   UNL     1      36.607 -21.224 -20.017  0.00  0.00    +0.156 HD
ATOM      6  H   UNL     1      36.593 -19.870 -21.483  0.00  0.00    +0.156 HD
ENDROOT
BRANCH   2   7
ATOM      7  C   UNL     1      35.331 -21.886 -18.558  0.00  0.00    +0.052 C 
ATOM      8  C   UNL     1      34.602 -23.471 -16.407  0.00  0.00    +0.145 C 
ATOM      9  C   UNL     1      34.162 -22.625 -18.627  0.00  0.00    +0.018 C 
ATOM     10  C   UNL     1      36.143 -21.923 -17.437  0.00  0.00    +0.018 C 
ATOM     11  C   UNL     1      33.794 -23.423 -17.544  0.00  0.00    +0.039 C 
ATOM     12  C   UNL     1      35.777 -22.721 -16.353  0.00  0.00    +0.039 C 
BRANCH   8  13
ATOM     13  O   UNL     1      34.244 -24.252 -15.351  0.00  0.00    -0.453 OA
BRANCH  13  14
ATOM     14  C   UNL     1      33.008 -24.020 -14.769  0.00  0.00    +0.145 C 
ATOM     15  C   UNL     1      32.273 -22.919 -15.165  0.00  0.00    +0.037 C 
ATOM     16  C   UNL     1      32.543 -24.898 -13.807  0.00  0.00    +0.037 C 
ATOM     17  C   UNL     1      31.029 -22.685 -14.578  0.00  0.00    +0.003 C 
ATOM     18  C   UNL     1      31.299 -24.665 -13.220  0.00  0.00    +0.003 C 
ATOM     19  C   UNL     1      30.542 -23.558 -13.606  0.00  0.00    +0.000 C 
ENDBRANCH  13  14
ENDBRANCH   8  13
ENDBRANCH   2   7
BRANCH   3  20
ATOM     20  C   UNL     1      35.308 -18.496 -22.235  0.00  0.00    +0.052 C 
ATOM     21  C   UNL     1      34.547 -16.473 -24.000  0.00  0.00    +0.031 C 
ATOM     22  C   UNL     1      34.959 -18.810 -23.548  0.00  0.00    +0.015 C 
ATOM     23  C   UNL     1      35.277 -17.170 -21.804  0.00  0.00    +0.015 C 
ATOM     24  C   UNL     1      34.579 -17.799 -24.431  0.00  0.00    +0.004 C 
ATOM     25  C   UNL     1      34.897 -16.158 -22.686  0.00  0.00    +0.004 C 
BRANCH  21  28
ATOM     26  N   UNL     1      33.742 -14.169 -24.455  0.00  0.00    -0.343 N 
ATOM     27  N   UNL     1      34.169 -15.638 -26.221  0.00  0.00    -0.285 NA
ATOM     28  C   UNL     1      34.150 -15.418 -24.919  0.00  0.00    +0.117 C 
ATOM     29  H   UNL     1      33.478 -13.469 -25.095  0.00  0.00    +0.144 HD
ATOM     30  H   UNL     1      33.718 -13.987 -23.489  0.00  0.00    +0.144 HD
ATOM     31  H   UNL     1      33.901 -14.926 -26.846  0.00  0.00    +0.188 HD
ENDBRANCH  21  28
ENDBRANCH   3  20
TORSDOF 5
ENDMDL
MODEL 9
REMARK VINA RESULT:     -10.3      8.648     13.287
REMARK  Name = 444581
REMARK  5 active torsions:
REMARK  status: ('A' for Active; 'I' for Inactive)
REMARK    1  A    between atoms: N_2  and  C_7
REMARK    2  A    between atoms: N_3  and  C_20
REMARK    3  A    between atoms: C_8  and  O_13
REMARK    4  A    between atoms: O_13  and  C_14
REMARK    5  A    between atoms: C_21  and  C_28
REMARK                            x       y       z     vdW  Elec       q    Type
REMARK                         _______ _______ _______ _____ _____    ______ ____
ROOT
ATOM      1  O   UNL     1      33.522 -10.604 -23.405  0.00  0.00    -0.252 OA
ATOM      2  N   UNL     1      31.968 -10.024 -21.755  0.00  0.00    -0.268 N 
ATOM      3  N   UNL     1      32.595 -12.234 -22.001  0.00  0.00    -0.268 N 
ATOM      4  C   UNL     1      32.773 -10.915 -22.485  0.00  0.00    +0.308 C 
ATOM      5  H   UNL     1      31.418 -10.424 -21.044  0.00  0.00    +0.156 HD
ATOM      6  H   UNL     1      31.961 -12.334 -21.256  0.00  0.00    +0.156 HD
ENDROOT
BRANCH   2   7
ATOM      7  C   UNL     1      31.850  -8.624 -21.919  0.00  0.00    +0.052 C 
ATOM      8  C   UNL     1      31.622  -5.882 -22.241  0.00  0.00    +0.145 C 
ATOM      9  C   UNL     1      30.987  -8.124 -22.879  0.00  0.00    +0.018 C 
ATOM     10  C   UNL     1      32.602  -7.782 -21.117  0.00  0.00    +0.018 C 
ATOM     11  C   UNL     1      30.871  -6.744 -23.042  0.00  0.00    +0.039 C 
ATOM     12  C   UNL     1      32.487  -6.402 -21.278  0.00  0.00    +0.039 C 
BRANCH   8  13
ATOM     13  O   UNL     1      31.508  -4.535 -22.398  0.00  0.00    -0.453 OA
BRANCH  13  14
ATOM     14  C   UNL     1      31.693  -4.018 -23.669  0.00  0.00    +0.145 C 
ATOM     15  C   UNL     1      30.857  -3.010 -24.115  0.00  0.00    +0.037 C 
ATOM     16  C   UNL     1      32.708  -4.524 -24.460  0.00  0.00    +0.037 C 
ATOM     17  C   UNL     1      31.043  -2.490 -25.395  0.00  0.00    +0.003 C 
ATOM     18  C   UNL     1      32.894  -4.003 -25.741  0.00  0.00    +0.003 C 
ATOM     19  C   UNL     1      32.061  -2.985 -26.209  0.00  0.00    +0.000 C 
ENDBRANCH  13  14
ENDBRANCH   8  13
ENDBRANCH   2   7
BRANCH   3  20
ATOM     20  C   UNL     1      33.200 -13.412 -22.441  0.00  0.00    +0.052 C 
ATOM     21  C   UNL     1      34.412 -15.765 -23.323  0.00  0.00    +0.031 C 
ATOM     22  C   UNL     1      33.124 -13.774 -23.785  0.00  0.00    +0.015 C 
ATOM     23  C   UNL     1      33.883 -14.226 -21.537  0.00  0.00    +0.015 C 
ATOM     24  C   UNL     1      33.730 -14.951 -24.227  0.00  0.00    +0.004 C 
ATOM     25  C   UNL     1      34.489 -15.402 -21.977  0.00  0.00    +0.004 C 
BRANCH  21  28
ATOM     26  N   UNL     1      35.921 -17.705 -22.965  0.00  0.00    -0.343 N 
ATOM     27  N   UNL     1      34.795 -17.447 -24.996  0.00  0.00    -0.285 NA
ATOM     28  C   UNL     1      35.045 -16.992 -23.781  0.00  0.00    +0.117 C 
ATOM     29  H   UNL     1      36.337 -18.533 -23.295  0.00  0.00    +0.144 HD
ATOM     30  H   UNL     1      36.122 -17.380 -22.058  0.00  0.00    +0.144 HD
ATOM     31  H   UNL     1      35.221 -18.277 -25.309  0.00  0.00    +0.188 HD
ENDBRANCH  21  28
ENDBRANCH   3  20
TORSDOF 5
ENDMDL
