MODEL 1
REMARK VINA RESULT:     -12.1      0.000      0.000
REMARK  Name = 448317
REMARK  6 active torsions:
REMARK  status: ('A' for Active; 'I' for Inactive)
REMARK    1  A    between atoms: C_1  and  C_18
REMARK    2  A    between atoms: C_4  and  N_24
REMARK    3  A    between atoms: C_5  and  S_25
REMARK    4  A    between atoms: S_25  and  C_26
REMARK    5  A    between atoms: C_27  and  O_32
REMARK    6  A    between atoms: O_32  and  C_33
REMARK                            x       y       z     vdW  Elec       q    Type
REMARK                         _______ _______ _______ _____ _____    ______ ____
ROOT
ATOM      1  C   UNL     1      34.459 -20.951 -19.524  0.00  0.00    +0.002 C 
ATOM      2  C   UNL     1      35.746 -20.417 -19.602  0.00  0.00    +0.025 C 
ATOM      3  C   UNL     1      33.514 -20.634 -20.500  0.00  0.00    +0.001 C 
ATOM      4  C   UNL     1      36.088 -19.569 -20.655  0.00  0.00    +0.149 C 
ATOM      5  C   UNL     1      35.143 -19.253 -21.631  0.00  0.00    +0.052 C 
ATOM      6  C   UNL     1      33.855 -19.786 -21.554  0.00  0.00    +0.008 C 
ENDROOT
BRANCH   1  18
ATOM      7  O   UNL     1      38.889 -24.012 -12.001  0.00  0.00    -0.275 OA
ATOM      8  N   UNL     1      35.737 -23.695 -15.702  0.00  0.00    -0.290 N 
ATOM      9  N   UNL     1      37.691 -24.627 -13.891  0.00  0.00    -0.276 N 
ATOM     10  N   UNL     1      33.417 -23.530 -16.322  0.00  0.00    -0.229 NA
ATOM     11  C   UNL     1      35.564 -25.010 -15.069  0.00  0.00    +0.114 C 
ATOM     12  C   UNL     1      36.557 -22.725 -14.959  0.00  0.00    +0.114 C 
ATOM     13  C   UNL     1      36.919 -25.595 -14.673  0.00  0.00    +0.115 C 
ATOM     14  C   UNL     1      37.895 -23.349 -14.568  0.00  0.00    +0.115 C 
ATOM     15  C   UNL     1      34.732 -23.193 -16.536  0.00  0.00    +0.132 C 
ATOM     16  C   UNL     1      38.228 -24.845 -12.625  0.00  0.00    +0.226 C 
ATOM     17  C   UNL     1      35.091 -22.338 -17.595  0.00  0.00    +0.034 C 
ATOM     18  C   UNL     1      34.104 -21.830 -18.433  0.00  0.00    +0.004 C 
ATOM     19  C   UNL     1      37.963 -26.193 -12.004  0.00  0.00    +0.095 C 
ATOM     20  C   UNL     1      32.774 -22.171 -18.216  0.00  0.00    +0.021 C 
ATOM     21  C   UNL     1      32.485 -23.017 -17.157  0.00  0.00    +0.100 C 
ENDBRANCH   1  18
BRANCH   4  24
ATOM     22  O   UNL     1      38.023 -19.030 -21.787  0.00  0.00    -0.126 OA
ATOM     23  O   UNL     1      37.925 -18.623 -19.632  0.00  0.00    -0.126 OA
ATOM     24  N   UNL     1      37.413 -19.048 -20.694  0.00  0.00    +0.058 N 
ENDBRANCH   4  24
BRANCH   5  25
ATOM     25  S   UNL     1      35.516 -18.171 -23.009  0.00  0.00    -0.082 S 
BRANCH  25  26
ATOM     26  C   UNL     1      34.976 -16.597 -22.361  0.00  0.00    +0.063 C 
ATOM     27  C   UNL     1      34.779 -15.496 -23.195  0.00  0.00    +0.144 C 
ATOM     28  C   UNL     1      34.752 -16.479 -20.988  0.00  0.00    +0.010 C 
ATOM     29  C   UNL     1      34.358 -14.280 -22.659  0.00  0.00    +0.037 C 
ATOM     30  C   UNL     1      34.330 -15.261 -20.452  0.00  0.00    +0.001 C 
ATOM     31  C   UNL     1      34.134 -14.161 -21.287  0.00  0.00    +0.003 C 
BRANCH  27  32
ATOM     32  O   UNL     1      34.986 -15.574 -24.541  0.00  0.00    -0.475 OA
BRANCH  32  33
ATOM     33  C   UNL     1      33.833 -15.718 -25.367  0.00  0.00    +0.206 C 
ATOM     34  C   UNL     1      33.490 -14.375 -25.973  0.00  0.00    +0.051 C 
ENDBRANCH  32  33
ENDBRANCH  27  32
ENDBRANCH  25  26
ENDBRANCH   5  25
TORSDOF 6
ENDMDL
MODEL 2
REMARK VINA RESULT:     -10.2      6.608     11.137
REMARK  Name = 448317
REMARK  6 active torsions:
REMARK  status: ('A' for Active; 'I' for Inactive)
REMARK    1  A    between atoms: C_1  and  C_18
REMARK    2  A    between atoms: C_4  and  N_24
REMARK    3  A    between atoms: C_5  and  S_25
REMARK    4  A    between atoms: S_25  and  C_26
REMARK    5  A    between atoms: C_27  and  O_32
REMARK    6  A    between atoms: O_32  and  C_33
REMARK                            x       y       z     vdW  Elec       q    Type
REMARK                         _______ _______ _______ _____ _____    ______ ____
ROOT
ATOM      1  C   UNL     1      34.053 -11.163 -24.079  0.00  0.00    +0.002 C 
ATOM      2  C   UNL     1      33.062 -10.606 -23.271  0.00  0.00    +0.025 C 
ATOM      3  C   UNL     1      35.161 -10.400 -24.449  0.00  0.00    +0.001 C 
ATOM      4  C   UNL     1      33.179  -9.287 -22.831  0.00  0.00    +0.149 C 
ATOM      5  C   UNL     1      34.286  -8.524 -23.201  0.00  0.00    +0.052 C 
ATOM      6  C   UNL     1      35.279  -9.081 -24.009  0.00  0.00    +0.008 C 
ENDROOT
BRANCH   1  18
ATOM      7  O   UNL     1      34.376 -19.412 -19.904  0.00  0.00    -0.275 OA
ATOM      8  N   UNL     1      34.594 -15.950 -23.323  0.00  0.00    -0.290 N 
ATOM      9  N   UNL     1      35.232 -18.111 -21.624  0.00  0.00    -0.276 N 
ATOM     10  N   UNL     1      33.699 -15.172 -25.418  0.00  0.00    -0.229 NA
ATOM     11  C   UNL     1      35.108 -17.197 -23.906  0.00  0.00    +0.114 C 
ATOM     12  C   UNL     1      33.909 -16.078 -22.027  0.00  0.00    +0.114 C 
ATOM     13  C   UNL     1      35.958 -17.953 -22.886  0.00  0.00    +0.115 C 
ATOM     14  C   UNL     1      34.781 -16.850 -21.039  0.00  0.00    +0.115 C 
ATOM     15  C   UNL     1      34.198 -14.905 -24.166  0.00  0.00    +0.132 C 
ATOM     16  C   UNL     1      34.977 -19.316 -20.976  0.00  0.00    +0.226 C 
ATOM     17  C   UNL     1      34.321 -13.579 -23.710  0.00  0.00    +0.034 C 
ATOM     18  C   UNL     1      33.932 -12.529 -24.535  0.00  0.00    +0.004 C 
ATOM     19  C   UNL     1      35.477 -20.566 -21.656  0.00  0.00    +0.095 C 
ATOM     20  C   UNL     1      33.426 -12.800 -25.802  0.00  0.00    +0.021 C 
ATOM     21  C   UNL     1      33.331 -14.126 -26.193  0.00  0.00    +0.100 C 
ENDBRANCH   1  18
BRANCH   4  24
ATOM     22  O   UNL     1      31.148  -8.230 -22.555  0.00  0.00    -0.126 OA
ATOM     23  O   UNL     1      32.259  -8.844 -20.763  0.00  0.00    -0.126 OA
ATOM     24  N   UNL     1      32.143  -8.760 -22.008  0.00  0.00    +0.058 N 
ENDBRANCH   4  24
BRANCH   5  25
ATOM     25  S   UNL     1      34.499  -6.826 -22.672  0.00  0.00    -0.082 S 
BRANCH  25  26
ATOM     26  C   UNL     1      34.287  -5.959 -24.218  0.00  0.00    +0.063 C 
ATOM     27  C   UNL     1      33.056  -5.411 -24.582  0.00  0.00    +0.144 C 
ATOM     28  C   UNL     1      35.384  -5.836 -25.073  0.00  0.00    +0.010 C 
ATOM     29  C   UNL     1      32.923  -4.740 -25.798  0.00  0.00    +0.037 C 
ATOM     30  C   UNL     1      35.250  -5.164 -26.289  0.00  0.00    +0.001 C 
ATOM     31  C   UNL     1      34.019  -4.616 -26.652  0.00  0.00    +0.003 C 
BRANCH  27  32
ATOM     32  O   UNL     1      31.964  -5.510 -23.773  0.00  0.00    -0.475 OA
BRANCH  32  33
ATOM     33  C   UNL     1      31.629  -4.364 -22.993  0.00  0.00    +0.206 C 
ATOM     34  C   UNL     1      30.518  -4.729 -22.032  0.00  0.00    +0.051 C 
ENDBRANCH  32  33
ENDBRANCH  27  32
ENDBRANCH  25  26
ENDBRANCH   5  25
TORSDOF 6
ENDMDL
