MODEL 1
REMARK VINA RESULT:     -12.1      0.000      0.000
REMARK  Name = 9865515
REMARK  6 active torsions:
REMARK  status: ('A' for Active; 'I' for Inactive)
REMARK    1  A    between atoms: C_1  and  C_20
REMARK    2  A    between atoms: C_2  and  C_9
REMARK    3  A    between atoms: N_8  and  C_11
REMARK    4  A    between atoms: C_12  and  N_17
REMARK    5  A    between atoms: C_20  and  N_21
REMARK    6  A    between atoms: C_25  and  C_30
REMARK                            x       y       z     vdW  Elec       q    Type
REMARK                         _______ _______ _______ _____ _____    ______ ____
ROOT
ATOM      1  C   UNL     1      34.359 -21.985 -19.097  0.00  0.00    -0.002 C 
ATOM      2  C   UNL     1      35.028 -19.749 -20.624  0.00  0.00    +0.054 C 
ATOM      3  C   UNL     1      33.354 -21.199 -19.661  0.00  0.00    -0.002 C 
ATOM      4  C   UNL     1      35.699 -21.653 -19.296  0.00  0.00    -0.002 C 
ATOM      5  C   UNL     1      33.688 -20.081 -20.423  0.00  0.00    +0.004 C 
ATOM      6  C   UNL     1      36.033 -20.535 -20.060  0.00  0.00    +0.004 C 
ENDROOT
BRANCH   2   9
ATOM      7  O   UNL     1      36.449 -18.576 -22.045  0.00  0.00    -0.270 OA
ATOM      8  N   UNL     1      34.435 -17.544 -21.426  0.00  0.00    -0.279 N 
ATOM      9  C   UNL     1      35.377 -18.581 -21.418  0.00  0.00    +0.250 C 
ATOM     10  H   UNL     1      33.631 -17.691 -20.878  0.00  0.00    +0.155 HD
BRANCH   8  11
ATOM     11  C   UNL     1      34.490 -16.309 -22.120  0.00  0.00    +0.064 C 
ATOM     12  C   UNL     1      34.641 -16.287 -23.497  0.00  0.00    +0.055 C 
ATOM     13  C   UNL     1      34.389 -15.138 -21.387  0.00  0.00    +0.016 C 
ATOM     14  C   UNL     1      34.693 -15.060 -24.158  0.00  0.00    +0.015 C 
ATOM     15  C   UNL     1      34.441 -13.911 -22.048  0.00  0.00    +0.001 C 
ATOM     16  C   UNL     1      34.593 -13.872 -23.434  0.00  0.00    +0.001 C 
BRANCH  12  17
ATOM     17  N   UNL     1      34.743 -17.478 -24.250  0.00  0.00    -0.356 N 
ATOM     18  H   UNL     1      35.430 -18.146 -24.025  0.00  0.00    +0.142 HD
ATOM     19  H   UNL     1      34.126 -17.640 -25.001  0.00  0.00    +0.142 HD
ENDBRANCH  12  17
ENDBRANCH   8  11
ENDBRANCH   2   9
BRANCH   1  20
ATOM     20  C   UNL     1      34.002 -23.183 -18.281  0.00  0.00    +0.124 C 
BRANCH  20  21
ATOM     21  N   UNL     1      32.771 -22.963 -17.552  0.00  0.00    -0.264 N 
ATOM     22  N   UNL     1      33.695 -23.743 -15.540  0.00  0.00    -0.338 NA
ATOM     23  N   UNL     1      31.411 -22.984 -15.640  0.00  0.00    -0.170 NA
ATOM     24  C   UNL     1      32.622 -23.239 -16.203  0.00  0.00    +0.145 C 
ATOM     25  C   UNL     1      33.514 -24.000 -14.229  0.00  0.00    +0.147 C 
ATOM     26  C   UNL     1      32.327 -23.779 -13.561  0.00  0.00    +0.055 C 
ATOM     27  C   UNL     1      31.299 -23.265 -14.325  0.00  0.00    +0.114 C 
ATOM     28  H   UNL     1      32.000 -22.597 -18.041  0.00  0.00    +0.160 HD
BRANCH  25  30
ATOM     29  N   UNL     1      35.783 -25.028 -11.457  0.00  0.00    -0.242 NA
ATOM     30  C   UNL     1      34.667 -24.535 -13.543  0.00  0.00    +0.050 C 
ATOM     31  C   UNL     1      35.744 -25.059 -14.251  0.00  0.00    +0.006 C 
ATOM     32  C   UNL     1      34.735 -24.544 -12.159  0.00  0.00    +0.101 C 
ATOM     33  C   UNL     1      36.840 -25.566 -13.563  0.00  0.00    +0.021 C 
ATOM     34  C   UNL     1      36.811 -25.528 -12.178  0.00  0.00    +0.099 C 
ENDBRANCH  25  30
ENDBRANCH  20  21
ENDBRANCH   1  20
TORSDOF 6
ENDMDL
MODEL 2
REMARK VINA RESULT:     -12.0      0.756      1.751
REMARK  Name = 9865515
REMARK  6 active torsions:
REMARK  status: ('A' for Active; 'I' for Inactive)
REMARK    1  A    between atoms: C_1  and  C_20
REMARK    2  A    between atoms: C_2  and  C_9
REMARK    3  A    between atoms: N_8  and  C_11
REMARK    4  A    between atoms: C_12  and  N_17
REMARK    5  A    between atoms: C_20  and  N_21
REMARK    6  A    between atoms: C_25  and  C_30
REMARK                            x       y       z     vdW  Elec       q    Type
REMARK                         _______ _______ _______ _____ _____    ______ ____
ROOT
ATOM      1  C   UNL     1      34.503 -21.989 -19.123  0.00  0.00    -0.002 C 
ATOM      2  C   UNL     1      35.188 -19.774 -20.673  0.00  0.00    +0.054 C 
ATOM      3  C   UNL     1      35.845 -21.663 -19.318  0.00  0.00    -0.002 C 
ATOM      4  C   UNL     1      33.504 -21.209 -19.702  0.00  0.00    -0.002 C 
ATOM      5  C   UNL     1      36.188 -20.556 -20.094  0.00  0.00    +0.004 C 
ATOM      6  C   UNL     1      33.846 -20.101 -20.477  0.00  0.00    +0.004 C 
ENDROOT
BRANCH   2   9
ATOM      7  O   UNL     1      36.708 -18.516 -21.905  0.00  0.00    -0.270 OA
ATOM      8  N   UNL     1      34.508 -17.714 -21.748  0.00  0.00    -0.279 N 
ATOM      9  C   UNL     1      35.545 -18.620 -21.484  0.00  0.00    +0.250 C 
ATOM     10  H   UNL     1      33.638 -17.930 -21.344  0.00  0.00    +0.155 HD
BRANCH   8  11
ATOM     11  C   UNL     1      34.552 -16.526 -22.520  0.00  0.00    +0.064 C 
ATOM     12  C   UNL     1      34.469 -15.289 -21.904  0.00  0.00    +0.055 C 
ATOM     13  C   UNL     1      34.677 -16.641 -23.895  0.00  0.00    +0.016 C 
ATOM     14  C   UNL     1      34.514 -14.133 -22.685  0.00  0.00    +0.015 C 
ATOM     15  C   UNL     1      34.721 -15.486 -24.675  0.00  0.00    +0.001 C 
ATOM     16  C   UNL     1      34.639 -14.232 -24.070  0.00  0.00    +0.001 C 
BRANCH  12  17
ATOM     17  N   UNL     1      34.343 -15.165 -20.503  0.00  0.00    -0.356 N 
ATOM     18  H   UNL     1      34.636 -14.340 -20.052  0.00  0.00    +0.142 HD
ATOM     19  H   UNL     1      33.961 -15.904 -19.975  0.00  0.00    +0.142 HD
ENDBRANCH  12  17
ENDBRANCH   8  11
ENDBRANCH   2   9
BRANCH   1  20
ATOM     20  C   UNL     1      34.137 -23.173 -18.292  0.00  0.00    +0.124 C 
BRANCH  20  21
ATOM     21  N   UNL     1      32.894 -22.945 -17.586  0.00  0.00    -0.264 N 
ATOM     22  N   UNL     1      33.791 -23.677 -15.544  0.00  0.00    -0.338 NA
ATOM     23  N   UNL     1      31.504 -22.932 -15.696  0.00  0.00    -0.170 NA
ATOM     24  C   UNL     1      32.725 -23.192 -16.235  0.00  0.00    +0.145 C 
ATOM     25  C   UNL     1      33.590 -23.907 -14.231  0.00  0.00    +0.147 C 
ATOM     26  C   UNL     1      32.392 -23.678 -13.586  0.00  0.00    +0.055 C 
ATOM     27  C   UNL     1      31.373 -23.185 -14.376  0.00  0.00    +0.114 C 
ATOM     28  H   UNL     1      32.128 -22.593 -18.095  0.00  0.00    +0.160 HD
BRANCH  25  30
ATOM     29  N   UNL     1      36.865 -25.562 -13.576  0.00  0.00    -0.242 NA
ATOM     30  C   UNL     1      34.735 -24.421 -13.516  0.00  0.00    +0.050 C 
ATOM     31  C   UNL     1      34.834 -24.293 -12.134  0.00  0.00    +0.006 C 
ATOM     32  C   UNL     1      35.768 -25.057 -14.184  0.00  0.00    +0.101 C 
ATOM     33  C   UNL     1      35.947 -24.799 -11.473  0.00  0.00    +0.021 C 
ATOM     34  C   UNL     1      36.927 -25.419 -12.233  0.00  0.00    +0.099 C 
ENDBRANCH  25  30
ENDBRANCH  20  21
ENDBRANCH   1  20
TORSDOF 6
ENDMDL
MODEL 3
REMARK VINA RESULT:     -11.8      1.598      3.736
REMARK  Name = 9865515
REMARK  6 active torsions:
REMARK  status: ('A' for Active; 'I' for Inactive)
REMARK    1  A    between atoms: C_1  and  C_20
REMARK    2  A    between atoms: C_2  and  C_9
REMARK    3  A    between atoms: N_8  and  C_11
REMARK    4  A    between atoms: C_12  and  N_17
REMARK    5  A    between atoms: C_20  and  N_21
REMARK    6  A    between atoms: C_25  and  C_30
REMARK                            x       y       z     vdW  Elec       q    Type
REMARK                         _______ _______ _______ _____ _____    ______ ____
ROOT
ATOM      1  C   UNL     1      34.660 -21.838 -19.487  0.00  0.00    -0.002 C 
ATOM      2  C   UNL     1      35.209 -19.413 -20.751  0.00  0.00    +0.054 C 
ATOM      3  C   UNL     1      35.981 -21.428 -19.666  0.00  0.00    -0.002 C 
ATOM      4  C   UNL     1      33.613 -21.036 -19.940  0.00  0.00    -0.002 C 
ATOM      5  C   UNL     1      36.256 -20.216 -20.298  0.00  0.00    +0.004 C 
ATOM      6  C   UNL     1      33.888 -19.823 -20.572  0.00  0.00    +0.004 C 
ENDROOT
BRANCH   2   9
ATOM      7  O   UNL     1      36.606 -17.985 -21.944  0.00  0.00    -0.270 OA
ATOM      8  N   UNL     1      34.455 -17.211 -21.414  0.00  0.00    -0.279 N 
ATOM      9  C   UNL     1      35.495 -18.149 -21.412  0.00  0.00    +0.250 C 
ATOM     10  H   UNL     1      33.631 -17.484 -20.951  0.00  0.00    +0.155 HD
BRANCH   8  11
ATOM     11  C   UNL     1      34.435 -15.919 -21.997  0.00  0.00    +0.064 C 
ATOM     12  C   UNL     1      34.564 -15.768 -23.368  0.00  0.00    +0.055 C 
ATOM     13  C   UNL     1      34.286 -14.824 -21.161  0.00  0.00    +0.016 C 
ATOM     14  C   UNL     1      34.542 -14.486 -23.918  0.00  0.00    +0.015 C 
ATOM     15  C   UNL     1      34.265 -13.542 -21.711  0.00  0.00    +0.001 C 
ATOM     16  C   UNL     1      34.393 -13.373 -23.090  0.00  0.00    +0.001 C 
BRANCH  12  17
ATOM     17  N   UNL     1      34.714 -16.880 -24.225  0.00  0.00    -0.356 N 
ATOM     18  H   UNL     1      35.160 -17.695 -23.900  0.00  0.00    +0.142 HD
ATOM     19  H   UNL     1      34.373 -16.840 -25.148  0.00  0.00    +0.142 HD
ENDBRANCH  12  17
ENDBRANCH   8  11
ENDBRANCH   2   9
BRANCH   1  20
ATOM     20  C   UNL     1      34.366 -23.135 -18.809  0.00  0.00    +0.124 C 
BRANCH  20  21
ATOM     21  N   UNL     1      34.903 -23.149 -17.466  0.00  0.00    -0.264 N 
ATOM     22  N   UNL     1      32.769 -23.255 -16.495  0.00  0.00    -0.338 NA
ATOM     23  N   UNL     1      34.751 -23.216 -15.125  0.00  0.00    -0.170 NA
ATOM     24  C   UNL     1      34.117 -23.209 -16.328  0.00  0.00    +0.145 C 
ATOM     25  C   UNL     1      32.034 -23.313 -15.366  0.00  0.00    +0.147 C 
ATOM     26  C   UNL     1      32.578 -23.325 -14.097  0.00  0.00    +0.055 C 
ATOM     27  C   UNL     1      33.955 -23.275 -14.037  0.00  0.00    +0.114 C 
ATOM     28  H   UNL     1      35.881 -23.115 -17.356  0.00  0.00    +0.160 HD
BRANCH  25  30
ATOM     29  N   UNL     1      28.617 -22.366 -16.513  0.00  0.00    -0.242 NA
ATOM     30  C   UNL     1      30.605 -23.362 -15.565  0.00  0.00    +0.050 C 
ATOM     31  C   UNL     1      29.842 -24.396 -15.033  0.00  0.00    +0.006 C 
ATOM     32  C   UNL     1      29.950 -22.380 -16.291  0.00  0.00    +0.101 C 
ATOM     33  C   UNL     1      28.467 -24.416 -15.241  0.00  0.00    +0.021 C 
ATOM     34  C   UNL     1      27.908 -23.387 -15.981  0.00  0.00    +0.099 C 
ENDBRANCH  25  30
ENDBRANCH  20  21
ENDBRANCH   1  20
TORSDOF 6
ENDMDL
MODEL 4
REMARK VINA RESULT:     -11.8      1.669      3.221
REMARK  Name = 9865515
REMARK  6 active torsions:
REMARK  status: ('A' for Active; 'I' for Inactive)
REMARK    1  A    between atoms: C_1  and  C_20
REMARK    2  A    between atoms: C_2  and  C_9
REMARK    3  A    between atoms: N_8  and  C_11
REMARK    4  A    between atoms: C_12  and  N_17
REMARK    5  A    between atoms: C_20  and  N_21
REMARK    6  A    between atoms: C_25  and  C_30
REMARK                            x       y       z     vdW  Elec       q    Type
REMARK                         _______ _______ _______ _____ _____    ______ ____
ROOT
ATOM      1  C   UNL     1      35.061 -21.198 -19.572  0.00  0.00    -0.002 C 
ATOM      2  C   UNL     1      35.283 -18.970 -21.235  0.00  0.00    +0.054 C 
ATOM      3  C   UNL     1      36.318 -20.672 -19.869  0.00  0.00    -0.002 C 
ATOM      4  C   UNL     1      33.915 -20.611 -20.107  0.00  0.00    -0.002 C 
ATOM      5  C   UNL     1      36.429 -19.558 -20.701  0.00  0.00    +0.004 C 
ATOM      6  C   UNL     1      34.026 -19.496 -20.938  0.00  0.00    +0.004 C 
ENDROOT
BRANCH   2   9
ATOM      7  O   UNL     1      36.322 -17.768 -22.935  0.00  0.00    -0.270 OA
ATOM      8  N   UNL     1      34.417 -16.823 -21.943  0.00  0.00    -0.279 N 
ATOM      9  C   UNL     1      35.399 -17.810 -22.105  0.00  0.00    +0.250 C 
ATOM     10  H   UNL     1      33.748 -16.996 -21.241  0.00  0.00    +0.155 HD
BRANCH   8  11
ATOM     11  C   UNL     1      34.261 -15.609 -22.657  0.00  0.00    +0.064 C 
ATOM     12  C   UNL     1      34.303 -14.395 -21.990  0.00  0.00    +0.055 C 
ATOM     13  C   UNL     1      34.067 -15.673 -24.027  0.00  0.00    +0.016 C 
ATOM     14  C   UNL     1      34.147 -13.213 -22.714  0.00  0.00    +0.015 C 
ATOM     15  C   UNL     1      33.911 -14.491 -24.751  0.00  0.00    +0.001 C 
ATOM     16  C   UNL     1      33.950 -13.261 -24.094  0.00  0.00    +0.001 C 
BRANCH  12  17
ATOM     17  N   UNL     1      34.502 -14.324 -20.594  0.00  0.00    -0.356 N 
ATOM     18  H   UNL     1      35.277 -13.837 -20.231  0.00  0.00    +0.142 HD
ATOM     19  H   UNL     1      33.864 -14.759 -19.982  0.00  0.00    +0.142 HD
ENDBRANCH  12  17
ENDBRANCH   8  11
ENDBRANCH   2   9
BRANCH   1  20
ATOM     20  C   UNL     1      34.941 -22.389 -18.681  0.00  0.00    +0.124 C 
BRANCH  20  21
ATOM     21  N   UNL     1      35.996 -22.401 -17.691  0.00  0.00    -0.264 N 
ATOM     22  N   UNL     1      34.542 -23.109 -15.990  0.00  0.00    -0.338 NA
ATOM     23  N   UNL     1      36.878 -22.725 -15.541  0.00  0.00    -0.170 NA
ATOM     24  C   UNL     1      35.799 -22.756 -16.367  0.00  0.00    +0.145 C 
ATOM     25  C   UNL     1      34.386 -23.448 -14.694  0.00  0.00    +0.147 C 
ATOM     26  C   UNL     1      35.414 -23.450 -13.773  0.00  0.00    +0.055 C 
ATOM     27  C   UNL     1      36.651 -23.076 -14.257  0.00  0.00    +0.114 C 
ATOM     28  H   UNL     1      36.903 -22.144 -17.974  0.00  0.00    +0.160 HD
BRANCH  25  30
ATOM     29  N   UNL     1      31.587 -25.115 -12.884  0.00  0.00    -0.242 NA
ATOM     30  C   UNL     1      33.044 -23.820 -14.314  0.00  0.00    +0.050 C 
ATOM     31  C   UNL     1      31.939 -23.283 -14.966  0.00  0.00    +0.006 C 
ATOM     32  C   UNL     1      32.816 -24.724 -13.288  0.00  0.00    +0.101 C 
ATOM     33  C   UNL     1      30.658 -23.661 -14.578  0.00  0.00    +0.021 C 
ATOM     34  C   UNL     1      30.537 -24.572 -13.541  0.00  0.00    +0.099 C 
ENDBRANCH  25  30
ENDBRANCH  20  21
ENDBRANCH   1  20
TORSDOF 6
ENDMDL
MODEL 5
REMARK VINA RESULT:     -11.7      4.887      8.733
REMARK  Name = 9865515
REMARK  6 active torsions:
REMARK  status: ('A' for Active; 'I' for Inactive)
REMARK    1  A    between atoms: C_1  and  C_20
REMARK    2  A    between atoms: C_2  and  C_9
REMARK    3  A    between atoms: N_8  and  C_11
REMARK    4  A    between atoms: C_12  and  N_17
REMARK    5  A    between atoms: C_20  and  N_21
REMARK    6  A    between atoms: C_25  and  C_30
REMARK                            x       y       z     vdW  Elec       q    Type
REMARK                         _______ _______ _______ _____ _____    ______ ____
ROOT
ATOM      1  C   UNL     1      33.520 -14.308 -20.853  0.00  0.00    -0.002 C 
ATOM      2  C   UNL     1      32.211 -11.886 -21.299  0.00  0.00    +0.054 C 
ATOM      3  C   UNL     1      32.649 -13.798 -19.890  0.00  0.00    -0.002 C 
ATOM      4  C   UNL     1      33.737 -13.607 -22.038  0.00  0.00    -0.002 C 
ATOM      5  C   UNL     1      31.995 -12.587 -20.112  0.00  0.00    +0.004 C 
ATOM      6  C   UNL     1      33.082 -12.396 -22.262  0.00  0.00    +0.004 C 
ENDROOT
BRANCH   2   9
ATOM      7  O   UNL     1      30.297 -10.618 -21.676  0.00  0.00    -0.270 OA
ATOM      8  N   UNL     1      32.345  -9.482 -21.544  0.00  0.00    -0.279 N 
ATOM      9  C   UNL     1      31.530 -10.622 -21.530  0.00  0.00    +0.250 C 
ATOM     10  H   UNL     1      33.308  -9.643 -21.415  0.00  0.00    +0.155 HD
BRANCH   8  11
ATOM     11  C   UNL     1      31.965  -8.128 -21.720  0.00  0.00    +0.064 C 
ATOM     12  C   UNL     1      32.323  -7.174 -20.782  0.00  0.00    +0.055 C 
ATOM     13  C   UNL     1      31.229  -7.793 -22.845  0.00  0.00    +0.016 C 
ATOM     14  C   UNL     1      31.937  -5.847 -20.976  0.00  0.00    +0.015 C 
ATOM     15  C   UNL     1      30.843  -6.468 -23.039  0.00  0.00    +0.001 C 
ATOM     16  C   UNL     1      31.196  -5.494 -22.104  0.00  0.00    +0.001 C 
BRANCH  12  17
ATOM     17  N   UNL     1      33.074  -7.508 -19.633  0.00  0.00    -0.356 N 
ATOM     18  H   UNL     1      33.317  -6.810 -18.983  0.00  0.00    +0.142 HD
ATOM     19  H   UNL     1      33.353  -8.441 -19.482  0.00  0.00    +0.142 HD
ENDBRANCH  12  17
ENDBRANCH   8  11
ENDBRANCH   2   9
BRANCH   1  20
ATOM     20  C   UNL     1      34.220 -15.605 -20.615  0.00  0.00    +0.124 C 
BRANCH  20  21
ATOM     21  N   UNL     1      34.783 -16.121 -21.845  0.00  0.00    -0.264 N 
ATOM     22  N   UNL     1      34.664 -18.342 -21.096  0.00  0.00    -0.338 NA
ATOM     23  N   UNL     1      35.536 -17.817 -23.280  0.00  0.00    -0.170 NA
ATOM     24  C   UNL     1      35.001 -17.467 -22.080  0.00  0.00    +0.145 C 
ATOM     25  C   UNL     1      34.890 -19.645 -21.360  0.00  0.00    +0.147 C 
ATOM     26  C   UNL     1      35.429 -20.106 -22.544  0.00  0.00    +0.055 C 
ATOM     27  C   UNL     1      35.736 -19.137 -23.477  0.00  0.00    +0.114 C 
ATOM     28  H   UNL     1      35.023 -15.479 -22.551  0.00  0.00    +0.160 HD
BRANCH  25  30
ATOM     29  N   UNL     1      32.790 -21.593 -18.975  0.00  0.00    -0.242 NA
ATOM     30  C   UNL     1      34.525 -20.557 -20.302  0.00  0.00    +0.050 C 
ATOM     31  C   UNL     1      35.495 -21.266 -19.599  0.00  0.00    +0.006 C 
ATOM     32  C   UNL     1      33.199 -20.756 -19.954  0.00  0.00    +0.101 C 
ATOM     33  C   UNL     1      35.114 -22.136 -18.585  0.00  0.00    +0.021 C 
ATOM     34  C   UNL     1      33.760 -22.263 -18.314  0.00  0.00    +0.099 C 
ENDBRANCH  25  30
ENDBRANCH  20  21
ENDBRANCH   1  20
TORSDOF 6
ENDMDL
MODEL 6
REMARK VINA RESULT:     -11.4      4.904     13.320
REMARK  Name = 9865515
REMARK  6 active torsions:
REMARK  status: ('A' for Active; 'I' for Inactive)
REMARK    1  A    between atoms: C_1  and  C_20
REMARK    2  A    between atoms: C_2  and  C_9
REMARK    3  A    between atoms: N_8  and  C_11
REMARK    4  A    between atoms: C_12  and  N_17
REMARK    5  A    between atoms: C_20  and  N_21
REMARK    6  A    between atoms: C_25  and  C_30
REMARK                            x       y       z     vdW  Elec       q    Type
REMARK                         _______ _______ _______ _____ _____    ______ ____
ROOT
ATOM      1  C   UNL     1      33.941 -13.771 -23.093  0.00  0.00    -0.002 C 
ATOM      2  C   UNL     1      34.747 -16.388 -22.561  0.00  0.00    +0.054 C 
ATOM      3  C   UNL     1      34.139 -14.186 -21.776  0.00  0.00    -0.002 C 
ATOM      4  C   UNL     1      34.145 -14.665 -24.143  0.00  0.00    -0.002 C 
ATOM      5  C   UNL     1      34.542 -15.494 -21.510  0.00  0.00    +0.004 C 
ATOM      6  C   UNL     1      34.548 -15.973 -23.877  0.00  0.00    +0.004 C 
ENDROOT
BRANCH   2   9
ATOM      7  O   UNL     1      35.828 -18.366 -23.135  0.00  0.00    -0.270 OA
ATOM      8  N   UNL     1      34.792 -18.264 -21.032  0.00  0.00    -0.279 N 
ATOM      9  C   UNL     1      35.165 -17.754 -22.283  0.00  0.00    +0.250 C 
ATOM     10  H   UNL     1      34.265 -17.659 -20.462  0.00  0.00    +0.155 HD
BRANCH   8  11
ATOM     11  C   UNL     1      35.075 -19.539 -20.481  0.00  0.00    +0.064 C 
ATOM     12  C   UNL     1      36.382 -19.906 -20.203  0.00  0.00    +0.055 C 
ATOM     13  C   UNL     1      34.017 -20.397 -20.233  0.00  0.00    +0.016 C 
ATOM     14  C   UNL     1      36.636 -21.166 -19.662  0.00  0.00    +0.015 C 
ATOM     15  C   UNL     1      34.271 -21.657 -19.691  0.00  0.00    +0.001 C 
ATOM     16  C   UNL     1      35.581 -22.042 -19.406  0.00  0.00    +0.001 C 
BRANCH  12  17
ATOM     17  N   UNL     1      37.465 -19.035 -20.453  0.00  0.00    -0.356 N 
ATOM     18  H   UNL     1      38.096 -18.814 -19.731  0.00  0.00    +0.142 HD
ATOM     19  H   UNL     1      37.590 -18.649 -21.351  0.00  0.00    +0.142 HD
ENDBRANCH  12  17
ENDBRANCH   8  11
ENDBRANCH   2   9
BRANCH   1  20
ATOM     20  C   UNL     1      33.511 -12.371 -23.378  0.00  0.00    +0.124 C 
BRANCH  20  21
ATOM     21  N   UNL     1      34.557 -11.638 -24.058  0.00  0.00    -0.264 N 
ATOM     22  N   UNL     1      33.772  -9.571 -23.273  0.00  0.00    -0.338 NA
ATOM     23  N   UNL     1      35.715  -9.698 -24.691  0.00  0.00    -0.170 NA
ATOM     24  C   UNL     1      34.685 -10.260 -24.005  0.00  0.00    +0.145 C 
ATOM     25  C   UNL     1      33.926  -8.231 -23.243  0.00  0.00    +0.147 C 
ATOM     26  C   UNL     1      34.936  -7.561 -23.903  0.00  0.00    +0.055 C 
ATOM     27  C   UNL     1      35.810  -8.353 -24.618  0.00  0.00    +0.114 C 
ATOM     28  H   UNL     1      35.214 -12.147 -24.586  0.00  0.00    +0.160 HD
BRANCH  25  30
ATOM     29  N   UNL     1      30.868  -6.286 -22.377  0.00  0.00    -0.242 NA
ATOM     30  C   UNL     1      32.946  -7.517 -22.460  0.00  0.00    +0.050 C 
ATOM     31  C   UNL     1      33.101  -7.361 -21.086  0.00  0.00    +0.006 C 
ATOM     32  C   UNL     1      31.821  -6.966 -23.051  0.00  0.00    +0.101 C 
ATOM     33  C   UNL     1      32.141  -6.668 -20.358  0.00  0.00    +0.021 C 
ATOM     34  C   UNL     1      31.052  -6.154 -21.044  0.00  0.00    +0.099 C 
ENDBRANCH  25  30
ENDBRANCH  20  21
ENDBRANCH   1  20
TORSDOF 6
ENDMDL
MODEL 7
REMARK VINA RESULT:     -11.4      4.995     13.340
REMARK  Name = 9865515
REMARK  6 active torsions:
REMARK  status: ('A' for Active; 'I' for Inactive)
REMARK    1  A    between atoms: C_1  and  C_20
REMARK    2  A    between atoms: C_2  and  C_9
REMARK    3  A    between atoms: N_8  and  C_11
REMARK    4  A    between atoms: C_12  and  N_17
REMARK    5  A    between atoms: C_20  and  N_21
REMARK    6  A    between atoms: C_25  and  C_30
REMARK                            x       y       z     vdW  Elec       q    Type
REMARK                         _______ _______ _______ _____ _____    ______ ____
ROOT
ATOM      1  C   UNL     1      33.925 -13.667 -23.006  0.00  0.00    -0.002 C 
ATOM      2  C   UNL     1      34.741 -16.291 -22.529  0.00  0.00    +0.054 C 
ATOM      3  C   UNL     1      34.141 -14.104 -21.699  0.00  0.00    -0.002 C 
ATOM      4  C   UNL     1      34.117 -14.543 -24.075  0.00  0.00    -0.002 C 
ATOM      5  C   UNL     1      34.548 -15.416 -21.460  0.00  0.00    +0.004 C 
ATOM      6  C   UNL     1      34.525 -15.855 -23.836  0.00  0.00    +0.004 C 
ENDROOT
BRANCH   2   9
ATOM      7  O   UNL     1      35.805 -18.263 -23.155  0.00  0.00    -0.270 OA
ATOM      8  N   UNL     1      34.819 -18.188 -21.027  0.00  0.00    -0.279 N 
ATOM      9  C   UNL     1      35.163 -17.661 -22.279  0.00  0.00    +0.250 C 
ATOM     10  H   UNL     1      34.306 -17.591 -20.437  0.00  0.00    +0.155 HD
BRANCH   8  11
ATOM     11  C   UNL     1      35.114 -19.471 -20.500  0.00  0.00    +0.064 C 
ATOM     12  C   UNL     1      36.423 -19.829 -20.225  0.00  0.00    +0.055 C 
ATOM     13  C   UNL     1      34.063 -20.345 -20.273  0.00  0.00    +0.016 C 
ATOM     14  C   UNL     1      36.689 -21.098 -19.707  0.00  0.00    +0.015 C 
ATOM     15  C   UNL     1      34.329 -21.612 -19.755  0.00  0.00    +0.001 C 
ATOM     16  C   UNL     1      35.642 -21.989 -19.473  0.00  0.00    +0.001 C 
BRANCH  12  17
ATOM     17  N   UNL     1      37.498 -18.943 -20.454  0.00  0.00    -0.356 N 
ATOM     18  H   UNL     1      38.198 -18.830 -19.771  0.00  0.00    +0.142 HD
ATOM     19  H   UNL     1      37.549 -18.437 -21.298  0.00  0.00    +0.142 HD
ENDBRANCH  12  17
ENDBRANCH   8  11
ENDBRANCH   2   9
BRANCH   1  20
ATOM     20  C   UNL     1      33.491 -12.263 -23.263  0.00  0.00    +0.124 C 
BRANCH  20  21
ATOM     21  N   UNL     1      32.732 -11.744 -22.145  0.00  0.00    -0.264 N 
ATOM     22  N   UNL     1      33.124  -9.516 -22.770  0.00  0.00    -0.338 NA
ATOM     23  N   UNL     1      31.816 -10.041 -20.816  0.00  0.00    -0.170 NA
ATOM     24  C   UNL     1      32.552 -10.393 -21.903  0.00  0.00    +0.145 C 
ATOM     25  C   UNL     1      32.928  -8.209 -22.505  0.00  0.00    +0.147 C 
ATOM     26  C   UNL     1      32.199  -7.745 -21.429  0.00  0.00    +0.055 C 
ATOM     27  C   UNL     1      31.660  -8.716 -20.610  0.00  0.00    +0.114 C 
ATOM     28  H   UNL     1      32.322 -12.387 -21.523  0.00  0.00    +0.160 HD
BRANCH  25  30
ATOM     29  N   UNL     1      33.289  -5.547 -25.089  0.00  0.00    -0.242 NA
ATOM     30  C   UNL     1      33.543  -7.294 -23.438  0.00  0.00    +0.050 C 
ATOM     31  C   UNL     1      34.924  -7.257 -23.601  0.00  0.00    +0.006 C 
ATOM     32  C   UNL     1      32.777  -6.426 -24.199  0.00  0.00    +0.101 C 
ATOM     33  C   UNL     1      35.488  -6.366 -24.508  0.00  0.00    +0.021 C 
ATOM     34  C   UNL     1      34.634  -5.540 -25.221  0.00  0.00    +0.099 C 
ENDBRANCH  25  30
ENDBRANCH  20  21
ENDBRANCH   1  20
TORSDOF 6
ENDMDL
MODEL 8
REMARK VINA RESULT:     -11.3      2.391     10.646
REMARK  Name = 9865515
REMARK  6 active torsions:
REMARK  status: ('A' for Active; 'I' for Inactive)
REMARK    1  A    between atoms: C_1  and  C_20
REMARK    2  A    between atoms: C_2  and  C_9
REMARK    3  A    between atoms: N_8  and  C_11
REMARK    4  A    between atoms: C_12  and  N_17
REMARK    5  A    between atoms: C_20  and  N_21
REMARK    6  A    between atoms: C_25  and  C_30
REMARK                            x       y       z     vdW  Elec       q    Type
REMARK                         _______ _______ _______ _____ _____    ______ ____
ROOT
ATOM      1  C   UNL     1      35.750 -19.288 -20.849  0.00  0.00    -0.002 C 
ATOM      2  C   UNL     1      34.436 -21.340 -19.492  0.00  0.00    +0.054 C 
ATOM      3  C   UNL     1      34.357 -19.366 -20.881  0.00  0.00    -0.002 C 
ATOM      4  C   UNL     1      36.485 -20.236 -20.138  0.00  0.00    -0.002 C 
ATOM      5  C   UNL     1      33.700 -20.392 -20.203  0.00  0.00    +0.004 C 
ATOM      6  C   UNL     1      35.828 -21.263 -19.460  0.00  0.00    +0.004 C 
ENDROOT
BRANCH   2   9
ATOM      7  O   UNL     1      33.664 -23.529 -19.323  0.00  0.00    -0.270 OA
ATOM      8  N   UNL     1      33.254 -22.090 -17.516  0.00  0.00    -0.279 N 
ATOM      9  C   UNL     1      33.750 -22.413 -18.787  0.00  0.00    +0.250 C 
ATOM     10  H   UNL     1      33.398 -21.161 -17.224  0.00  0.00    +0.155 HD
BRANCH   8  11
ATOM     11  C   UNL     1      32.573 -22.926 -16.598  0.00  0.00    +0.064 C 
ATOM     12  C   UNL     1      33.284 -23.770 -15.760  0.00  0.00    +0.055 C 
ATOM     13  C   UNL     1      31.189 -22.876 -16.565  0.00  0.00    +0.016 C 
ATOM     14  C   UNL     1      32.591 -24.585 -14.865  0.00  0.00    +0.015 C 
ATOM     15  C   UNL     1      30.496 -23.690 -15.670  0.00  0.00    +0.001 C 
ATOM     16  C   UNL     1      31.197 -24.546 -14.819  0.00  0.00    +0.001 C 
BRANCH  12  17
ATOM     17  N   UNL     1      34.694 -23.826 -15.788  0.00  0.00    -0.356 N 
ATOM     18  H   UNL     1      35.161 -24.074 -16.619  0.00  0.00    +0.142 HD
ATOM     19  H   UNL     1      35.212 -23.616 -14.977  0.00  0.00    +0.142 HD
ENDBRANCH  12  17
ENDBRANCH   8  11
ENDBRANCH   2   9
BRANCH   1  20
ATOM     20  C   UNL     1      36.453 -18.189 -21.573  0.00  0.00    +0.124 C 
BRANCH  20  21
ATOM     21  N   UNL     1      36.097 -18.183 -22.975  0.00  0.00    -0.264 N 
ATOM     22  N   UNL     1      34.766 -16.264 -22.742  0.00  0.00    -0.338 NA
ATOM     23  N   UNL     1      35.013 -17.346 -24.880  0.00  0.00    -0.170 NA
ATOM     24  C   UNL     1      35.267 -17.235 -23.549  0.00  0.00    +0.145 C 
ATOM     25  C   UNL     1      33.962 -15.358 -23.334  0.00  0.00    +0.147 C 
ATOM     26  C   UNL     1      33.640 -15.379 -24.676  0.00  0.00    +0.055 C 
ATOM     27  C   UNL     1      34.200 -16.406 -25.408  0.00  0.00    +0.114 C 
ATOM     28  H   UNL     1      36.464 -18.891 -23.552  0.00  0.00    +0.160 HD
BRANCH  25  30
ATOM     29  N   UNL     1      32.771 -12.034 -22.143  0.00  0.00    -0.242 NA
ATOM     30  C   UNL     1      33.441 -14.334 -22.459  0.00  0.00    +0.050 C 
ATOM     31  C   UNL     1      33.112 -14.619 -21.138  0.00  0.00    +0.006 C 
ATOM     32  C   UNL     1      33.252 -13.037 -22.909  0.00  0.00    +0.101 C 
ATOM     33  C   UNL     1      32.614 -13.612 -20.319  0.00  0.00    +0.021 C 
ATOM     34  C   UNL     1      32.463 -12.348 -20.864  0.00  0.00    +0.099 C 
ENDBRANCH  25  30
ENDBRANCH  20  21
ENDBRANCH   1  20
TORSDOF 6
ENDMDL
MODEL 9
REMARK VINA RESULT:     -10.8      2.312     10.743
REMARK  Name = 9865515
REMARK  6 active torsions:
REMARK  status: ('A' for Active; 'I' for Inactive)
REMARK    1  A    between atoms: C_1  and  C_20
REMARK    2  A    between atoms: C_2  and  C_9
REMARK    3  A    between atoms: N_8  and  C_11
REMARK    4  A    between atoms: C_12  and  N_17
REMARK    5  A    between atoms: C_20  and  N_21
REMARK    6  A    between atoms: C_25  and  C_30
REMARK                            x       y       z     vdW  Elec       q    Type
REMARK                         _______ _______ _______ _____ _____    ______ ____
ROOT
ATOM      1  C   UNL     1      35.754 -19.543 -20.602  0.00  0.00    -0.002 C 
ATOM      2  C   UNL     1      34.535 -21.604 -19.172  0.00  0.00    +0.054 C 
ATOM      3  C   UNL     1      36.530 -20.424 -19.851  0.00  0.00    -0.002 C 
ATOM      4  C   UNL     1      34.367 -19.691 -20.639  0.00  0.00    -0.002 C 
ATOM      5  C   UNL     1      35.921 -21.454 -19.135  0.00  0.00    +0.004 C 
ATOM      6  C   UNL     1      33.758 -20.722 -19.923  0.00  0.00    +0.004 C 
ENDROOT
BRANCH   2   9
ATOM      7  O   UNL     1      33.673 -23.757 -18.992  0.00  0.00    -0.270 OA
ATOM      8  N   UNL     1      33.612 -22.398 -17.080  0.00  0.00    -0.279 N 
ATOM      9  C   UNL     1      33.899 -22.677 -18.423  0.00  0.00    +0.250 C 
ATOM     10  H   UNL     1      33.849 -21.495 -16.770  0.00  0.00    +0.155 HD
BRANCH   8  11
ATOM     11  C   UNL     1      33.024 -23.249 -16.110  0.00  0.00    +0.064 C 
ATOM     12  C   UNL     1      31.646 -23.321 -15.988  0.00  0.00    +0.055 C 
ATOM     13  C   UNL     1      33.861 -23.995 -15.297  0.00  0.00    +0.016 C 
ATOM     14  C   UNL     1      31.090 -24.165 -15.025  0.00  0.00    +0.015 C 
ATOM     15  C   UNL     1      33.306 -24.838 -14.335  0.00  0.00    +0.001 C 
ATOM     16  C   UNL     1      31.920 -24.923 -14.199  0.00  0.00    +0.001 C 
BRANCH  12  17
ATOM     17  N   UNL     1      30.787 -22.564 -16.815  0.00  0.00    -0.356 N 
ATOM     18  H   UNL     1      30.206 -21.875 -16.421  0.00  0.00    +0.142 HD
ATOM     19  H   UNL     1      30.771 -22.725 -17.786  0.00  0.00    +0.142 HD
ENDBRANCH  12  17
ENDBRANCH   8  11
ENDBRANCH   2   9
BRANCH   1  20
ATOM     20  C   UNL     1      36.405 -18.441 -21.370  0.00  0.00    +0.124 C 
BRANCH  20  21
ATOM     21  N   UNL     1      36.073 -18.524 -22.776  0.00  0.00    -0.264 N 
ATOM     22  N   UNL     1      34.862 -16.515 -22.722  0.00  0.00    -0.338 NA
ATOM     23  N   UNL     1      35.077 -17.775 -24.764  0.00  0.00    -0.170 NA
ATOM     24  C   UNL     1      35.314 -17.576 -23.440  0.00  0.00    +0.145 C 
ATOM     25  C   UNL     1      34.126 -15.611 -23.401  0.00  0.00    +0.147 C 
ATOM     26  C   UNL     1      33.827 -15.719 -24.744  0.00  0.00    +0.055 C 
ATOM     27  C   UNL     1      34.334 -16.833 -25.381  0.00  0.00    +0.114 C 
ATOM     28  H   UNL     1      36.406 -19.296 -23.287  0.00  0.00    +0.160 HD
BRANCH  25  30
ATOM     29  N   UNL     1      33.152 -12.131 -22.490  0.00  0.00    -0.242 NA
ATOM     30  C   UNL     1      33.656 -14.491 -22.620  0.00  0.00    +0.050 C 
ATOM     31  C   UNL     1      33.263 -14.655 -21.295  0.00  0.00    +0.006 C 
ATOM     32  C   UNL     1      33.581 -13.220 -23.165  0.00  0.00    +0.101 C 
ATOM     33  C   UNL     1      32.815 -13.558 -20.568  0.00  0.00    +0.021 C 
ATOM     34  C   UNL     1      32.778 -12.328 -21.206  0.00  0.00    +0.099 C 
ENDBRANCH  25  30
ENDBRANCH  20  21
ENDBRANCH   1  20
TORSDOF 6
ENDMDL
