MODEL 1
REMARK VINA RESULT:     -13.0      0.000      0.000
REMARK  Name = 11560856
REMARK  5 active torsions:
REMARK  status: ('A' for Active; 'I' for Inactive)
REMARK    1  A    between atoms: C_2  and  O_24
REMARK    2  A    between atoms: C_3  and  N_10
REMARK    3  A    between atoms: C_12  and  C_16
REMARK    4  A    between atoms: C_16  and  C_18
REMARK    5  A    between atoms: O_24  and  C_28
REMARK                            x       y       z     vdW  Elec       q    Type
REMARK                         _______ _______ _______ _____ _____    ______ ____
ROOT
ATOM      1  F   UNL     1      33.648 -11.862 -23.569  0.00  0.00    -0.201 F 
ATOM      2  C   UNL     1      32.273 -12.244 -21.673  0.00  0.00    +0.173 C 
ATOM      3  C   UNL     1      33.691 -14.560 -21.131  0.00  0.00    +0.054 C 
ATOM      4  C   UNL     1      33.317 -12.610 -22.507  0.00  0.00    +0.176 C 
ATOM      5  C   UNL     1      31.922 -13.010 -20.575  0.00  0.00    +0.041 C 
ATOM      6  C   UNL     1      34.032 -13.776 -22.233  0.00  0.00    +0.047 C 
ATOM      7  C   UNL     1      32.637 -14.177 -20.302  0.00  0.00    +0.018 C 
ENDROOT
BRANCH   3  10
ATOM      8  O   UNL     1      36.299 -18.999 -22.890  0.00  0.00    -0.274 OA
ATOM      9  O   UNL     1      34.853 -16.611 -22.991  0.00  0.00    -0.252 OA
ATOM     10  N   UNL     1      34.407 -15.725 -20.856  0.00  0.00    -0.268 N 
ATOM     11  N   UNL     1      35.594 -17.705 -21.081  0.00  0.00    -0.239 N 
ATOM     12  C   UNL     1      36.228 -18.797 -21.680  0.00  0.00    +0.234 C 
ATOM     13  C   UNL     1      34.937 -16.664 -21.766  0.00  0.00    +0.310 C 
ATOM     14  H   UNL     1      34.563 -15.918 -19.904  0.00  0.00    +0.156 HD
ATOM     15  H   UNL     1      35.608 -17.659 -20.098  0.00  0.00    +0.159 HD
BRANCH  12  16
ATOM     16  C   UNL     1      36.831 -19.722 -20.640  0.00  0.00    +0.112 C 
BRANCH  16  18
ATOM     17  F   UNL     1      33.015 -22.904 -18.012  0.00  0.00    -0.204 F 
ATOM     18  C   UNL     1      35.808 -20.576 -19.937  0.00  0.00    -0.013 C 
ATOM     19  C   UNL     1      36.223 -21.478 -18.967  0.00  0.00    -0.001 C 
ATOM     20  C   UNL     1      34.467 -20.445 -20.267  0.00  0.00    -0.001 C 
ATOM     21  C   UNL     1      35.275 -22.268 -18.315  0.00  0.00    +0.029 C 
ATOM     22  C   UNL     1      33.520 -21.235 -19.615  0.00  0.00    +0.029 C 
ATOM     23  C   UNL     1      33.924 -22.145 -18.639  0.00  0.00    +0.140 C 
ENDBRANCH  16  18
ENDBRANCH  12  16
ENDBRANCH   3  10
BRANCH   2  24
ATOM     24  O   UNL     1      31.566 -11.089 -21.944  0.00  0.00    -0.451 OA
BRANCH  24  28
ATOM     25  N   UNL     1      33.496  -6.852 -21.900  0.00  0.00    -0.297 N 
ATOM     26  N   UNL     1      32.631  -7.619 -19.786  0.00  0.00    -0.229 NA
ATOM     27  C   UNL     1      32.564  -8.881 -21.887  0.00  0.00    +0.067 C 
ATOM     28  C   UNL     1      31.918  -9.959 -21.260  0.00  0.00    +0.150 C 
ATOM     29  C   UNL     1      32.877  -7.776 -21.100  0.00  0.00    +0.135 C 
ATOM     30  C   UNL     1      33.017  -8.592 -23.201  0.00  0.00    +0.022 C 
ATOM     31  C   UNL     1      33.586  -7.336 -23.179  0.00  0.00    +0.063 C 
ATOM     32  C   UNL     1      31.637  -9.847 -19.899  0.00  0.00    +0.058 C 
ATOM     33  C   UNL     1      32.009  -8.686 -19.234  0.00  0.00    +0.103 C 
ATOM     34  H   UNL     1      33.825  -5.973 -21.601  0.00  0.00    +0.154 HD
ENDBRANCH  24  28
ENDBRANCH   2  24
TORSDOF 5
ENDMDL
MODEL 2
REMARK VINA RESULT:     -12.8      4.657      7.565
REMARK  Name = 11560856
REMARK  5 active torsions:
REMARK  status: ('A' for Active; 'I' for Inactive)
REMARK    1  A    between atoms: C_2  and  O_24
REMARK    2  A    between atoms: C_3  and  N_10
REMARK    3  A    between atoms: C_12  and  C_16
REMARK    4  A    between atoms: C_16  and  C_18
REMARK    5  A    between atoms: O_24  and  C_28
REMARK                            x       y       z     vdW  Elec       q    Type
REMARK                         _______ _______ _______ _____ _____    ______ ____
ROOT
ATOM      1  F   UNL     1      38.082 -18.493 -21.681  0.00  0.00    -0.201 F 
ATOM      2  C   UNL     1      35.749 -18.892 -21.839  0.00  0.00    +0.173 C 
ATOM      3  C   UNL     1      35.951 -20.780 -19.824  0.00  0.00    +0.054 C 
ATOM      4  C   UNL     1      36.987 -19.145 -21.270  0.00  0.00    +0.176 C 
ATOM      5  C   UNL     1      34.611 -19.561 -21.424  0.00  0.00    +0.041 C 
ATOM      6  C   UNL     1      37.087 -20.096 -20.254  0.00  0.00    +0.047 C 
ATOM      7  C   UNL     1      34.713 -20.512 -20.408  0.00  0.00    +0.018 C 
ENDROOT
BRANCH   3  10
ATOM      8  O   UNL     1      37.884 -22.273 -14.962  0.00  0.00    -0.274 OA
ATOM      9  O   UNL     1      37.421 -20.677 -17.208  0.00  0.00    -0.252 OA
ATOM     10  N   UNL     1      36.052 -21.730 -18.807  0.00  0.00    -0.268 N 
ATOM     11  N   UNL     1      36.605 -22.819 -16.836  0.00  0.00    -0.239 N 
ATOM     12  C   UNL     1      37.172 -23.060 -15.582  0.00  0.00    +0.234 C 
ATOM     13  C   UNL     1      36.757 -21.638 -17.588  0.00  0.00    +0.310 C 
ATOM     14  H   UNL     1      35.569 -22.573 -18.959  0.00  0.00    +0.156 HD
ATOM     15  H   UNL     1      36.053 -23.534 -17.226  0.00  0.00    +0.159 HD
BRANCH  12  16
ATOM     16  C   UNL     1      36.800 -24.436 -15.064  0.00  0.00    +0.112 C 
BRANCH  16  18
ATOM     17  F   UNL     1      35.615 -24.501  -9.570  0.00  0.00    -0.204 F 
ATOM     18  C   UNL     1      36.482 -24.455 -13.592  0.00  0.00    -0.013 C 
ATOM     19  C   UNL     1      37.480 -24.772 -12.682  0.00  0.00    -0.001 C 
ATOM     20  C   UNL     1      35.196 -24.152 -13.168  0.00  0.00    -0.001 C 
ATOM     21  C   UNL     1      37.186 -24.789 -11.318  0.00  0.00    +0.029 C 
ATOM     22  C   UNL     1      34.902 -24.169 -11.804  0.00  0.00    +0.029 C 
ATOM     23  C   UNL     1      35.897 -24.485 -10.880  0.00  0.00    +0.140 C 
ENDBRANCH  16  18
ENDBRANCH  12  16
ENDBRANCH   3  10
BRANCH   2  24
ATOM     24  O   UNL     1      35.649 -17.950 -22.844  0.00  0.00    -0.451 OA
BRANCH  24  28
ATOM     25  N   UNL     1      33.342 -14.165 -24.270  0.00  0.00    -0.297 N 
ATOM     26  N   UNL     1      33.663 -14.348 -21.889  0.00  0.00    -0.229 NA
ATOM     27  C   UNL     1      34.446 -15.969 -23.553  0.00  0.00    +0.067 C 
ATOM     28  C   UNL     1      35.003 -16.781 -22.552  0.00  0.00    +0.150 C 
ATOM     29  C   UNL     1      33.808 -14.799 -23.148  0.00  0.00    +0.135 C 
ATOM     30  C   UNL     1      34.349 -16.022 -24.969  0.00  0.00    +0.022 C 
ATOM     31  C   UNL     1      33.664 -14.899 -25.381  0.00  0.00    +0.063 C 
ATOM     32  C   UNL     1      34.880 -16.360 -21.229  0.00  0.00    +0.058 C 
ATOM     33  C   UNL     1      34.219 -15.167 -20.967  0.00  0.00    +0.103 C 
ATOM     34  H   UNL     1      32.849 -13.312 -24.275  0.00  0.00    +0.154 HD
ENDBRANCH  24  28
ENDBRANCH   2  24
TORSDOF 5
ENDMDL
MODEL 3
REMARK VINA RESULT:     -12.7      4.029     10.846
REMARK  Name = 11560856
REMARK  5 active torsions:
REMARK  status: ('A' for Active; 'I' for Inactive)
REMARK    1  A    between atoms: C_2  and  O_24
REMARK    2  A    between atoms: C_3  and  N_10
REMARK    3  A    between atoms: C_12  and  C_16
REMARK    4  A    between atoms: C_16  and  C_18
REMARK    5  A    between atoms: O_24  and  C_28
REMARK                            x       y       z     vdW  Elec       q    Type
REMARK                         _______ _______ _______ _____ _____    ______ ____
ROOT
ATOM      1  F   UNL     1      36.625 -22.241 -18.854  0.00  0.00    -0.201 F 
ATOM      2  C   UNL     1      34.263 -22.192 -19.072  0.00  0.00    +0.173 C 
ATOM      3  C   UNL     1      34.462 -19.850 -20.535  0.00  0.00    +0.054 C 
ATOM      4  C   UNL     1      35.515 -21.650 -19.316  0.00  0.00    +0.176 C 
ATOM      5  C   UNL     1      33.109 -21.589 -19.542  0.00  0.00    +0.041 C 
ATOM      6  C   UNL     1      35.614 -20.471 -20.054  0.00  0.00    +0.047 C 
ATOM      7  C   UNL     1      33.210 -20.409 -20.279  0.00  0.00    +0.018 C 
ENDROOT
BRANCH   3  10
ATOM      8  O   UNL     1      34.900 -17.339 -25.341  0.00  0.00    -0.274 OA
ATOM      9  O   UNL     1      34.684 -19.428 -23.499  0.00  0.00    -0.252 OA
ATOM     10  N   UNL     1      34.562 -18.671 -21.274  0.00  0.00    -0.268 N 
ATOM     11  N   UNL     1      34.746 -17.156 -23.020  0.00  0.00    -0.239 N 
ATOM     12  C   UNL     1      34.857 -16.656 -24.321  0.00  0.00    +0.234 C 
ATOM     13  C   UNL     1      34.665 -18.519 -22.673  0.00  0.00    +0.310 C 
ATOM     14  H   UNL     1      34.561 -17.837 -20.752  0.00  0.00    +0.156 HD
ATOM     15  H   UNL     1      34.722 -16.501 -22.286  0.00  0.00    +0.159 HD
BRANCH  12  16
ATOM     16  C   UNL     1      34.921 -15.141 -24.324  0.00  0.00    +0.112 C 
BRANCH  16  18
ATOM     17  F   UNL     1      32.223 -12.783 -19.993  0.00  0.00    -0.204 F 
ATOM     18  C   UNL     1      34.197 -14.510 -23.163  0.00  0.00    -0.013 C 
ATOM     19  C   UNL     1      34.668 -14.712 -21.873  0.00  0.00    -0.001 C 
ATOM     20  C   UNL     1      33.071 -13.735 -23.401  0.00  0.00    -0.001 C 
ATOM     21  C   UNL     1      33.998 -14.127 -20.798  0.00  0.00    +0.029 C 
ATOM     22  C   UNL     1      32.401 -13.150 -22.326  0.00  0.00    +0.029 C 
ATOM     23  C   UNL     1      32.865 -13.345 -21.026  0.00  0.00    +0.140 C 
ENDBRANCH  16  18
ENDBRANCH  12  16
ENDBRANCH   3  10
BRANCH   2  24
ATOM     24  O   UNL     1      34.164 -23.361 -18.342  0.00  0.00    -0.451 OA
BRANCH  24  28
ATOM     25  N   UNL     1      35.061 -23.085 -13.782  0.00  0.00    -0.297 N 
ATOM     26  N   UNL     1      32.728 -23.065 -14.382  0.00  0.00    -0.229 NA
ATOM     27  C   UNL     1      34.597 -23.217 -15.962  0.00  0.00    +0.067 C 
ATOM     28  C   UNL     1      33.716 -23.265 -17.055  0.00  0.00    +0.150 C 
ATOM     29  C   UNL     1      34.037 -23.118 -14.691  0.00  0.00    +0.135 C 
ATOM     30  C   UNL     1      36.006 -23.242 -15.790  0.00  0.00    +0.022 C 
ATOM     31  C   UNL     1      36.262 -23.158 -14.437  0.00  0.00    +0.063 C 
ATOM     32  C   UNL     1      32.348 -23.213 -16.790  0.00  0.00    +0.058 C 
ATOM     33  C   UNL     1      31.926 -23.117 -15.471  0.00  0.00    +0.103 C 
ATOM     34  H   UNL     1      34.951 -23.017 -12.805  0.00  0.00    +0.154 HD
ENDBRANCH  24  28
ENDBRANCH   2  24
TORSDOF 5
ENDMDL
MODEL 4
REMARK VINA RESULT:     -12.6      2.827     11.143
REMARK  Name = 11560856
REMARK  5 active torsions:
REMARK  status: ('A' for Active; 'I' for Inactive)
REMARK    1  A    between atoms: C_2  and  O_24
REMARK    2  A    between atoms: C_3  and  N_10
REMARK    3  A    between atoms: C_12  and  C_16
REMARK    4  A    between atoms: C_16  and  C_18
REMARK    5  A    between atoms: O_24  and  C_28
REMARK                            x       y       z     vdW  Elec       q    Type
REMARK                         _______ _______ _______ _____ _____    ______ ____
ROOT
ATOM      1  F   UNL     1      34.955 -18.622 -24.376  0.00  0.00    -0.201 F 
ATOM      2  C   UNL     1      35.224 -18.183 -22.060  0.00  0.00    +0.173 C 
ATOM      3  C   UNL     1      34.666 -15.510 -22.517  0.00  0.00    +0.054 C 
ATOM      4  C   UNL     1      34.951 -17.760 -23.351  0.00  0.00    +0.176 C 
ATOM      5  C   UNL     1      35.225 -17.301 -20.994  0.00  0.00    +0.041 C 
ATOM      6  C   UNL     1      34.669 -16.413 -23.580  0.00  0.00    +0.047 C 
ATOM      7  C   UNL     1      34.943 -15.954 -21.224  0.00  0.00    +0.018 C 
ENDROOT
BRANCH   3  10
ATOM      8  O   UNL     1      31.516 -11.158 -21.660  0.00  0.00    -0.274 OA
ATOM      9  O   UNL     1      32.438 -13.788 -21.474  0.00  0.00    -0.252 OA
ATOM     10  N   UNL     1      34.382 -14.164 -22.747  0.00  0.00    -0.268 N 
ATOM     11  N   UNL     1      33.391 -12.067 -22.710  0.00  0.00    -0.239 N 
ATOM     12  C   UNL     1      32.493 -11.043 -22.397  0.00  0.00    +0.234 C 
ATOM     13  C   UNL     1      33.319 -13.391 -22.233  0.00  0.00    +0.310 C 
ATOM     14  H   UNL     1      35.004 -13.691 -23.345  0.00  0.00    +0.156 HD
ATOM     15  H   UNL     1      34.135 -11.846 -23.315  0.00  0.00    +0.159 HD
BRANCH  12  16
ATOM     16  C   UNL     1      32.874  -9.748 -23.087  0.00  0.00    +0.112 C 
BRANCH  16  18
ATOM     17  F   UNL     1      30.523  -5.208 -20.749  0.00  0.00    -0.204 F 
ATOM     18  C   UNL     1      32.245  -8.530 -22.461  0.00  0.00    -0.013 C 
ATOM     19  C   UNL     1      31.273  -7.828 -23.160  0.00  0.00    -0.001 C 
ATOM     20  C   UNL     1      32.645  -8.131 -21.194  0.00  0.00    -0.001 C 
ATOM     21  C   UNL     1      30.690  -6.701 -22.579  0.00  0.00    +0.029 C 
ATOM     22  C   UNL     1      32.062  -7.004 -20.614  0.00  0.00    +0.029 C 
ATOM     23  C   UNL     1      31.084  -6.290 -21.306  0.00  0.00    +0.140 C 
ENDBRANCH  16  18
ENDBRANCH  12  16
ENDBRANCH   3  10
BRANCH   2  24
ATOM     24  O   UNL     1      35.502 -19.517 -21.833  0.00  0.00    -0.451 OA
BRANCH  24  28
ATOM     25  N   UNL     1      35.302 -22.185 -18.022  0.00  0.00    -0.297 N 
ATOM     26  N   UNL     1      33.175 -21.493 -18.916  0.00  0.00    -0.229 NA
ATOM     27  C   UNL     1      35.363 -20.905 -19.851  0.00  0.00    +0.067 C 
ATOM     28  C   UNL     1      34.764 -20.163 -20.881  0.00  0.00    +0.150 C 
ATOM     29  C   UNL     1      34.520 -21.523 -18.932  0.00  0.00    +0.135 C 
ATOM     30  C   UNL     1      36.693 -21.218 -19.464  0.00  0.00    +0.022 C 
ATOM     31  C   UNL     1      36.624 -22.007 -18.335  0.00  0.00    +0.063 C 
ATOM     32  C   UNL     1      33.371 -20.098 -20.911  0.00  0.00    +0.058 C 
ATOM     33  C   UNL     1      32.651 -20.766 -19.930  0.00  0.00    +0.103 C 
ATOM     34  H   UNL     1      34.965 -22.709 -17.259  0.00  0.00    +0.154 HD
ENDBRANCH  24  28
ENDBRANCH   2  24
TORSDOF 5
ENDMDL
MODEL 5
REMARK VINA RESULT:     -12.4      0.887      2.000
REMARK  Name = 11560856
REMARK  5 active torsions:
REMARK  status: ('A' for Active; 'I' for Inactive)
REMARK    1  A    between atoms: C_2  and  O_24
REMARK    2  A    between atoms: C_3  and  N_10
REMARK    3  A    between atoms: C_12  and  C_16
REMARK    4  A    between atoms: C_16  and  C_18
REMARK    5  A    between atoms: O_24  and  C_28
REMARK                            x       y       z     vdW  Elec       q    Type
REMARK                         _______ _______ _______ _____ _____    ______ ____
ROOT
ATOM      1  F   UNL     1      31.058 -12.426 -20.133  0.00  0.00    -0.201 F 
ATOM      2  C   UNL     1      32.447 -12.129 -22.033  0.00  0.00    +0.173 C 
ATOM      3  C   UNL     1      33.814 -14.446 -21.377  0.00  0.00    +0.054 C 
ATOM      4  C   UNL     1      32.070 -12.842 -20.907  0.00  0.00    +0.176 C 
ATOM      5  C   UNL     1      33.492 -12.548 -22.838  0.00  0.00    +0.041 C 
ATOM      6  C   UNL     1      32.759 -14.009 -20.577  0.00  0.00    +0.047 C 
ATOM      7  C   UNL     1      34.181 -13.715 -22.508  0.00  0.00    +0.018 C 
ENDROOT
BRANCH   3  10
ATOM      8  O   UNL     1      36.175 -19.101 -22.912  0.00  0.00    -0.274 OA
ATOM      9  O   UNL     1      34.810 -16.673 -23.127  0.00  0.00    -0.252 OA
ATOM     10  N   UNL     1      34.502 -15.614 -21.048  0.00  0.00    -0.268 N 
ATOM     11  N   UNL     1      35.607 -17.649 -21.176  0.00  0.00    -0.239 N 
ATOM     12  C   UNL     1      36.172 -18.806 -21.719  0.00  0.00    +0.234 C 
ATOM     13  C   UNL     1      34.952 -16.638 -21.908  0.00  0.00    +0.310 C 
ATOM     14  H   UNL     1      34.698 -15.741 -20.092  0.00  0.00    +0.156 HD
ATOM     15  H   UNL     1      35.671 -17.531 -20.201  0.00  0.00    +0.159 HD
BRANCH  12  16
ATOM     16  C   UNL     1      36.792 -19.674 -20.641  0.00  0.00    +0.112 C 
BRANCH  16  18
ATOM     17  F   UNL     1      33.071 -22.970 -18.016  0.00  0.00    -0.204 F 
ATOM     18  C   UNL     1      35.795 -20.558 -19.938  0.00  0.00    -0.013 C 
ATOM     19  C   UNL     1      36.240 -21.470 -18.991  0.00  0.00    -0.001 C 
ATOM     20  C   UNL     1      34.448 -20.446 -20.248  0.00  0.00    -0.001 C 
ATOM     21  C   UNL     1      35.316 -22.288 -18.340  0.00  0.00    +0.029 C 
ATOM     22  C   UNL     1      33.524 -21.265 -19.597  0.00  0.00    +0.029 C 
ATOM     23  C   UNL     1      33.958 -22.184 -18.642  0.00  0.00    +0.140 C 
ENDBRANCH  16  18
ENDBRANCH  12  16
ENDBRANCH   3  10
BRANCH   2  24
ATOM     24  O   UNL     1      31.764 -10.974 -22.361  0.00  0.00    -0.451 OA
BRANCH  24  28
ATOM     25  N   UNL     1      32.969  -7.326 -19.730  0.00  0.00    -0.297 N 
ATOM     26  N   UNL     1      33.833  -7.312 -21.979  0.00  0.00    -0.229 NA
ATOM     27  C   UNL     1      32.408  -9.061 -21.018  0.00  0.00    +0.067 C 
ATOM     28  C   UNL     1      32.428  -9.787 -22.221  0.00  0.00    +0.150 C 
ATOM     29  C   UNL     1      33.119  -7.865 -20.981  0.00  0.00    +0.135 C 
ATOM     30  C   UNL     1      31.818  -9.230 -19.738  0.00  0.00    +0.022 C 
ATOM     31  C   UNL     1      32.181  -8.147 -18.966  0.00  0.00    +0.063 C 
ATOM     32  C   UNL     1      33.154  -9.260 -23.287  0.00  0.00    +0.058 C 
ATOM     33  C   UNL     1      33.816  -8.052 -23.112  0.00  0.00    +0.103 C 
ATOM     34  H   UNL     1      33.367  -6.477 -19.427  0.00  0.00    +0.154 HD
ENDBRANCH  24  28
ENDBRANCH   2  24
TORSDOF 5
ENDMDL
MODEL 6
REMARK VINA RESULT:     -12.4      5.225     12.609
REMARK  Name = 11560856
REMARK  5 active torsions:
REMARK  status: ('A' for Active; 'I' for Inactive)
REMARK    1  A    between atoms: C_2  and  O_24
REMARK    2  A    between atoms: C_3  and  N_10
REMARK    3  A    between atoms: C_12  and  C_16
REMARK    4  A    between atoms: C_16  and  C_18
REMARK    5  A    between atoms: O_24  and  C_28
REMARK                            x       y       z     vdW  Elec       q    Type
REMARK                         _______ _______ _______ _____ _____    ______ ____
ROOT
ATOM      1  F   UNL     1      32.287 -23.916 -16.304  0.00  0.00    -0.201 F 
ATOM      2  C   UNL     1      34.580 -23.437 -15.933  0.00  0.00    +0.173 C 
ATOM      3  C   UNL     1      34.656 -22.030 -18.317  0.00  0.00    +0.054 C 
ATOM      4  C   UNL     1      33.430 -23.340 -16.699  0.00  0.00    +0.176 C 
ATOM      5  C   UNL     1      35.767 -22.847 -16.333  0.00  0.00    +0.041 C 
ATOM      6  C   UNL     1      33.469 -22.630 -17.899  0.00  0.00    +0.047 C 
ATOM      7  C   UNL     1      35.805 -22.139 -17.533  0.00  0.00    +0.018 C 
ENDROOT
BRANCH   3  10
ATOM      8  O   UNL     1      37.280 -18.699 -21.726  0.00  0.00    -0.274 OA
ATOM      9  O   UNL     1      36.794 -20.259 -19.460  0.00  0.00    -0.252 OA
ATOM     10  N   UNL     1      34.694 -21.319 -19.517  0.00  0.00    -0.268 N 
ATOM     11  N   UNL     1      35.370 -19.958 -21.269  0.00  0.00    -0.239 N 
ATOM     12  C   UNL     1      36.162 -19.102 -22.038  0.00  0.00    +0.234 C 
ATOM     13  C   UNL     1      35.725 -20.495 -20.016  0.00  0.00    +0.310 C 
ATOM     14  H   UNL     1      33.899 -21.403 -20.090  0.00  0.00    +0.156 HD
ATOM     15  H   UNL     1      34.490 -20.207 -21.633  0.00  0.00    +0.159 HD
BRANCH  12  16
ATOM     16  C   UNL     1      35.465 -18.720 -23.330  0.00  0.00    +0.112 C 
BRANCH  16  18
ATOM     17  F   UNL     1      33.837 -13.342 -23.478  0.00  0.00    -0.204 F 
ATOM     18  C   UNL     1      35.030 -17.278 -23.370  0.00  0.00    -0.013 C 
ATOM     19  C   UNL     1      34.697 -16.699 -24.586  0.00  0.00    -0.001 C 
ATOM     20  C   UNL     1      34.967 -16.552 -22.190  0.00  0.00    -0.001 C 
ATOM     21  C   UNL     1      34.293 -15.364 -24.623  0.00  0.00    +0.029 C 
ATOM     22  C   UNL     1      34.564 -15.217 -22.227  0.00  0.00    +0.029 C 
ATOM     23  C   UNL     1      34.226 -14.624 -23.442  0.00  0.00    +0.140 C 
ENDBRANCH  16  18
ENDBRANCH  12  16
ENDBRANCH   3  10
BRANCH   2  24
ATOM     24  O   UNL     1      34.542 -24.139 -14.744  0.00  0.00    -0.451 OA
BRANCH  24  28
ATOM     25  N   UNL     1      38.291 -24.576 -12.018  0.00  0.00    -0.297 N 
ATOM     26  N   UNL     1      37.999 -26.310 -13.665  0.00  0.00    -0.229 NA
ATOM     27  C   UNL     1      36.502 -24.395 -13.342  0.00  0.00    +0.067 C 
ATOM     28  C   UNL     1      35.664 -24.830 -14.383  0.00  0.00    +0.150 C 
ATOM     29  C   UNL     1      37.620 -25.173 -13.053  0.00  0.00    +0.135 C 
ATOM     30  C   UNL     1      36.518 -23.299 -12.440  0.00  0.00    +0.022 C 
ATOM     31  C   UNL     1      37.630 -23.437 -11.637  0.00  0.00    +0.063 C 
ATOM     32  C   UNL     1      36.011 -26.003 -15.050  0.00  0.00    +0.058 C 
ATOM     33  C   UNL     1      37.158 -26.680 -14.658  0.00  0.00    +0.103 C 
ATOM     34  H   UNL     1      39.121 -24.915 -11.609  0.00  0.00    +0.154 HD
ENDBRANCH  24  28
ENDBRANCH   2  24
TORSDOF 5
ENDMDL
MODEL 7
REMARK VINA RESULT:     -12.2      4.808      7.678
REMARK  Name = 11560856
REMARK  5 active torsions:
REMARK  status: ('A' for Active; 'I' for Inactive)
REMARK    1  A    between atoms: C_2  and  O_24
REMARK    2  A    between atoms: C_3  and  N_10
REMARK    3  A    between atoms: C_12  and  C_16
REMARK    4  A    between atoms: C_16  and  C_18
REMARK    5  A    between atoms: O_24  and  C_28
REMARK                            x       y       z     vdW  Elec       q    Type
REMARK                         _______ _______ _______ _____ _____    ______ ____
ROOT
ATOM      1  F   UNL     1      38.117 -18.342 -21.737  0.00  0.00    -0.201 F 
ATOM      2  C   UNL     1      35.804 -18.834 -21.924  0.00  0.00    +0.173 C 
ATOM      3  C   UNL     1      36.039 -20.652 -19.849  0.00  0.00    +0.054 C 
ATOM      4  C   UNL     1      37.039 -19.023 -21.326  0.00  0.00    +0.176 C 
ATOM      5  C   UNL     1      34.684 -19.534 -21.508  0.00  0.00    +0.041 C 
ATOM      6  C   UNL     1      37.157 -19.939 -20.280  0.00  0.00    +0.047 C 
ATOM      7  C   UNL     1      34.803 -20.450 -20.462  0.00  0.00    +0.018 C 
ENDROOT
BRANCH   3  10
ATOM      8  O   UNL     1      37.855 -21.890 -14.871  0.00  0.00    -0.274 OA
ATOM      9  O   UNL     1      37.387 -20.387 -17.179  0.00  0.00    -0.252 OA
ATOM     10  N   UNL     1      36.157 -21.567 -18.801  0.00  0.00    -0.268 N 
ATOM     11  N   UNL     1      36.694 -22.566 -16.779  0.00  0.00    -0.239 N 
ATOM     12  C   UNL     1      37.222 -22.737 -15.496  0.00  0.00    +0.234 C 
ATOM     13  C   UNL     1      36.803 -21.398 -17.558  0.00  0.00    +0.310 C 
ATOM     14  H   UNL     1      35.736 -22.443 -18.948  0.00  0.00    +0.156 HD
ATOM     15  H   UNL     1      36.205 -23.326 -17.170  0.00  0.00    +0.159 HD
BRANCH  12  16
ATOM     16  C   UNL     1      36.916 -24.121 -14.955  0.00  0.00    +0.112 C 
BRANCH  16  18
ATOM     17  F   UNL     1      41.489 -26.914 -13.257  0.00  0.00    -0.204 F 
ATOM     18  C   UNL     1      38.142 -24.868 -14.499  0.00  0.00    -0.013 C 
ATOM     19  C   UNL     1      38.092 -25.611 -13.328  0.00  0.00    -0.001 C 
ATOM     20  C   UNL     1      39.301 -24.805 -15.258  0.00  0.00    -0.001 C 
ATOM     21  C   UNL     1      39.228 -26.304 -12.907  0.00  0.00    +0.029 C 
ATOM     22  C   UNL     1      40.436 -25.497 -14.837  0.00  0.00    +0.029 C 
ATOM     23  C   UNL     1      40.399 -26.248 -13.662  0.00  0.00    +0.140 C 
ENDBRANCH  16  18
ENDBRANCH  12  16
ENDBRANCH   3  10
BRANCH   2  24
ATOM     24  O   UNL     1      35.687 -17.927 -22.959  0.00  0.00    -0.451 OA
BRANCH  24  28
ATOM     25  N   UNL     1      33.356 -14.199 -24.491  0.00  0.00    -0.297 N 
ATOM     26  N   UNL     1      33.679 -14.312 -22.106  0.00  0.00    -0.229 NA
ATOM     27  C   UNL     1      34.472 -15.975 -23.723  0.00  0.00    +0.067 C 
ATOM     28  C   UNL     1      35.034 -16.755 -22.700  0.00  0.00    +0.150 C 
ATOM     29  C   UNL     1      33.827 -14.798 -23.352  0.00  0.00    +0.135 C 
ATOM     30  C   UNL     1      34.375 -16.069 -25.137  0.00  0.00    +0.022 C 
ATOM     31  C   UNL     1      33.683 -14.962 -25.581  0.00  0.00    +0.063 C 
ATOM     32  C   UNL     1      34.908 -16.297 -21.389  0.00  0.00    +0.058 C 
ATOM     33  C   UNL     1      34.240 -15.101 -21.161  0.00  0.00    +0.103 C 
ATOM     34  H   UNL     1      32.859 -13.349 -24.520  0.00  0.00    +0.154 HD
ENDBRANCH  24  28
ENDBRANCH   2  24
TORSDOF 5
ENDMDL
MODEL 8
REMARK VINA RESULT:     -12.1      5.085     12.559
REMARK  Name = 11560856
REMARK  5 active torsions:
REMARK  status: ('A' for Active; 'I' for Inactive)
REMARK    1  A    between atoms: C_2  and  O_24
REMARK    2  A    between atoms: C_3  and  N_10
REMARK    3  A    between atoms: C_12  and  C_16
REMARK    4  A    between atoms: C_16  and  C_18
REMARK    5  A    between atoms: O_24  and  C_28
REMARK                            x       y       z     vdW  Elec       q    Type
REMARK                         _______ _______ _______ _____ _____    ______ ____
ROOT
ATOM      1  F   UNL     1      32.282 -23.995 -16.457  0.00  0.00    -0.201 F 
ATOM      2  C   UNL     1      34.558 -23.458 -16.055  0.00  0.00    +0.173 C 
ATOM      3  C   UNL     1      34.604 -21.973 -18.391  0.00  0.00    +0.054 C 
ATOM      4  C   UNL     1      33.409 -23.371 -16.825  0.00  0.00    +0.176 C 
ATOM      5  C   UNL     1      35.728 -22.819 -16.427  0.00  0.00    +0.041 C 
ATOM      6  C   UNL     1      33.434 -22.622 -18.001  0.00  0.00    +0.047 C 
ATOM      7  C   UNL     1      35.751 -22.071 -17.604  0.00  0.00    +0.018 C 
ENDROOT
BRANCH   3  10
ATOM      8  O   UNL     1      37.242 -18.647 -21.795  0.00  0.00    -0.274 OA
ATOM      9  O   UNL     1      36.775 -20.261 -19.563  0.00  0.00    -0.252 OA
ATOM     10  N   UNL     1      34.627 -21.222 -19.567  0.00  0.00    -0.268 N 
ATOM     11  N   UNL     1      35.295 -19.833 -21.300  0.00  0.00    -0.239 N 
ATOM     12  C   UNL     1      36.095 -18.987 -22.073  0.00  0.00    +0.234 C 
ATOM     13  C   UNL     1      35.675 -20.429 -20.081  0.00  0.00    +0.310 C 
ATOM     14  H   UNL     1      33.806 -21.250 -20.109  0.00  0.00    +0.156 HD
ATOM     15  H   UNL     1      34.390 -20.028 -21.635  0.00  0.00    +0.159 HD
BRANCH  12  16
ATOM     16  C   UNL     1      35.366 -18.529 -23.321  0.00  0.00    +0.112 C 
BRANCH  16  18
ATOM     17  F   UNL     1      33.810 -13.130 -23.134  0.00  0.00    -0.204 F 
ATOM     18  C   UNL     1      34.948 -17.082 -23.271  0.00  0.00    -0.013 C 
ATOM     19  C   UNL     1      34.842 -16.444 -22.043  0.00  0.00    -0.001 C 
ATOM     20  C   UNL     1      34.677 -16.409 -24.453  0.00  0.00    -0.001 C 
ATOM     21  C   UNL     1      34.455 -15.105 -21.997  0.00  0.00    +0.029 C 
ATOM     22  C   UNL     1      34.290 -15.069 -24.407  0.00  0.00    +0.029 C 
ATOM     23  C   UNL     1      34.181 -14.417 -23.179  0.00  0.00    +0.140 C 
ENDBRANCH  16  18
ENDBRANCH  12  16
ENDBRANCH   3  10
BRANCH   2  24
ATOM     24  O   UNL     1      34.534 -24.198 -14.889  0.00  0.00    -0.451 OA
BRANCH  24  28
ATOM     25  N   UNL     1      38.422 -26.478 -13.719  0.00  0.00    -0.297 N 
ATOM     26  N   UNL     1      38.090 -24.360 -12.618  0.00  0.00    -0.229 NA
ATOM     27  C   UNL     1      36.566 -25.359 -14.257  0.00  0.00    +0.067 C 
ATOM     28  C   UNL     1      35.689 -24.266 -14.161  0.00  0.00    +0.150 C 
ATOM     29  C   UNL     1      37.715 -25.329 -13.473  0.00  0.00    +0.135 C 
ATOM     30  C   UNL     1      36.600 -26.573 -14.992  0.00  0.00    +0.022 C 
ATOM     31  C   UNL     1      37.754 -27.241 -14.640  0.00  0.00    +0.063 C 
ATOM     32  C   UNL     1      36.030 -23.233 -13.289  0.00  0.00    +0.058 C 
ATOM     33  C   UNL     1      37.210 -23.334 -12.564  0.00  0.00    +0.103 C 
ATOM     34  H   UNL     1      39.279 -26.717 -13.297  0.00  0.00    +0.154 HD
ENDBRANCH  24  28
ENDBRANCH   2  24
TORSDOF 5
ENDMDL
MODEL 9
REMARK VINA RESULT:     -11.7      5.221     12.975
REMARK  Name = 11560856
REMARK  5 active torsions:
REMARK  status: ('A' for Active; 'I' for Inactive)
REMARK    1  A    between atoms: C_2  and  O_24
REMARK    2  A    between atoms: C_3  and  N_10
REMARK    3  A    between atoms: C_12  and  C_16
REMARK    4  A    between atoms: C_16  and  C_18
REMARK    5  A    between atoms: O_24  and  C_28
REMARK                            x       y       z     vdW  Elec       q    Type
REMARK                         _______ _______ _______ _____ _____    ______ ____
ROOT
ATOM      1  F   UNL     1      33.229 -23.804 -16.460  0.00  0.00    -0.201 F 
ATOM      2  C   UNL     1      35.442 -23.317 -15.758  0.00  0.00    +0.173 C 
ATOM      3  C   UNL     1      35.785 -21.726 -17.998  0.00  0.00    +0.054 C 
ATOM      4  C   UNL     1      34.397 -23.179 -16.658  0.00  0.00    +0.176 C 
ATOM      5  C   UNL     1      36.654 -22.677 -15.953  0.00  0.00    +0.041 C 
ATOM      6  C   UNL     1      34.571 -22.377 -17.785  0.00  0.00    +0.047 C 
ATOM      7  C   UNL     1      36.827 -21.875 -17.081  0.00  0.00    +0.018 C 
ENDROOT
BRANCH   3  10
ATOM      8  O   UNL     1      33.848 -19.678 -22.651  0.00  0.00    -0.274 OA
ATOM      9  O   UNL     1      33.922 -21.157 -20.282  0.00  0.00    -0.252 OA
ATOM     10  N   UNL     1      35.958 -20.922 -19.125  0.00  0.00    -0.268 N 
ATOM     11  N   UNL     1      35.611 -19.806 -21.128  0.00  0.00    -0.239 N 
ATOM     12  C   UNL     1      34.980 -19.363 -22.294  0.00  0.00    +0.234 C 
ATOM     13  C   UNL     1      35.050 -20.683 -20.178  0.00  0.00    +0.310 C 
ATOM     14  H   UNL     1      36.825 -20.462 -19.195  0.00  0.00    +0.156 HD
ATOM     15  H   UNL     1      36.523 -19.479 -20.957  0.00  0.00    +0.159 HD
BRANCH  12  16
ATOM     16  C   UNL     1      35.877 -18.429 -23.084  0.00  0.00    +0.112 C 
BRANCH  16  18
ATOM     17  F   UNL     1      33.429 -13.533 -24.360  0.00  0.00    -0.204 F 
ATOM     18  C   UNL     1      35.220 -17.117 -23.426  0.00  0.00    -0.013 C 
ATOM     19  C   UNL     1      34.955 -16.203 -22.416  0.00  0.00    -0.001 C 
ATOM     20  C   UNL     1      34.891 -16.843 -24.745  0.00  0.00    -0.001 C 
ATOM     21  C   UNL     1      34.347 -14.988 -22.733  0.00  0.00    +0.029 C 
ATOM     22  C   UNL     1      34.282 -15.628 -25.062  0.00  0.00    +0.029 C 
ATOM     23  C   UNL     1      34.012 -14.700 -24.057  0.00  0.00    +0.140 C 
ENDBRANCH  16  18
ENDBRANCH  12  16
ENDBRANCH   3  10
BRANCH   2  24
ATOM     24  O   UNL     1      35.270 -24.111 -14.640  0.00  0.00    -0.451 OA
BRANCH  24  28
ATOM     25  N   UNL     1      38.848 -25.904 -12.262  0.00  0.00    -0.297 N 
ATOM     26  N   UNL     1      38.017 -27.266 -14.067  0.00  0.00    -0.229 NA
ATOM     27  C   UNL     1      37.132 -25.072 -13.424  0.00  0.00    +0.067 C 
ATOM     28  C   UNL     1      36.166 -25.123 -14.442  0.00  0.00    +0.150 C 
ATOM     29  C   UNL     1      37.997 -26.157 -13.306  0.00  0.00    +0.135 C 
ATOM     30  C   UNL     1      37.491 -24.147 -12.408  0.00  0.00    +0.022 C 
ATOM     31  C   UNL     1      38.550 -24.687 -11.709  0.00  0.00    +0.063 C 
ATOM     32  C   UNL     1      36.142 -26.251 -15.260  0.00  0.00    +0.058 C 
ATOM     33  C   UNL     1      37.067 -27.262 -15.031  0.00  0.00    +0.103 C 
ATOM     34  H   UNL     1      39.565 -26.507 -11.956  0.00  0.00    +0.154 HD
ENDBRANCH  24  28
ENDBRANCH   2  24
TORSDOF 5
ENDMDL
