MODEL 1
REMARK VINA RESULT:     -11.7      0.000      0.000
REMARK  Name = 4369498
REMARK  8 active torsions:
REMARK  status: ('A' for Active; 'I' for Inactive)
REMARK    1  A    between atoms: N_2  and  C_11
REMARK    2  A    between atoms: C_5  and  C_25
REMARK    3  A    between atoms: C_8  and  S_14
REMARK    4  A    between atoms: C_13  and  O_23
REMARK    5  A    between atoms: S_14  and  N_17
REMARK    6  A    between atoms: N_17  and  C_19
REMARK    7  A    between atoms: C_19  and  C_20
REMARK    8  A    between atoms: C_26  and  C_32
REMARK                            x       y       z     vdW  Elec       q    Type
REMARK                         _______ _______ _______ _____ _____    ______ ____
ROOT
ATOM      1  O   UNL     1      33.775 -20.836 -19.755  0.00  0.00    -0.424 OA
ATOM      2  N   UNL     1      33.021 -22.073 -17.972  0.00  0.00    -0.265 N 
ATOM      3  N   UNL     1      35.354 -21.901 -18.536  0.00  0.00    -0.193 NA
ATOM      4  C   UNL     1      34.076 -21.645 -18.702  0.00  0.00    +0.293 C 
ATOM      5  C   UNL     1      34.991 -20.560 -20.303  0.00  0.00    +0.168 C 
ATOM      6  C   UNL     1      35.946 -21.208 -19.560  0.00  0.00    +0.141 C 
ATOM      7  H   UNL     1      32.144 -21.751 -18.283  0.00  0.00    +0.157 HD
ENDROOT
BRANCH   2  11
ATOM      8  C   UNL     1      34.132 -24.303 -15.220  0.00  0.00    +0.123 C 
ATOM      9  C   UNL     1      34.160 -23.473 -16.341  0.00  0.00    +0.038 C 
ATOM     10  C   UNL     1      32.920 -24.573 -14.583  0.00  0.00    +0.023 C 
ATOM     11  C   UNL     1      32.978 -22.915 -16.825  0.00  0.00    +0.087 C 
ATOM     12  C   UNL     1      31.737 -24.015 -15.067  0.00  0.00    +0.040 C 
ATOM     13  C   UNL     1      31.766 -23.185 -16.188  0.00  0.00    +0.152 C 
BRANCH   8  14
ATOM     14  S   UNL     1      35.611 -25.007 -14.614  0.00  0.00    +0.060 S 
ATOM     15  O   UNL     1      35.711 -24.733 -13.186  0.00  0.00    -0.153 OA
ATOM     16  O   UNL     1      35.672 -26.384 -15.083  0.00  0.00    -0.153 OA
BRANCH  14  17
ATOM     17  N   UNL     1      36.810 -24.100 -15.430  0.00  0.00    -0.179 NA
ATOM     18  H   UNL     1      36.438 -23.158 -15.546  0.00  0.00    +0.149 HD
BRANCH  17  19
ATOM     19  C   UNL     1      38.148 -23.959 -14.839  0.00  0.00    +0.091 C 
BRANCH  19  20
ATOM     20  C   UNL     1      38.782 -25.296 -14.639  0.00  0.00    +0.017 C 
ATOM     21  C   UNL     1      40.238 -25.371 -14.281  0.00  0.00    +0.001 C 
ATOM     22  C   UNL     1      39.195 -25.713 -13.258  0.00  0.00    +0.001 C 
ENDBRANCH  19  20
ENDBRANCH  17  19
ENDBRANCH  14  17
ENDBRANCH   8  14
BRANCH  13  23
ATOM     23  O   UNL     1      30.600 -22.650 -16.646  0.00  0.00    -0.470 OA
ATOM     24  C   UNL     1      29.444 -22.819 -15.827  0.00  0.00    +0.253 C 
ENDBRANCH  13  23
ENDBRANCH   2  11
BRANCH   5  25
ATOM     25  C   UNL     1      34.992 -19.705 -21.464  0.00  0.00    +0.036 C 
ATOM     26  C   UNL     1      34.829 -17.501 -22.442  0.00  0.00    +0.002 C 
ATOM     27  C   UNL     1      34.828 -18.327 -21.319  0.00  0.00    +0.003 C 
ATOM     28  C   UNL     1      35.157 -20.256 -22.736  0.00  0.00    +0.003 C 
ATOM     29  C   UNL     1      34.994 -18.053 -23.712  0.00  0.00    +0.000 C 
ATOM     30  C   UNL     1      35.159 -19.430 -23.859  0.00  0.00    +0.000 C 
BRANCH  26  32
ATOM     31  N   UNL     1      34.544 -13.886 -23.316  0.00  0.00    -0.242 NA
ATOM     32  C   UNL     1      34.658 -16.073 -22.290  0.00  0.00    +0.019 C 
ATOM     33  C   UNL     1      34.451 -15.503 -21.039  0.00  0.00    +0.003 C 
ATOM     34  C   UNL     1      34.696 -15.227 -23.388  0.00  0.00    +0.099 C 
ATOM     35  C   UNL     1      34.291 -14.127 -20.925  0.00  0.00    +0.021 C 
ATOM     36  C   UNL     1      34.345 -13.370 -22.084  0.00  0.00    +0.099 C 
ENDBRANCH  26  32
ENDBRANCH   5  25
TORSDOF 8
ENDMDL
MODEL 2
REMARK VINA RESULT:     -11.5      6.048     11.062
REMARK  Name = 4369498
REMARK  8 active torsions:
REMARK  status: ('A' for Active; 'I' for Inactive)
REMARK    1  A    between atoms: N_2  and  C_11
REMARK    2  A    between atoms: C_5  and  C_25
REMARK    3  A    between atoms: C_8  and  S_14
REMARK    4  A    between atoms: C_13  and  O_23
REMARK    5  A    between atoms: S_14  and  N_17
REMARK    6  A    between atoms: N_17  and  C_19
REMARK    7  A    between atoms: C_19  and  C_20
REMARK    8  A    between atoms: C_26  and  C_32
REMARK                            x       y       z     vdW  Elec       q    Type
REMARK                         _______ _______ _______ _____ _____    ______ ____
ROOT
ATOM      1  O   UNL     1      32.894 -11.156 -22.587  0.00  0.00    -0.424 OA
ATOM      2  N   UNL     1      33.244 -13.401 -22.927  0.00  0.00    -0.265 N 
ATOM      3  N   UNL     1      34.493 -11.705 -24.090  0.00  0.00    -0.193 NA
ATOM      4  C   UNL     1      33.585 -12.131 -23.240  0.00  0.00    +0.293 C 
ATOM      5  C   UNL     1      33.426 -10.003 -23.080  0.00  0.00    +0.168 C 
ATOM      6  C   UNL     1      34.395 -10.341 -23.991  0.00  0.00    +0.141 C 
ATOM      7  H   UNL     1      32.529 -13.485 -22.256  0.00  0.00    +0.157 HD
ENDROOT
BRANCH   2  11
ATOM      8  C   UNL     1      34.850 -16.748 -22.986  0.00  0.00    +0.123 C 
ATOM      9  C   UNL     1      34.342 -15.534 -22.522  0.00  0.00    +0.038 C 
ATOM     10  C   UNL     1      34.768 -17.065 -24.342  0.00  0.00    +0.023 C 
ATOM     11  C   UNL     1      33.755 -14.638 -23.414  0.00  0.00    +0.087 C 
ATOM     12  C   UNL     1      34.181 -16.167 -25.235  0.00  0.00    +0.040 C 
ATOM     13  C   UNL     1      33.674 -14.954 -24.770  0.00  0.00    +0.152 C 
BRANCH   8  14
ATOM     14  S   UNL     1      35.589 -17.871 -21.871  0.00  0.00    +0.060 S 
ATOM     15  O   UNL     1      36.861 -18.315 -22.427  0.00  0.00    -0.153 OA
ATOM     16  O   UNL     1      35.561 -17.264 -20.547  0.00  0.00    -0.153 OA
BRANCH  14  17
ATOM     17  N   UNL     1      34.495 -19.184 -21.892  0.00  0.00    -0.179 NA
ATOM     18  H   UNL     1      34.868 -19.868 -22.550  0.00  0.00    +0.149 HD
BRANCH  17  19
ATOM     19  C   UNL     1      34.199 -19.909 -20.647  0.00  0.00    +0.091 C 
BRANCH  19  20
ATOM     20  C   UNL     1      35.131 -21.061 -20.471  0.00  0.00    +0.017 C 
ATOM     21  C   UNL     1      36.292 -20.928 -19.529  0.00  0.00    +0.001 C 
ATOM     22  C   UNL     1      35.133 -21.811 -19.171  0.00  0.00    +0.001 C 
ENDBRANCH  19  20
ENDBRANCH  17  19
ENDBRANCH  14  17
ENDBRANCH   8  14
BRANCH  13  23
ATOM     23  O   UNL     1      33.105 -14.091 -25.658  0.00  0.00    -0.470 OA
ATOM     24  C   UNL     1      33.821 -13.839 -26.866  0.00  0.00    +0.253 C 
ENDBRANCH  13  23
ENDBRANCH   2  11
BRANCH   5  25
ATOM     25  C   UNL     1      32.880  -8.773 -22.562  0.00  0.00    +0.036 C 
ATOM     26  C   UNL     1      32.337  -6.436 -22.854  0.00  0.00    +0.002 C 
ATOM     27  C   UNL     1      32.866  -7.625 -23.355  0.00  0.00    +0.003 C 
ATOM     28  C   UNL     1      32.363  -8.730 -21.267  0.00  0.00    +0.003 C 
ATOM     29  C   UNL     1      31.822  -6.395 -21.558  0.00  0.00    +0.000 C 
ATOM     30  C   UNL     1      31.834  -7.542 -20.765  0.00  0.00    +0.000 C 
BRANCH  26  32
ATOM     31  N   UNL     1      31.511  -2.999 -24.044  0.00  0.00    -0.242 NA
ATOM     32  C   UNL     1      32.324  -5.247 -23.676  0.00  0.00    +0.019 C 
ATOM     33  C   UNL     1      33.071  -5.175 -24.847  0.00  0.00    +0.003 C 
ATOM     34  C   UNL     1      31.567  -4.141 -23.322  0.00  0.00    +0.099 C 
ATOM     35  C   UNL     1      33.037  -4.018 -25.616  0.00  0.00    +0.021 C 
ATOM     36  C   UNL     1      32.249  -2.968 -25.175  0.00  0.00    +0.099 C 
ENDBRANCH  26  32
ENDBRANCH   5  25
TORSDOF 8
ENDMDL
MODEL 3
REMARK VINA RESULT:     -11.4      1.389      1.737
REMARK  Name = 4369498
REMARK  8 active torsions:
REMARK  status: ('A' for Active; 'I' for Inactive)
REMARK    1  A    between atoms: N_2  and  C_11
REMARK    2  A    between atoms: C_5  and  C_25
REMARK    3  A    between atoms: C_8  and  S_14
REMARK    4  A    between atoms: C_13  and  O_23
REMARK    5  A    between atoms: S_14  and  N_17
REMARK    6  A    between atoms: N_17  and  C_19
REMARK    7  A    between atoms: C_19  and  C_20
REMARK    8  A    between atoms: C_26  and  C_32
REMARK                            x       y       z     vdW  Elec       q    Type
REMARK                         _______ _______ _______ _____ _____    ______ ____
ROOT
ATOM      1  O   UNL     1      33.811 -20.812 -19.777  0.00  0.00    -0.424 OA
ATOM      2  N   UNL     1      33.093 -22.073 -17.996  0.00  0.00    -0.265 N 
ATOM      3  N   UNL     1      35.421 -21.818 -18.547  0.00  0.00    -0.193 NA
ATOM      4  C   UNL     1      34.135 -21.608 -18.721  0.00  0.00    +0.293 C 
ATOM      5  C   UNL     1      35.020 -20.493 -20.318  0.00  0.00    +0.168 C 
ATOM      6  C   UNL     1      35.993 -21.106 -19.569  0.00  0.00    +0.141 C 
ATOM      7  H   UNL     1      32.206 -21.783 -18.312  0.00  0.00    +0.157 HD
ENDROOT
BRANCH   2  11
ATOM      8  C   UNL     1      34.259 -24.307 -15.270  0.00  0.00    +0.123 C 
ATOM      9  C   UNL     1      34.265 -23.477 -16.392  0.00  0.00    +0.038 C 
ATOM     10  C   UNL     1      33.062 -24.573 -14.605  0.00  0.00    +0.023 C 
ATOM     11  C   UNL     1      33.073 -22.915 -16.848  0.00  0.00    +0.087 C 
ATOM     12  C   UNL     1      31.870 -24.011 -15.062  0.00  0.00    +0.040 C 
ATOM     13  C   UNL     1      31.876 -23.181 -16.184  0.00  0.00    +0.152 C 
BRANCH   8  14
ATOM     14  S   UNL     1      35.750 -25.014 -14.699  0.00  0.00    +0.060 S 
ATOM     15  O   UNL     1      35.820 -26.396 -15.158  0.00  0.00    -0.153 OA
ATOM     16  O   UNL     1      36.833 -24.097 -15.030  0.00  0.00    -0.153 OA
BRANCH  14  17
ATOM     17  N   UNL     1      35.533 -25.012 -13.003  0.00  0.00    -0.179 NA
ATOM     18  H   UNL     1      34.693 -25.556 -12.812  0.00  0.00    +0.149 HD
BRANCH  17  19
ATOM     19  C   UNL     1      36.590 -25.542 -12.130  0.00  0.00    +0.091 C 
BRANCH  19  20
ATOM     20  C   UNL     1      37.084 -24.487 -11.197  0.00  0.00    +0.017 C 
ATOM     21  C   UNL     1      38.225 -23.608 -11.621  0.00  0.00    +0.001 C 
ATOM     22  C   UNL     1      36.839 -23.043 -11.526  0.00  0.00    +0.001 C 
ENDBRANCH  19  20
ENDBRANCH  17  19
ENDBRANCH  14  17
ENDBRANCH   8  14
BRANCH  13  23
ATOM     23  O   UNL     1      30.700 -22.643 -16.615  0.00  0.00    -0.470 OA
ATOM     24  C   UNL     1      29.505 -23.125 -16.005  0.00  0.00    +0.253 C 
ENDBRANCH  13  23
ENDBRANCH   2  11
BRANCH   5  25
ATOM     25  C   UNL     1      34.996 -19.640 -21.480  0.00  0.00    +0.036 C 
ATOM     26  C   UNL     1      34.815 -17.437 -22.458  0.00  0.00    +0.002 C 
ATOM     27  C   UNL     1      34.837 -18.262 -21.333  0.00  0.00    +0.003 C 
ATOM     28  C   UNL     1      35.135 -20.193 -22.754  0.00  0.00    +0.003 C 
ATOM     29  C   UNL     1      34.952 -17.991 -23.731  0.00  0.00    +0.000 C 
ATOM     30  C   UNL     1      35.112 -19.369 -23.879  0.00  0.00    +0.000 C 
BRANCH  26  32
ATOM     31  N   UNL     1      34.340 -14.111 -20.838  0.00  0.00    -0.242 NA
ATOM     32  C   UNL     1      34.648 -16.009 -22.305  0.00  0.00    +0.019 C 
ATOM     33  C   UNL     1      34.632 -15.165 -23.410  0.00  0.00    +0.003 C 
ATOM     34  C   UNL     1      34.499 -15.436 -21.051  0.00  0.00    +0.099 C 
ATOM     35  C   UNL     1      34.470 -13.796 -23.231  0.00  0.00    +0.021 C 
ATOM     36  C   UNL     1      34.329 -13.324 -21.936  0.00  0.00    +0.099 C 
ENDBRANCH  26  32
ENDBRANCH   5  25
TORSDOF 8
ENDMDL
MODEL 4
REMARK VINA RESULT:     -11.2      3.172      6.355
REMARK  Name = 4369498
REMARK  8 active torsions:
REMARK  status: ('A' for Active; 'I' for Inactive)
REMARK    1  A    between atoms: N_2  and  C_11
REMARK    2  A    between atoms: C_5  and  C_25
REMARK    3  A    between atoms: C_8  and  S_14
REMARK    4  A    between atoms: C_13  and  O_23
REMARK    5  A    between atoms: S_14  and  N_17
REMARK    6  A    between atoms: N_17  and  C_19
REMARK    7  A    between atoms: C_19  and  C_20
REMARK    8  A    between atoms: C_26  and  C_32
REMARK                            x       y       z     vdW  Elec       q    Type
REMARK                         _______ _______ _______ _____ _____    ______ ____
ROOT
ATOM      1  O   UNL     1      34.678 -16.702 -22.760  0.00  0.00    -0.424 OA
ATOM      2  N   UNL     1      35.239 -18.682 -21.739  0.00  0.00    -0.265 N 
ATOM      3  N   UNL     1      34.920 -16.638 -20.512  0.00  0.00    -0.193 NA
ATOM      4  C   UNL     1      34.959 -17.366 -21.605  0.00  0.00    +0.293 C 
ATOM      5  C   UNL     1      34.439 -15.427 -22.344  0.00  0.00    +0.168 C 
ATOM      6  C   UNL     1      34.587 -15.393 -20.980  0.00  0.00    +0.141 C 
ATOM      7  H   UNL     1      35.209 -19.020 -22.663  0.00  0.00    +0.157 HD
ENDROOT
BRANCH   2  11
ATOM      8  C   UNL     1      34.892 -21.473 -19.315  0.00  0.00    +0.123 C 
ATOM      9  C   UNL     1      34.580 -20.514 -20.281  0.00  0.00    +0.038 C 
ATOM     10  C   UNL     1      36.194 -21.572 -18.826  0.00  0.00    +0.023 C 
ATOM     11  C   UNL     1      35.572 -19.657 -20.756  0.00  0.00    +0.087 C 
ATOM     12  C   UNL     1      37.186 -20.714 -19.302  0.00  0.00    +0.040 C 
ATOM     13  C   UNL     1      36.874 -19.757 -20.268  0.00  0.00    +0.152 C 
BRANCH   8  14
ATOM     14  S   UNL     1      33.650 -22.545 -18.715  0.00  0.00    +0.060 S 
ATOM     15  O   UNL     1      32.376 -21.838 -18.723  0.00  0.00    -0.153 OA
ATOM     16  O   UNL     1      33.771 -23.808 -19.431  0.00  0.00    -0.153 OA
BRANCH  14  17
ATOM     17  N   UNL     1      34.129 -22.791 -17.093  0.00  0.00    -0.179 NA
ATOM     18  H   UNL     1      34.121 -21.877 -16.641  0.00  0.00    +0.149 HD
BRANCH  17  19
ATOM     19  C   UNL     1      33.356 -23.697 -16.231  0.00  0.00    +0.091 C 
BRANCH  19  20
ATOM     20  C   UNL     1      32.345 -22.939 -15.438  0.00  0.00    +0.017 C 
ATOM     21  C   UNL     1      30.912 -23.386 -15.457  0.00  0.00    +0.001 C 
ATOM     22  C   UNL     1      31.740 -23.575 -14.221  0.00  0.00    +0.001 C 
ENDBRANCH  19  20
ENDBRANCH  17  19
ENDBRANCH  14  17
ENDBRANCH   8  14
BRANCH  13  23
ATOM     23  O   UNL     1      37.857 -18.927 -20.719  0.00  0.00    -0.470 OA
ATOM     24  C   UNL     1      37.937 -18.725 -22.128  0.00  0.00    +0.253 C 
ENDBRANCH  13  23
ENDBRANCH   2  11
BRANCH   5  25
ATOM     25  C   UNL     1      34.107 -14.470 -23.371  0.00  0.00    +0.036 C 
ATOM     26  C   UNL     1      33.934 -12.180 -24.122  0.00  0.00    +0.002 C 
ATOM     27  C   UNL     1      34.255 -13.104 -23.129  0.00  0.00    +0.003 C 
ATOM     28  C   UNL     1      33.640 -14.911 -24.610  0.00  0.00    +0.003 C 
ATOM     29  C   UNL     1      33.466 -12.622 -25.360  0.00  0.00    +0.000 C 
ATOM     30  C   UNL     1      33.319 -13.987 -25.604  0.00  0.00    +0.000 C 
BRANCH  26  32
ATOM     31  N   UNL     1      33.198  -8.731 -22.908  0.00  0.00    -0.242 NA
ATOM     32  C   UNL     1      34.086 -10.764 -23.869  0.00  0.00    +0.019 C 
ATOM     33  C   UNL     1      35.208 -10.072 -24.312  0.00  0.00    +0.003 C 
ATOM     34  C   UNL     1      33.118 -10.053 -23.178  0.00  0.00    +0.099 C 
ATOM     35  C   UNL     1      35.325  -8.711 -24.055  0.00  0.00    +0.021 C 
ATOM     36  C   UNL     1      34.302  -8.093 -23.355  0.00  0.00    +0.099 C 
ENDBRANCH  26  32
ENDBRANCH   5  25
TORSDOF 8
ENDMDL
MODEL 5
REMARK VINA RESULT:     -10.9      8.513     14.913
REMARK  Name = 4369498
REMARK  8 active torsions:
REMARK  status: ('A' for Active; 'I' for Inactive)
REMARK    1  A    between atoms: N_2  and  C_11
REMARK    2  A    between atoms: C_5  and  C_25
REMARK    3  A    between atoms: C_8  and  S_14
REMARK    4  A    between atoms: C_13  and  O_23
REMARK    5  A    between atoms: S_14  and  N_17
REMARK    6  A    between atoms: N_17  and  C_19
REMARK    7  A    between atoms: C_19  and  C_20
REMARK    8  A    between atoms: C_26  and  C_32
REMARK                            x       y       z     vdW  Elec       q    Type
REMARK                         _______ _______ _______ _____ _____    ______ ____
ROOT
ATOM      1  O   UNL     1      32.919 -11.561 -23.126  0.00  0.00    -0.424 OA
ATOM      2  N   UNL     1      32.286  -9.634 -22.048  0.00  0.00    -0.265 N 
ATOM      3  N   UNL     1      34.204  -9.737 -23.496  0.00  0.00    -0.193 NA
ATOM      4  C   UNL     1      33.157 -10.242 -22.884  0.00  0.00    +0.293 C 
ATOM      5  C   UNL     1      33.922 -11.915 -23.978  0.00  0.00    +0.168 C 
ATOM      6  C   UNL     1      34.699 -10.805 -24.199  0.00  0.00    +0.141 C 
ATOM      7  H   UNL     1      31.568 -10.213 -21.704  0.00  0.00    +0.157 HD
ENDROOT
BRANCH   2  11
ATOM      8  C   UNL     1      31.877  -5.943 -22.045  0.00  0.00    +0.123 C 
ATOM      9  C   UNL     1      31.921  -7.268 -22.483  0.00  0.00    +0.038 C 
ATOM     10  C   UNL     1      32.151  -5.641 -20.712  0.00  0.00    +0.023 C 
ATOM     11  C   UNL     1      32.241  -8.287 -21.587  0.00  0.00    +0.087 C 
ATOM     12  C   UNL     1      32.471  -6.661 -19.816  0.00  0.00    +0.040 C 
ATOM     13  C   UNL     1      32.515  -7.985 -20.253  0.00  0.00    +0.152 C 
BRANCH   8  14
ATOM     14  S   UNL     1      31.480  -4.665 -23.167  0.00  0.00    +0.060 S 
ATOM     15  O   UNL     1      30.038  -4.454 -23.147  0.00  0.00    -0.153 OA
ATOM     16  O   UNL     1      32.370  -3.544 -22.895  0.00  0.00    -0.153 OA
BRANCH  14  17
ATOM     17  N   UNL     1      31.912  -5.349 -24.673  0.00  0.00    -0.179 NA
ATOM     18  H   UNL     1      31.095  -5.271 -25.278  0.00  0.00    +0.149 HD
BRANCH  17  19
ATOM     19  C   UNL     1      33.051  -4.803 -25.425  0.00  0.00    +0.091 C 
BRANCH  19  20
ATOM     20  C   UNL     1      34.118  -5.834 -25.591  0.00  0.00    +0.017 C 
ATOM     21  C   UNL     1      35.556  -5.402 -25.621  0.00  0.00    +0.001 C 
ATOM     22  C   UNL     1      35.021  -6.147 -24.434  0.00  0.00    +0.001 C 
ENDBRANCH  19  20
ENDBRANCH  17  19
ENDBRANCH  14  17
ENDBRANCH   8  14
BRANCH  13  23
ATOM     23  O   UNL     1      32.831  -8.967 -19.363  0.00  0.00    -0.470 OA
ATOM     24  C   UNL     1      31.784  -9.858 -18.984  0.00  0.00    +0.253 C 
ENDBRANCH  13  23
ENDBRANCH   2  11
BRANCH   5  25
ATOM     25  C   UNL     1      33.933 -13.287 -24.420  0.00  0.00    +0.036 C 
ATOM     26  C   UNL     1      34.356 -15.625 -23.980  0.00  0.00    +0.002 C 
ATOM     27  C   UNL     1      34.346 -14.298 -23.553  0.00  0.00    +0.003 C 
ATOM     28  C   UNL     1      33.527 -13.605 -25.717  0.00  0.00    +0.003 C 
ATOM     29  C   UNL     1      33.951 -15.942 -25.278  0.00  0.00    +0.000 C 
ATOM     30  C   UNL     1      33.537 -14.932 -26.146  0.00  0.00    +0.000 C 
BRANCH  26  32
ATOM     31  N   UNL     1      35.369 -17.357 -20.836  0.00  0.00    -0.242 NA
ATOM     32  C   UNL     1      34.786 -16.673 -23.081  0.00  0.00    +0.019 C 
ATOM     33  C   UNL     1      35.029 -17.961 -23.543  0.00  0.00    +0.003 C 
ATOM     34  C   UNL     1      34.970 -16.425 -21.729  0.00  0.00    +0.099 C 
ATOM     35  C   UNL     1      35.441 -18.947 -22.654  0.00  0.00    +0.021 C 
ATOM     36  C   UNL     1      35.595 -18.597 -21.323  0.00  0.00    +0.099 C 
ENDBRANCH  26  32
ENDBRANCH   5  25
TORSDOF 8
ENDMDL
MODEL 6
REMARK VINA RESULT:     -10.9      6.431     13.548
REMARK  Name = 4369498
REMARK  8 active torsions:
REMARK  status: ('A' for Active; 'I' for Inactive)
REMARK    1  A    between atoms: N_2  and  C_11
REMARK    2  A    between atoms: C_5  and  C_25
REMARK    3  A    between atoms: C_8  and  S_14
REMARK    4  A    between atoms: C_13  and  O_23
REMARK    5  A    between atoms: S_14  and  N_17
REMARK    6  A    between atoms: N_17  and  C_19
REMARK    7  A    between atoms: C_19  and  C_20
REMARK    8  A    between atoms: C_26  and  C_32
REMARK                            x       y       z     vdW  Elec       q    Type
REMARK                         _______ _______ _______ _____ _____    ______ ____
ROOT
ATOM      1  O   UNL     1      33.965 -14.881 -22.811  0.00  0.00    -0.424 OA
ATOM      2  N   UNL     1      33.375 -12.672 -23.040  0.00  0.00    -0.265 N 
ATOM      3  N   UNL     1      34.257 -13.571 -20.990  0.00  0.00    -0.193 NA
ATOM      4  C   UNL     1      33.864 -13.648 -22.242  0.00  0.00    +0.293 C 
ATOM      5  C   UNL     1      34.473 -15.653 -21.810  0.00  0.00    +0.168 C 
ATOM      6  C   UNL     1      34.648 -14.854 -20.708  0.00  0.00    +0.141 C 
ATOM      7  H   UNL     1      33.143 -12.961 -23.952  0.00  0.00    +0.157 HD
ENDROOT
BRANCH   2  11
ATOM      8  C   UNL     1      33.736  -8.978 -23.114  0.00  0.00    +0.123 C 
ATOM      9  C   UNL     1      33.952 -10.332 -23.372  0.00  0.00    +0.038 C 
ATOM     10  C   UNL     1      32.708  -8.587 -22.256  0.00  0.00    +0.023 C 
ATOM     11  C   UNL     1      33.141 -11.294 -22.771  0.00  0.00    +0.087 C 
ATOM     12  C   UNL     1      31.897  -9.549 -21.655  0.00  0.00    +0.040 C 
ATOM     13  C   UNL     1      32.113 -10.903 -21.912  0.00  0.00    +0.152 C 
BRANCH   8  14
ATOM     14  S   UNL     1      34.753  -7.772 -23.864  0.00  0.00    +0.060 S 
ATOM     15  O   UNL     1      35.427  -7.011 -22.819  0.00  0.00    -0.153 OA
ATOM     16  O   UNL     1      35.548  -8.436 -24.888  0.00  0.00    -0.153 OA
BRANCH  14  17
ATOM     17  N   UNL     1      33.614  -6.756 -24.632  0.00  0.00    -0.179 NA
ATOM     18  H   UNL     1      32.714  -7.232 -24.584  0.00  0.00    +0.149 HD
BRANCH  17  19
ATOM     19  C   UNL     1      33.400  -5.389 -24.134  0.00  0.00    +0.091 C 
BRANCH  19  20
ATOM     20  C   UNL     1      31.985  -5.201 -23.699  0.00  0.00    +0.017 C 
ATOM     21  C   UNL     1      31.680  -5.063 -22.235  0.00  0.00    +0.001 C 
ATOM     22  C   UNL     1      31.559  -3.874 -23.142  0.00  0.00    +0.001 C 
ENDBRANCH  19  20
ENDBRANCH  17  19
ENDBRANCH  14  17
ENDBRANCH   8  14
BRANCH  13  23
ATOM     23  O   UNL     1      31.311 -11.828 -21.314  0.00  0.00    -0.470 OA
ATOM     24  C   UNL     1      31.218 -11.781 -19.892  0.00  0.00    +0.253 C 
ENDBRANCH  13  23
ENDBRANCH   2  11
BRANCH   5  25
ATOM     25  C   UNL     1      34.693 -17.043 -22.123  0.00  0.00    +0.036 C 
ATOM     26  C   UNL     1      34.748 -19.360 -21.440  0.00  0.00    +0.002 C 
ATOM     27  C   UNL     1      34.536 -18.016 -21.136  0.00  0.00    +0.003 C 
ATOM     28  C   UNL     1      35.063 -17.417 -23.416  0.00  0.00    +0.003 C 
ATOM     29  C   UNL     1      35.119 -19.732 -22.732  0.00  0.00    +0.000 C 
ATOM     30  C   UNL     1      35.276 -18.761 -23.720  0.00  0.00    +0.000 C 
BRANCH  26  32
ATOM     31  N   UNL     1      33.105 -21.680 -19.025  0.00  0.00    -0.242 NA
ATOM     32  C   UNL     1      34.586 -20.368 -20.415  0.00  0.00    +0.019 C 
ATOM     33  C   UNL     1      35.688 -20.990 -19.838  0.00  0.00    +0.003 C 
ATOM     34  C   UNL     1      33.326 -20.746 -19.977  0.00  0.00    +0.099 C 
ATOM     35  C   UNL     1      35.500 -21.955 -18.856  0.00  0.00    +0.021 C 
ATOM     36  C   UNL     1      34.199 -22.261 -18.488  0.00  0.00    +0.099 C 
ENDBRANCH  26  32
ENDBRANCH   5  25
TORSDOF 8
ENDMDL
MODEL 7
REMARK VINA RESULT:     -10.8      1.742      4.827
REMARK  Name = 4369498
REMARK  8 active torsions:
REMARK  status: ('A' for Active; 'I' for Inactive)
REMARK    1  A    between atoms: N_2  and  C_11
REMARK    2  A    between atoms: C_5  and  C_25
REMARK    3  A    between atoms: C_8  and  S_14
REMARK    4  A    between atoms: C_13  and  O_23
REMARK    5  A    between atoms: S_14  and  N_17
REMARK    6  A    between atoms: N_17  and  C_19
REMARK    7  A    between atoms: C_19  and  C_20
REMARK    8  A    between atoms: C_26  and  C_32
REMARK                            x       y       z     vdW  Elec       q    Type
REMARK                         _______ _______ _______ _____ _____    ______ ____
ROOT
ATOM      1  O   UNL     1      35.506 -21.007 -19.088  0.00  0.00    -0.424 OA
ATOM      2  N   UNL     1      35.728 -22.205 -17.140  0.00  0.00    -0.265 N 
ATOM      3  N   UNL     1      33.653 -22.074 -18.351  0.00  0.00    -0.193 NA
ATOM      4  C   UNL     1      34.922 -21.803 -18.150  0.00  0.00    +0.293 C 
ATOM      5  C   UNL     1      34.494 -20.756 -19.966  0.00  0.00    +0.168 C 
ATOM      6  C   UNL     1      33.373 -21.405 -19.515  0.00  0.00    +0.141 C 
ATOM      7  H   UNL     1      36.654 -21.876 -17.194  0.00  0.00    +0.157 HD
ENDROOT
BRANCH   2  11
ATOM      8  C   UNL     1      33.838 -23.998 -14.495  0.00  0.00    +0.123 C 
ATOM      9  C   UNL     1      34.126 -23.198 -15.602  0.00  0.00    +0.038 C 
ATOM     10  C   UNL     1      34.871 -24.627 -13.801  0.00  0.00    +0.023 C 
ATOM     11  C   UNL     1      35.448 -23.026 -16.012  0.00  0.00    +0.087 C 
ATOM     12  C   UNL     1      36.194 -24.454 -14.212  0.00  0.00    +0.040 C 
ATOM     13  C   UNL     1      36.482 -23.655 -15.317  0.00  0.00    +0.152 C 
BRANCH   8  14
ATOM     14  S   UNL     1      32.183 -24.212 -13.978  0.00  0.00    +0.060 S 
ATOM     15  O   UNL     1      31.913 -25.638 -13.847  0.00  0.00    -0.153 OA
ATOM     16  O   UNL     1      31.958 -23.334 -12.838  0.00  0.00    -0.153 OA
BRANCH  14  17
ATOM     17  N   UNL     1      31.300 -23.609 -15.312  0.00  0.00    -0.179 NA
ATOM     18  H   UNL     1      31.803 -23.895 -16.152  0.00  0.00    +0.149 HD
BRANCH  17  19
ATOM     19  C   UNL     1      29.897 -24.006 -15.500  0.00  0.00    +0.091 C 
BRANCH  19  20
ATOM     20  C   UNL     1      29.094 -22.870 -16.039  0.00  0.00    +0.017 C 
ATOM     21  C   UNL     1      27.899 -23.160 -16.901  0.00  0.00    +0.001 C 
ATOM     22  C   UNL     1      27.710 -22.634 -15.509  0.00  0.00    +0.001 C 
ENDBRANCH  19  20
ENDBRANCH  17  19
ENDBRANCH  14  17
ENDBRANCH   8  14
BRANCH  13  23
ATOM     23  O   UNL     1      37.780 -23.498 -15.702  0.00  0.00    -0.470 OA
ATOM     24  C   UNL     1      38.768 -24.185 -14.936  0.00  0.00    +0.253 C 
ENDBRANCH  13  23
ENDBRANCH   2  11
BRANCH   5  25
ATOM     25  C   UNL     1      34.819 -19.918 -21.094  0.00  0.00    +0.036 C 
ATOM     26  C   UNL     1      34.958 -17.727 -22.103  0.00  0.00    +0.002 C 
ATOM     27  C   UNL     1      34.644 -18.537 -21.013  0.00  0.00    +0.003 C 
ATOM     28  C   UNL     1      35.309 -20.490 -22.269  0.00  0.00    +0.003 C 
ATOM     29  C   UNL     1      35.448 -18.300 -23.278  0.00  0.00    +0.000 C 
ATOM     30  C   UNL     1      35.624 -19.681 -23.360  0.00  0.00    +0.000 C 
BRANCH  26  32
ATOM     31  N   UNL     1      34.753 -14.147 -23.128  0.00  0.00    -0.242 NA
ATOM     32  C   UNL     1      34.776 -16.295 -22.018  0.00  0.00    +0.019 C 
ATOM     33  C   UNL     1      34.460 -15.682 -20.811  0.00  0.00    +0.003 C 
ATOM     34  C   UNL     1      34.910 -15.489 -23.138  0.00  0.00    +0.099 C 
ATOM     35  C   UNL     1      34.291 -14.303 -20.761  0.00  0.00    +0.021 C 
ATOM     36  C   UNL     1      34.447 -13.587 -21.937  0.00  0.00    +0.099 C 
ENDBRANCH  26  32
ENDBRANCH   5  25
TORSDOF 8
ENDMDL
MODEL 8
REMARK VINA RESULT:     -10.7      6.688     13.861
REMARK  Name = 4369498
REMARK  8 active torsions:
REMARK  status: ('A' for Active; 'I' for Inactive)
REMARK    1  A    between atoms: N_2  and  C_11
REMARK    2  A    between atoms: C_5  and  C_25
REMARK    3  A    between atoms: C_8  and  S_14
REMARK    4  A    between atoms: C_13  and  O_23
REMARK    5  A    between atoms: S_14  and  N_17
REMARK    6  A    between atoms: N_17  and  C_19
REMARK    7  A    between atoms: C_19  and  C_20
REMARK    8  A    between atoms: C_26  and  C_32
REMARK                            x       y       z     vdW  Elec       q    Type
REMARK                         _______ _______ _______ _____ _____    ______ ____
ROOT
ATOM      1  O   UNL     1      33.951 -14.596 -22.926  0.00  0.00    -0.424 OA
ATOM      2  N   UNL     1      33.343 -12.387 -23.095  0.00  0.00    -0.265 N 
ATOM      3  N   UNL     1      34.167 -13.351 -21.050  0.00  0.00    -0.193 NA
ATOM      4  C   UNL     1      33.817 -13.386 -22.316  0.00  0.00    +0.293 C 
ATOM      5  C   UNL     1      34.435 -15.399 -21.938  0.00  0.00    +0.168 C 
ATOM      6  C   UNL     1      34.563 -14.640 -20.802  0.00  0.00    +0.141 C 
ATOM      7  H   UNL     1      33.145 -12.645 -24.024  0.00  0.00    +0.157 HD
ENDROOT
BRANCH   2  11
ATOM      8  C   UNL     1      33.656  -8.688 -23.030  0.00  0.00    +0.123 C 
ATOM      9  C   UNL     1      33.897 -10.030 -23.330  0.00  0.00    +0.038 C 
ATOM     10  C   UNL     1      32.602  -8.341 -22.186  0.00  0.00    +0.023 C 
ATOM     11  C   UNL     1      33.084 -11.022 -22.784  0.00  0.00    +0.087 C 
ATOM     12  C   UNL     1      31.788  -9.334 -21.640  0.00  0.00    +0.040 C 
ATOM     13  C   UNL     1      32.029 -10.675 -21.939  0.00  0.00    +0.152 C 
BRANCH   8  14
ATOM     14  S   UNL     1      34.676  -7.444 -23.710  0.00  0.00    +0.060 S 
ATOM     15  O   UNL     1      35.717  -7.112 -22.746  0.00  0.00    -0.153 OA
ATOM     16  O   UNL     1      35.054  -7.865 -25.053  0.00  0.00    -0.153 OA
BRANCH  14  17
ATOM     17  N   UNL     1      33.605  -6.118 -23.837  0.00  0.00    -0.179 NA
ATOM     18  H   UNL     1      34.064  -5.324 -23.392  0.00  0.00    +0.149 HD
BRANCH  17  19
ATOM     19  C   UNL     1      33.157  -5.663 -25.161  0.00  0.00    +0.091 C 
BRANCH  19  20
ATOM     20  C   UNL     1      34.122  -4.680 -25.736  0.00  0.00    +0.017 C 
ATOM     21  C   UNL     1      34.283  -4.597 -27.226  0.00  0.00    +0.001 C 
ATOM     22  C   UNL     1      33.597  -3.489 -26.483  0.00  0.00    +0.001 C 
ENDBRANCH  19  20
ENDBRANCH  17  19
ENDBRANCH  14  17
ENDBRANCH   8  14
BRANCH  13  23
ATOM     23  O   UNL     1      31.224 -11.630 -21.395  0.00  0.00    -0.470 OA
ATOM     24  C   UNL     1      31.005 -11.566 -19.987  0.00  0.00    +0.253 C 
ENDBRANCH  13  23
ENDBRANCH   2  11
BRANCH   5  25
ATOM     25  C   UNL     1      34.682 -16.775 -22.293  0.00  0.00    +0.036 C 
ATOM     26  C   UNL     1      34.932 -19.091 -21.652  0.00  0.00    +0.002 C 
ATOM     27  C   UNL     1      34.693 -17.761 -21.307  0.00  0.00    +0.003 C 
ATOM     28  C   UNL     1      34.908 -17.120 -23.626  0.00  0.00    +0.003 C 
ATOM     29  C   UNL     1      35.159 -19.435 -22.985  0.00  0.00    +0.000 C 
ATOM     30  C   UNL     1      35.147 -18.450 -23.972  0.00  0.00    +0.000 C 
BRANCH  26  32
ATOM     31  N   UNL     1      36.221 -21.547 -19.158  0.00  0.00    -0.242 NA
ATOM     32  C   UNL     1      34.945 -20.113 -20.629  0.00  0.00    +0.019 C 
ATOM     33  C   UNL     1      33.761 -20.645 -20.130  0.00  0.00    +0.003 C 
ATOM     34  C   UNL     1      36.139 -20.595 -20.114  0.00  0.00    +0.099 C 
ATOM     35  C   UNL     1      33.806 -21.626 -19.147  0.00  0.00    +0.021 C 
ATOM     36  C   UNL     1      35.050 -22.039 -18.699  0.00  0.00    +0.099 C 
ENDBRANCH  26  32
ENDBRANCH   5  25
TORSDOF 8
ENDMDL
MODEL 9
REMARK VINA RESULT:     -10.2      6.567     14.027
REMARK  Name = 4369498
REMARK  8 active torsions:
REMARK  status: ('A' for Active; 'I' for Inactive)
REMARK    1  A    between atoms: N_2  and  C_11
REMARK    2  A    between atoms: C_5  and  C_25
REMARK    3  A    between atoms: C_8  and  S_14
REMARK    4  A    between atoms: C_13  and  O_23
REMARK    5  A    between atoms: S_14  and  N_17
REMARK    6  A    between atoms: N_17  and  C_19
REMARK    7  A    between atoms: C_19  and  C_20
REMARK    8  A    between atoms: C_26  and  C_32
REMARK                            x       y       z     vdW  Elec       q    Type
REMARK                         _______ _______ _______ _____ _____    ______ ____
ROOT
ATOM      1  O   UNL     1      34.506 -14.348 -23.634  0.00  0.00    -0.424 OA
ATOM      2  N   UNL     1      34.292 -12.084 -23.958  0.00  0.00    -0.265 N 
ATOM      3  N   UNL     1      34.496 -13.066 -21.771  0.00  0.00    -0.193 NA
ATOM      4  C   UNL     1      34.428 -13.105 -23.082  0.00  0.00    +0.293 C 
ATOM      5  C   UNL     1      34.636 -15.168 -22.553  0.00  0.00    +0.168 C 
ATOM      6  C   UNL     1      34.629 -14.386 -21.426  0.00  0.00    +0.141 C 
ATOM      7  H   UNL     1      34.264 -12.351 -24.905  0.00  0.00    +0.157 HD
ENDROOT
BRANCH   2  11
ATOM      8  C   UNL     1      32.983  -8.824 -22.756  0.00  0.00    +0.123 C 
ATOM      9  C   UNL     1      33.105 -10.195 -22.987  0.00  0.00    +0.038 C 
ATOM     10  C   UNL     1      33.938  -7.943 -23.264  0.00  0.00    +0.023 C 
ATOM     11  C   UNL     1      34.181 -10.683 -23.727  0.00  0.00    +0.087 C 
ATOM     12  C   UNL     1      35.015  -8.433 -24.004  0.00  0.00    +0.040 C 
ATOM     13  C   UNL     1      35.137  -9.803 -24.235  0.00  0.00    +0.152 C 
BRANCH   8  14
ATOM     14  S   UNL     1      31.634  -8.209 -21.833  0.00  0.00    +0.060 S 
ATOM     15  O   UNL     1      30.431  -8.285 -22.654  0.00  0.00    -0.153 OA
ATOM     16  O   UNL     1      31.651  -8.863 -20.532  0.00  0.00    -0.153 OA
BRANCH  14  17
ATOM     17  N   UNL     1      32.050  -6.565 -21.623  0.00  0.00    -0.179 NA
ATOM     18  H   UNL     1      32.681  -6.320 -22.386  0.00  0.00    +0.149 HD
BRANCH  17  19
ATOM     19  C   UNL     1      30.995  -5.541 -21.598  0.00  0.00    +0.091 C 
BRANCH  19  20
ATOM     20  C   UNL     1      30.939  -4.808 -22.897  0.00  0.00    +0.017 C 
ATOM     21  C   UNL     1      31.656  -3.496 -23.030  0.00  0.00    +0.001 C 
ATOM     22  C   UNL     1      32.178  -4.711 -23.738  0.00  0.00    +0.001 C 
ENDBRANCH  19  20
ENDBRANCH  17  19
ENDBRANCH  14  17
ENDBRANCH   8  14
BRANCH  13  23
ATOM     23  O   UNL     1      36.195 -10.261 -24.961  0.00  0.00    -0.470 OA
ATOM     24  C   UNL     1      36.463  -9.605 -26.199  0.00  0.00    +0.253 C 
ENDBRANCH  13  23
ENDBRANCH   2  11
BRANCH   5  25
ATOM     25  C   UNL     1      34.743 -16.580 -22.830  0.00  0.00    +0.036 C 
ATOM     26  C   UNL     1      34.915 -18.859 -22.048  0.00  0.00    +0.002 C 
ATOM     27  C   UNL     1      34.812 -17.495 -21.780  0.00  0.00    +0.003 C 
ATOM     28  C   UNL     1      34.775 -17.031 -24.150  0.00  0.00    +0.003 C 
ATOM     29  C   UNL     1      34.948 -19.309 -23.369  0.00  0.00    +0.000 C 
ATOM     30  C   UNL     1      34.877 -18.395 -24.420  0.00  0.00    +0.000 C 
BRANCH  26  32
ATOM     31  N   UNL     1      36.343 -21.023 -19.366  0.00  0.00    -0.242 NA
ATOM     32  C   UNL     1      34.989 -19.808 -20.959  0.00  0.00    +0.019 C 
ATOM     33  C   UNL     1      33.842 -20.411 -20.453  0.00  0.00    +0.003 C 
ATOM     34  C   UNL     1      36.205 -20.145 -20.385  0.00  0.00    +0.099 C 
ATOM     35  C   UNL     1      33.945 -21.319 -19.406  0.00  0.00    +0.021 C 
ATOM     36  C   UNL     1      35.207 -21.588 -18.902  0.00  0.00    +0.099 C 
ENDBRANCH  26  32
ENDBRANCH   5  25
TORSDOF 8
ENDMDL
