MODEL 1
REMARK VINA RESULT:     -11.6      0.000      0.000
REMARK  Name = 657131
REMARK  7 active torsions:
REMARK  status: ('A' for Active; 'I' for Inactive)
REMARK    1  A    between atoms: C_1  and  CA_2
REMARK    2  A    between atoms: C_1  and  C_3
REMARK    3  A    between atoms: CA_2  and  C_28
REMARK    4  A    between atoms: C_4  and  O_9
REMARK    5  A    between atoms: O_9  and  C_11
REMARK    6  A    between atoms: C_19  and  C_21
REMARK    7  A    between atoms: C_28  and  O_29
REMARK                            x       y       z     vdW  Elec       q    Type
REMARK                         _______ _______ _______ _____ _____    ______ ____
ROOT
ATOM      1  C   UNL     1      35.162 -15.805 -21.183  0.00  0.00    +0.074 C 
ENDROOT
BRANCH   1   2
ATOM      2  C   UNL     1      34.193 -14.733 -21.339  0.00  0.00    -0.016 C 
ATOM      3  C   UNL     1      32.336 -12.673 -21.640  0.00  0.00    +0.145 C 
ATOM      4  C   UNL     1      33.131 -14.614 -20.443  0.00  0.00    -0.001 C 
ATOM      5  C   UNL     1      34.327 -13.820 -22.386  0.00  0.00    -0.001 C 
ATOM      6  C   UNL     1      32.202 -13.584 -20.593  0.00  0.00    +0.037 C 
ATOM      7  C   UNL     1      33.398 -12.790 -22.536  0.00  0.00    +0.037 C 
BRANCH   3   8
ATOM      8  O   UNL     1      31.430 -11.668 -21.786  0.00  0.00    -0.453 OA
BRANCH   8  10
ATOM      9 BR   UNL     1      30.989 -10.769 -18.829  0.00  0.00    -0.046 Br
ATOM     10  C   UNL     1      31.859 -10.373 -21.544  0.00  0.00    +0.151 C 
ATOM     11  C   UNL     1      31.739  -9.813 -20.284  0.00  0.00    +0.069 C 
ATOM     12  C   UNL     1      32.408  -9.668 -22.602  0.00  0.00    +0.038 C 
ATOM     13  C   UNL     1      32.181  -8.507 -20.075  0.00  0.00    +0.010 C 
ATOM     14  C   UNL     1      32.851  -8.362 -22.392  0.00  0.00    +0.003 C 
ATOM     15  C   UNL     1      32.737  -7.781 -21.129  0.00  0.00    +0.001 C 
ENDBRANCH   8  10
ENDBRANCH   3   8
ENDBRANCH   1   2
BRANCH   1  16
ATOM     16  CA  UNL     1      35.031 -17.074 -21.636  0.00  0.00    +0.108 C 
ATOM     17  O   UNL     1      34.735 -19.790 -22.462  0.00  0.00    -0.270 OA
ATOM     18  N   UNL     1      34.800 -18.146 -20.819  0.00  0.00    -0.278 N 
ATOM     19  C   UNL     1      34.666 -19.444 -21.285  0.00  0.00    +0.249 C 
ATOM     20  H   UNL     1      34.726 -17.986 -19.850  0.00  0.00    +0.155 HD
BRANCH  19  21
ATOM     21  C   UNL     1      34.442 -20.479 -20.242  0.00  0.00    +0.054 C 
ATOM     22  C   UNL     1      35.532 -21.146 -19.722  0.00  0.00    +0.005 C 
ATOM     23  C   UNL     1      33.153 -20.738 -19.828  0.00  0.00    +0.005 C 
ATOM     24  C   UNL     1      35.322 -22.117 -18.743  0.00  0.00    +0.000 C 
ATOM     25  C   UNL     1      32.943 -21.709 -18.848  0.00  0.00    +0.000 C 
ATOM     26  C   UNL     1      34.028 -22.399 -18.306  0.00  0.00    +0.000 C 
ENDBRANCH  19  21
BRANCH  16  28
ATOM     27  OXT UNL     1      34.343 -16.992 -23.945  0.00  0.00    -0.244 OA
ATOM     28  C   UNL     1      35.161 -17.316 -23.097  0.00  0.00    +0.348 C 
BRANCH  28  29
ATOM     29  O   UNL     1      36.322 -17.954 -23.380  0.00  0.00    -0.476 OA
ATOM     30  H   UNL     1      36.513 -18.779 -22.979  0.00  0.00    +0.295 HD
ENDBRANCH  28  29
ENDBRANCH  16  28
ENDBRANCH   1  16
TORSDOF 7
ENDMDL
MODEL 2
REMARK VINA RESULT:     -11.4      3.248     10.232
REMARK  Name = 657131
REMARK  7 active torsions:
REMARK  status: ('A' for Active; 'I' for Inactive)
REMARK    1  A    between atoms: C_1  and  CA_2
REMARK    2  A    between atoms: C_1  and  C_3
REMARK    3  A    between atoms: CA_2  and  C_28
REMARK    4  A    between atoms: C_4  and  O_9
REMARK    5  A    between atoms: O_9  and  C_11
REMARK    6  A    between atoms: C_19  and  C_21
REMARK    7  A    between atoms: C_28  and  O_29
REMARK                            x       y       z     vdW  Elec       q    Type
REMARK                         _______ _______ _______ _____ _____    ______ ____
ROOT
ATOM      1  C   UNL     1      31.464 -12.042 -21.253  0.00  0.00    +0.074 C 
ENDROOT
BRANCH   1   2
ATOM      2  C   UNL     1      32.545 -12.977 -21.516  0.00  0.00    -0.016 C 
ATOM      3  C   UNL     1      34.621 -14.773 -22.017  0.00  0.00    +0.145 C 
ATOM      4  C   UNL     1      33.298 -12.865 -22.685  0.00  0.00    -0.001 C 
ATOM      5  C   UNL     1      32.832 -13.987 -20.596  0.00  0.00    -0.001 C 
ATOM      6  C   UNL     1      34.336 -13.763 -22.936  0.00  0.00    +0.037 C 
ATOM      7  C   UNL     1      33.869 -14.885 -20.848  0.00  0.00    +0.037 C 
BRANCH   3   8
ATOM      8  O   UNL     1      35.634 -15.648 -22.262  0.00  0.00    -0.453 OA
BRANCH   8  10
ATOM      9 BR   UNL     1      34.828 -16.564 -25.136  0.00  0.00    -0.046 Br
ATOM     10  C   UNL     1      35.319 -16.995 -22.332  0.00  0.00    +0.151 C 
ATOM     11  C   UNL     1      34.940 -17.570 -23.533  0.00  0.00    +0.069 C 
ATOM     12  C   UNL     1      35.397 -17.737 -21.166  0.00  0.00    +0.038 C 
ATOM     13  C   UNL     1      34.629 -18.929 -23.568  0.00  0.00    +0.010 C 
ATOM     14  C   UNL     1      35.087 -19.097 -21.202  0.00  0.00    +0.003 C 
ATOM     15  C   UNL     1      34.703 -19.692 -22.403  0.00  0.00    +0.001 C 
ENDBRANCH   8  10
ENDBRANCH   3   8
ENDBRANCH   1   2
BRANCH   1  16
ATOM     16  CA  UNL     1      31.596 -10.768 -20.813  0.00  0.00    +0.108 C 
ATOM     17  O   UNL     1      31.907  -8.046 -20.014  0.00  0.00    -0.270 OA
ATOM     18  N   UNL     1      31.952  -9.725 -21.622  0.00  0.00    -0.278 N 
ATOM     19  C   UNL     1      32.086  -8.421 -21.170  0.00  0.00    +0.249 C 
ATOM     20  H   UNL     1      32.121  -9.909 -22.574  0.00  0.00    +0.155 HD
BRANCH  19  21
ATOM     21  C   UNL     1      32.503  -7.428 -22.194  0.00  0.00    +0.054 C 
ATOM     22  C   UNL     1      33.795  -7.471 -22.675  0.00  0.00    +0.005 C 
ATOM     23  C   UNL     1      31.584  -6.497 -22.630  0.00  0.00    +0.005 C 
ATOM     24  C   UNL     1      34.186  -6.539 -23.636  0.00  0.00    +0.000 C 
ATOM     25  C   UNL     1      31.976  -5.564 -23.592  0.00  0.00    +0.000 C 
ATOM     26  C   UNL     1      33.277  -5.586 -24.094  0.00  0.00    +0.000 C 
ENDBRANCH  19  21
BRANCH  16  28
ATOM     27  OXT UNL     1      30.264 -10.459 -18.828  0.00  0.00    -0.244 OA
ATOM     28  C   UNL     1      31.358 -10.494 -19.372  0.00  0.00    +0.348 C 
BRANCH  28  29
ATOM     29  O   UNL     1      32.526 -10.280 -18.720  0.00  0.00    -0.476 OA
ATOM     30  H   UNL     1      32.615 -10.532 -17.823  0.00  0.00    +0.295 HD
ENDBRANCH  28  29
ENDBRANCH  16  28
ENDBRANCH   1  16
TORSDOF 7
ENDMDL
MODEL 3
REMARK VINA RESULT:     -11.4      3.822      6.813
REMARK  Name = 657131
REMARK  7 active torsions:
REMARK  status: ('A' for Active; 'I' for Inactive)
REMARK    1  A    between atoms: C_1  and  CA_2
REMARK    2  A    between atoms: C_1  and  C_3
REMARK    3  A    between atoms: CA_2  and  C_28
REMARK    4  A    between atoms: C_4  and  O_9
REMARK    5  A    between atoms: O_9  and  C_11
REMARK    6  A    between atoms: C_19  and  C_21
REMARK    7  A    between atoms: C_28  and  O_29
REMARK                            x       y       z     vdW  Elec       q    Type
REMARK                         _______ _______ _______ _____ _____    ______ ____
ROOT
ATOM      1  C   UNL     1      35.723 -22.073 -19.342  0.00  0.00    +0.074 C 
ENDROOT
BRANCH   1   2
ATOM      2  C   UNL     1      35.785 -20.823 -20.082  0.00  0.00    -0.016 C 
ATOM      3  C   UNL     1      35.901 -18.425 -21.504  0.00  0.00    +0.145 C 
ATOM      4  C   UNL     1      37.002 -20.159 -20.232  0.00  0.00    -0.001 C 
ATOM      5  C   UNL     1      34.625 -20.288 -20.645  0.00  0.00    -0.001 C 
ATOM      6  C   UNL     1      37.060 -18.960 -20.943  0.00  0.00    +0.037 C 
ATOM      7  C   UNL     1      34.683 -19.089 -21.355  0.00  0.00    +0.037 C 
BRANCH   3   8
ATOM      8  O   UNL     1      35.958 -17.256 -22.198  0.00  0.00    -0.453 OA
BRANCH   8  10
ATOM      9 BR   UNL     1      34.782 -15.944 -24.775  0.00  0.00    -0.046 Br
ATOM     10  C   UNL     1      34.996 -16.298 -21.927  0.00  0.00    +0.151 C 
ATOM     11  C   UNL     1      34.369 -15.615 -22.955  0.00  0.00    +0.069 C 
ATOM     12  C   UNL     1      34.689 -16.051 -20.600  0.00  0.00    +0.038 C 
ATOM     13  C   UNL     1      33.405 -14.656 -22.646  0.00  0.00    +0.010 C 
ATOM     14  C   UNL     1      33.723 -15.092 -20.292  0.00  0.00    +0.003 C 
ATOM     15  C   UNL     1      33.082 -14.394 -21.315  0.00  0.00    +0.001 C 
ENDBRANCH   8  10
ENDBRANCH   3   8
ENDBRANCH   1   2
BRANCH   1  16
ATOM     16  CA  UNL     1      35.691 -22.204 -17.996  0.00  0.00    +0.108 C 
ATOM     17  O   UNL     1      35.498 -22.532 -15.167  0.00  0.00    -0.270 OA
ATOM     18  N   UNL     1      34.607 -22.679 -17.310  0.00  0.00    -0.278 N 
ATOM     19  C   UNL     1      34.577 -22.814 -15.931  0.00  0.00    +0.249 C 
ATOM     20  H   UNL     1      33.808 -22.938 -17.823  0.00  0.00    +0.155 HD
BRANCH  19  21
ATOM     21  C   UNL     1      33.302 -23.325 -15.364  0.00  0.00    +0.054 C 
ATOM     22  C   UNL     1      32.136 -23.141 -16.078  0.00  0.00    +0.005 C 
ATOM     23  C   UNL     1      33.326 -23.969 -14.146  0.00  0.00    +0.005 C 
ATOM     24  C   UNL     1      30.940 -23.622 -15.548  0.00  0.00    +0.000 C 
ATOM     25  C   UNL     1      32.129 -24.450 -13.614  0.00  0.00    +0.000 C 
ATOM     26  C   UNL     1      30.935 -24.276 -14.316  0.00  0.00    +0.000 C 
ENDBRANCH  19  21
BRANCH  16  28
ATOM     27  OXT UNL     1      37.213 -20.646 -16.962  0.00  0.00    -0.244 OA
ATOM     28  C   UNL     1      36.892 -21.796 -17.221  0.00  0.00    +0.348 C 
BRANCH  28  29
ATOM     29  O   UNL     1      37.606 -22.880 -16.829  0.00  0.00    -0.476 OA
ATOM     30  H   UNL     1      37.175 -23.599 -16.411  0.00  0.00    +0.295 HD
ENDBRANCH  28  29
ENDBRANCH  16  28
ENDBRANCH   1  16
TORSDOF 7
ENDMDL
MODEL 4
REMARK VINA RESULT:     -11.1      3.808      6.714
REMARK  Name = 657131
REMARK  7 active torsions:
REMARK  status: ('A' for Active; 'I' for Inactive)
REMARK    1  A    between atoms: C_1  and  CA_2
REMARK    2  A    between atoms: C_1  and  C_3
REMARK    3  A    between atoms: CA_2  and  C_28
REMARK    4  A    between atoms: C_4  and  O_9
REMARK    5  A    between atoms: O_9  and  C_11
REMARK    6  A    between atoms: C_19  and  C_21
REMARK    7  A    between atoms: C_28  and  O_29
REMARK                            x       y       z     vdW  Elec       q    Type
REMARK                         _______ _______ _______ _____ _____    ______ ____
ROOT
ATOM      1  C   UNL     1      36.221 -21.775 -19.185  0.00  0.00    +0.074 C 
ENDROOT
BRANCH   1   2
ATOM      2  C   UNL     1      36.077 -20.641 -20.083  0.00  0.00    -0.016 C 
ATOM      3  C   UNL     1      35.805 -18.462 -21.804  0.00  0.00    +0.145 C 
ATOM      4  C   UNL     1      34.866 -20.414 -20.735  0.00  0.00    -0.001 C 
ATOM      5  C   UNL     1      37.153 -19.776 -20.291  0.00  0.00    -0.001 C 
ATOM      6  C   UNL     1      34.729 -19.325 -21.596  0.00  0.00    +0.037 C 
ATOM      7  C   UNL     1      37.016 -18.687 -21.151  0.00  0.00    +0.037 C 
BRANCH   3   8
ATOM      8  O   UNL     1      35.671 -17.399 -22.643  0.00  0.00    -0.453 OA
BRANCH   8  10
ATOM      9 BR   UNL     1      34.447 -15.783 -25.018  0.00  0.00    -0.046 Br
ATOM     10  C   UNL     1      34.873 -16.346 -22.227  0.00  0.00    +0.151 C 
ATOM     11  C   UNL     1      34.251 -15.524 -23.150  0.00  0.00    +0.069 C 
ATOM     12  C   UNL     1      34.724 -16.150 -20.865  0.00  0.00    +0.038 C 
ATOM     13  C   UNL     1      33.454 -14.472 -22.697  0.00  0.00    +0.010 C 
ATOM     14  C   UNL     1      33.927 -15.098 -20.412  0.00  0.00    +0.003 C 
ATOM     15  C   UNL     1      33.292 -14.260 -21.328  0.00  0.00    +0.001 C 
ENDBRANCH   8  10
ENDBRANCH   3   8
ENDBRANCH   1   2
BRANCH   1  16
ATOM     16  CA  UNL     1      35.278 -22.249 -18.337  0.00  0.00    +0.108 C 
ATOM     17  O   UNL     1      33.385 -23.252 -16.451  0.00  0.00    -0.270 OA
ATOM     18  N   UNL     1      35.530 -22.565 -17.031  0.00  0.00    -0.278 N 
ATOM     19  C   UNL     1      34.563 -23.049 -16.164  0.00  0.00    +0.249 C 
ATOM     20  H   UNL     1      36.444 -22.442 -16.689  0.00  0.00    +0.155 HD
BRANCH  19  21
ATOM     21  C   UNL     1      35.032 -23.358 -14.788  0.00  0.00    +0.054 C 
ATOM     22  C   UNL     1      36.334 -23.056 -14.446  0.00  0.00    +0.005 C 
ATOM     23  C   UNL     1      34.150 -23.934 -13.898  0.00  0.00    +0.005 C 
ATOM     24  C   UNL     1      36.774 -23.345 -13.155  0.00  0.00    +0.000 C 
ATOM     25  C   UNL     1      34.591 -24.223 -12.606  0.00  0.00    +0.000 C 
ATOM     26  C   UNL     1      35.903 -23.928 -12.235  0.00  0.00    +0.000 C 
ENDBRANCH  19  21
BRANCH  16  28
ATOM     27  OXT UNL     1      33.003 -21.622 -18.831  0.00  0.00    -0.244 OA
ATOM     28  C   UNL     1      33.901 -22.451 -18.859  0.00  0.00    +0.348 C 
BRANCH  28  29
ATOM     29  O   UNL     1      33.758 -23.693 -19.380  0.00  0.00    -0.476 OA
ATOM     30  H   UNL     1      33.083 -24.260 -19.063  0.00  0.00    +0.295 HD
ENDBRANCH  28  29
ENDBRANCH  16  28
ENDBRANCH   1  16
TORSDOF 7
ENDMDL
MODEL 5
REMARK VINA RESULT:     -10.5      3.513     10.107
REMARK  Name = 657131
REMARK  7 active torsions:
REMARK  status: ('A' for Active; 'I' for Inactive)
REMARK    1  A    between atoms: C_1  and  CA_2
REMARK    2  A    between atoms: C_1  and  C_3
REMARK    3  A    between atoms: CA_2  and  C_28
REMARK    4  A    between atoms: C_4  and  O_9
REMARK    5  A    between atoms: O_9  and  C_11
REMARK    6  A    between atoms: C_19  and  C_21
REMARK    7  A    between atoms: C_28  and  O_29
REMARK                            x       y       z     vdW  Elec       q    Type
REMARK                         _______ _______ _______ _____ _____    ______ ____
ROOT
ATOM      1  C   UNL     1      31.546 -12.232 -21.374  0.00  0.00    +0.074 C 
ENDROOT
BRANCH   1   2
ATOM      2  C   UNL     1      32.610 -13.201 -21.577  0.00  0.00    -0.016 C 
ATOM      3  C   UNL     1      34.652 -15.061 -21.965  0.00  0.00    +0.145 C 
ATOM      4  C   UNL     1      33.460 -13.085 -22.677  0.00  0.00    -0.001 C 
ATOM      5  C   UNL     1      32.782 -14.247 -20.671  0.00  0.00    -0.001 C 
ATOM      6  C   UNL     1      34.482 -14.015 -22.871  0.00  0.00    +0.037 C 
ATOM      7  C   UNL     1      33.803 -15.178 -20.865  0.00  0.00    +0.037 C 
BRANCH   3   8
ATOM      8  O   UNL     1      35.649 -15.968 -22.153  0.00  0.00    -0.453 OA
BRANCH   8  10
ATOM      9 BR   UNL     1      36.530 -18.532 -20.604  0.00  0.00    -0.046 Br
ATOM     10  C   UNL     1      35.337 -17.140 -22.823  0.00  0.00    +0.151 C 
ATOM     11  C   UNL     1      35.656 -18.372 -22.278  0.00  0.00    +0.069 C 
ATOM     12  C   UNL     1      34.698 -17.032 -24.046  0.00  0.00    +0.038 C 
ATOM     13  C   UNL     1      35.327 -19.532 -22.979  0.00  0.00    +0.010 C 
ATOM     14  C   UNL     1      34.369 -18.193 -24.747  0.00  0.00    +0.003 C 
ATOM     15  C   UNL     1      34.683 -19.442 -24.213  0.00  0.00    +0.001 C 
ENDBRANCH   8  10
ENDBRANCH   3   8
ENDBRANCH   1   2
BRANCH   1  16
ATOM     16  CA  UNL     1      31.698 -10.949 -20.971  0.00  0.00    +0.108 C 
ATOM     17  O   UNL     1      32.058  -8.211 -20.247  0.00  0.00    -0.270 OA
ATOM     18  N   UNL     1      32.128  -9.946 -21.794  0.00  0.00    -0.278 N 
ATOM     19  C   UNL     1      32.283  -8.632 -21.380  0.00  0.00    +0.249 C 
ATOM     20  H   UNL     1      32.339 -10.168 -22.730  0.00  0.00    +0.155 HD
BRANCH  19  21
ATOM     21  C   UNL     1      32.783  -7.688 -22.412  0.00  0.00    +0.054 C 
ATOM     22  C   UNL     1      34.142  -7.605 -22.635  0.00  0.00    +0.005 C 
ATOM     23  C   UNL     1      31.874  -6.928 -23.116  0.00  0.00    +0.005 C 
ATOM     24  C   UNL     1      34.612  -6.720 -23.604  0.00  0.00    +0.000 C 
ATOM     25  C   UNL     1      32.344  -6.042 -24.087  0.00  0.00    +0.000 C 
ATOM     26  C   UNL     1      33.714  -5.939 -24.330  0.00  0.00    +0.000 C 
ENDBRANCH  19  21
BRANCH  16  28
ATOM     27  OXT UNL     1      30.278 -10.501 -19.075  0.00  0.00    -0.244 OA
ATOM     28  C   UNL     1      31.396 -10.617 -19.554  0.00  0.00    +0.348 C 
BRANCH  28  29
ATOM     29  O   UNL     1      32.537 -10.454 -18.842  0.00  0.00    -0.476 OA
ATOM     30  H   UNL     1      33.359 -10.377 -19.285  0.00  0.00    +0.295 HD
ENDBRANCH  28  29
ENDBRANCH  16  28
ENDBRANCH   1  16
TORSDOF 7
ENDMDL
MODEL 6
REMARK VINA RESULT:     -10.5      5.019      8.502
REMARK  Name = 657131
REMARK  7 active torsions:
REMARK  status: ('A' for Active; 'I' for Inactive)
REMARK    1  A    between atoms: C_1  and  CA_2
REMARK    2  A    between atoms: C_1  and  C_3
REMARK    3  A    between atoms: CA_2  and  C_28
REMARK    4  A    between atoms: C_4  and  O_9
REMARK    5  A    between atoms: O_9  and  C_11
REMARK    6  A    between atoms: C_19  and  C_21
REMARK    7  A    between atoms: C_28  and  O_29
REMARK                            x       y       z     vdW  Elec       q    Type
REMARK                         _______ _______ _______ _____ _____    ______ ____
ROOT
ATOM      1  C   UNL     1      32.736 -22.634 -17.872  0.00  0.00    +0.074 C 
ENDROOT
BRANCH   1   2
ATOM      2  C   UNL     1      33.604 -21.858 -18.742  0.00  0.00    -0.016 C 
ATOM      3  C   UNL     1      35.267 -20.367 -20.414  0.00  0.00    +0.145 C 
ATOM      4  C   UNL     1      34.985 -22.047 -18.702  0.00  0.00    -0.001 C 
ATOM      5  C   UNL     1      33.054 -20.923 -19.620  0.00  0.00    -0.001 C 
ATOM      6  C   UNL     1      35.817 -21.302 -19.538  0.00  0.00    +0.037 C 
ATOM      7  C   UNL     1      33.886 -20.178 -20.456  0.00  0.00    +0.037 C 
BRANCH   3   8
ATOM      8  O   UNL     1      36.078 -19.641 -21.230  0.00  0.00    -0.453 OA
BRANCH   8  10
ATOM      9 BR   UNL     1      35.283 -19.903 -24.238  0.00  0.00    -0.046 Br
ATOM     10  C   UNL     1      35.573 -18.466 -21.761  0.00  0.00    +0.151 C 
ATOM     11  C   UNL     1      35.171 -18.404 -23.084  0.00  0.00    +0.069 C 
ATOM     12  C   UNL     1      35.487 -17.366 -20.925  0.00  0.00    +0.038 C 
ATOM     13  C   UNL     1      34.667 -17.204 -23.587  0.00  0.00    +0.010 C 
ATOM     14  C   UNL     1      34.983 -16.166 -21.429  0.00  0.00    +0.003 C 
ATOM     15  C   UNL     1      34.573 -16.086 -22.759  0.00  0.00    +0.001 C 
ENDBRANCH   8  10
ENDBRANCH   3   8
ENDBRANCH   1   2
BRANCH   1  16
ATOM     16  CA  UNL     1      33.071 -23.160 -16.671  0.00  0.00    +0.108 C 
ATOM     17  O   UNL     1      33.906 -24.276 -14.180  0.00  0.00    -0.270 OA
ATOM     18  N   UNL     1      34.342 -23.540 -16.342  0.00  0.00    -0.278 N 
ATOM     19  C   UNL     1      34.683 -24.078 -15.111  0.00  0.00    +0.249 C 
ATOM     20  H   UNL     1      35.052 -23.426 -17.015  0.00  0.00    +0.155 HD
BRANCH  19  21
ATOM     21  C   UNL     1      36.112 -24.452 -14.948  0.00  0.00    +0.054 C 
ATOM     22  C   UNL     1      36.423 -25.748 -14.589  0.00  0.00    +0.005 C 
ATOM     23  C   UNL     1      37.080 -23.495 -15.164  0.00  0.00    +0.005 C 
ATOM     24  C   UNL     1      37.764 -26.100 -14.437  0.00  0.00    +0.000 C 
ATOM     25  C   UNL     1      38.421 -23.847 -15.011  0.00  0.00    +0.000 C 
ATOM     26  C   UNL     1      38.763 -25.150 -14.648  0.00  0.00    +0.000 C 
ENDBRANCH  19  21
BRANCH  16  28
ATOM     27  OXT UNL     1      31.169 -24.248 -15.665  0.00  0.00    -0.244 OA
ATOM     28  C   UNL     1      31.995 -23.348 -15.661  0.00  0.00    +0.348 C 
BRANCH  28  29
ATOM     29  O   UNL     1      32.044 -22.378 -14.717  0.00  0.00    -0.476 OA
ATOM     30  H   UNL     1      31.264 -21.915 -14.480  0.00  0.00    +0.295 HD
ENDBRANCH  28  29
ENDBRANCH  16  28
ENDBRANCH   1  16
TORSDOF 7
ENDMDL
MODEL 7
REMARK VINA RESULT:     -10.5      1.645      2.279
REMARK  Name = 657131
REMARK  7 active torsions:
REMARK  status: ('A' for Active; 'I' for Inactive)
REMARK    1  A    between atoms: C_1  and  CA_2
REMARK    2  A    between atoms: C_1  and  C_3
REMARK    3  A    between atoms: CA_2  and  C_28
REMARK    4  A    between atoms: C_4  and  O_9
REMARK    5  A    between atoms: O_9  and  C_11
REMARK    6  A    between atoms: C_19  and  C_21
REMARK    7  A    between atoms: C_28  and  O_29
REMARK                            x       y       z     vdW  Elec       q    Type
REMARK                         _______ _______ _______ _____ _____    ______ ____
ROOT
ATOM      1  C   UNL     1      34.344 -15.296 -20.858  0.00  0.00    +0.074 C 
ENDROOT
BRANCH   1   2
ATOM      2  C   UNL     1      33.884 -14.089 -21.524  0.00  0.00    -0.016 C 
ATOM      3  C   UNL     1      32.998 -11.772 -22.802  0.00  0.00    +0.145 C 
ATOM      4  C   UNL     1      34.593 -13.576 -22.610  0.00  0.00    -0.001 C 
ATOM      5  C   UNL     1      32.730 -13.443 -21.078  0.00  0.00    -0.001 C 
ATOM      6  C   UNL     1      34.151 -12.418 -23.249  0.00  0.00    +0.037 C 
ATOM      7  C   UNL     1      32.287 -12.285 -21.717  0.00  0.00    +0.037 C 
BRANCH   3   8
ATOM      8  O   UNL     1      32.566 -10.643 -23.425  0.00  0.00    -0.453 OA
BRANCH   8  10
ATOM      9 BR   UNL     1      35.181  -9.113 -24.180  0.00  0.00    -0.046 Br
ATOM     10  C   UNL     1      32.704  -9.441 -22.751  0.00  0.00    +0.151 C 
ATOM     11  C   UNL     1      33.807  -8.633 -22.966  0.00  0.00    +0.069 C 
ATOM     12  C   UNL     1      31.705  -9.083 -21.862  0.00  0.00    +0.038 C 
ATOM     13  C   UNL     1      33.914  -7.429 -22.270  0.00  0.00    +0.010 C 
ATOM     14  C   UNL     1      31.813  -7.878 -21.167  0.00  0.00    +0.003 C 
ATOM     15  C   UNL     1      32.918  -7.052 -21.370  0.00  0.00    +0.001 C 
ENDBRANCH   8  10
ENDBRANCH   3   8
ENDBRANCH   1   2
BRANCH   1  16
ATOM     16  CA  UNL     1      34.601 -16.487 -21.448  0.00  0.00    +0.108 C 
ATOM     17  O   UNL     1      35.118 -19.060 -22.572  0.00  0.00    -0.270 OA
ATOM     18  N   UNL     1      34.550 -17.682 -20.786  0.00  0.00    -0.278 N 
ATOM     19  C   UNL     1      34.813 -18.901 -21.392  0.00  0.00    +0.249 C 
ATOM     20  H   UNL     1      34.314 -17.677 -19.831  0.00  0.00    +0.155 HD
BRANCH  19  21
ATOM     21  C   UNL     1      34.730 -20.090 -20.504  0.00  0.00    +0.054 C 
ATOM     22  C   UNL     1      33.487 -20.548 -20.120  0.00  0.00    +0.005 C 
ATOM     23  C   UNL     1      35.898 -20.698 -20.095  0.00  0.00    +0.005 C 
ATOM     24  C   UNL     1      33.409 -21.664 -19.288  0.00  0.00    +0.000 C 
ATOM     25  C   UNL     1      35.820 -21.814 -19.262  0.00  0.00    +0.000 C 
ATOM     26  C   UNL     1      34.575 -22.297 -18.858  0.00  0.00    +0.000 C 
ENDBRANCH  19  21
BRANCH  16  28
ATOM     27  OXT UNL     1      34.188 -16.470 -23.823  0.00  0.00    -0.244 OA
ATOM     28  C   UNL     1      34.974 -16.493 -22.887  0.00  0.00    +0.348 C 
BRANCH  28  29
ATOM     29  O   UNL     1      36.320 -16.530 -23.038  0.00  0.00    -0.476 OA
ATOM     30  H   UNL     1      36.811 -17.246 -22.686  0.00  0.00    +0.295 HD
ENDBRANCH  28  29
ENDBRANCH  16  28
ENDBRANCH   1  16
TORSDOF 7
ENDMDL
MODEL 8
REMARK VINA RESULT:     -10.5      3.965      6.657
REMARK  Name = 657131
REMARK  7 active torsions:
REMARK  status: ('A' for Active; 'I' for Inactive)
REMARK    1  A    between atoms: C_1  and  CA_2
REMARK    2  A    between atoms: C_1  and  C_3
REMARK    3  A    between atoms: CA_2  and  C_28
REMARK    4  A    between atoms: C_4  and  O_9
REMARK    5  A    between atoms: O_9  and  C_11
REMARK    6  A    between atoms: C_19  and  C_21
REMARK    7  A    between atoms: C_28  and  O_29
REMARK                            x       y       z     vdW  Elec       q    Type
REMARK                         _______ _______ _______ _____ _____    ______ ____
ROOT
ATOM      1  C   UNL     1      35.857 -21.775 -19.840  0.00  0.00    +0.074 C 
ENDROOT
BRANCH   1   2
ATOM      2  C   UNL     1      35.737 -20.391 -20.268  0.00  0.00    -0.016 C 
ATOM      3  C   UNL     1      35.504 -17.735 -21.091  0.00  0.00    +0.145 C 
ATOM      4  C   UNL     1      36.874 -19.591 -20.375  0.00  0.00    -0.001 C 
ATOM      5  C   UNL     1      34.482 -19.862 -20.573  0.00  0.00    -0.001 C 
ATOM      6  C   UNL     1      36.758 -18.263 -20.787  0.00  0.00    +0.037 C 
ATOM      7  C   UNL     1      34.366 -18.534 -20.985  0.00  0.00    +0.037 C 
BRANCH   3   8
ATOM      8  O   UNL     1      35.391 -16.440 -21.493  0.00  0.00    -0.453 OA
BRANCH   8  10
ATOM      9 BR   UNL     1      33.663 -13.847 -21.695  0.00  0.00    -0.046 Br
ATOM     10  C   UNL     1      34.921 -16.202 -22.774  0.00  0.00    +0.151 C 
ATOM     11  C   UNL     1      34.137 -15.093 -23.043  0.00  0.00    +0.069 C 
ATOM     12  C   UNL     1      35.262 -17.106 -23.764  0.00  0.00    +0.038 C 
ATOM     13  C   UNL     1      33.680 -14.883 -24.345  0.00  0.00    +0.010 C 
ATOM     14  C   UNL     1      34.805 -16.895 -25.066  0.00  0.00    +0.003 C 
ATOM     15  C   UNL     1      34.015 -15.784 -25.355  0.00  0.00    +0.001 C 
ENDBRANCH   8  10
ENDBRANCH   3   8
ENDBRANCH   1   2
BRANCH   1  16
ATOM     16  CA  UNL     1      35.154 -22.370 -18.848  0.00  0.00    +0.108 C 
ATOM     17  O   UNL     1      33.775 -23.600 -16.672  0.00  0.00    -0.270 OA
ATOM     18  N   UNL     1      35.628 -22.524 -17.576  0.00  0.00    -0.278 N 
ATOM     19  C   UNL     1      34.907 -23.132 -16.560  0.00  0.00    +0.249 C 
ATOM     20  H   UNL     1      36.529 -22.184 -17.370  0.00  0.00    +0.155 HD
BRANCH  19  21
ATOM     21  C   UNL     1      35.599 -23.227 -15.249  0.00  0.00    +0.054 C 
ATOM     22  C   UNL     1      36.926 -22.857 -15.169  0.00  0.00    +0.005 C 
ATOM     23  C   UNL     1      34.893 -23.680 -14.155  0.00  0.00    +0.005 C 
ATOM     24  C   UNL     1      37.576 -22.946 -13.939  0.00  0.00    +0.000 C 
ATOM     25  C   UNL     1      35.544 -23.769 -12.924  0.00  0.00    +0.000 C 
ATOM     26  C   UNL     1      36.886 -23.402 -12.816  0.00  0.00    +0.000 C 
ENDBRANCH  19  21
BRANCH  16  28
ATOM     27  OXT UNL     1      32.765 -22.247 -19.155  0.00  0.00    -0.244 OA
ATOM     28  C   UNL     1      33.800 -22.897 -19.164  0.00  0.00    +0.348 C 
BRANCH  28  29
ATOM     29  O   UNL     1      33.854 -24.216 -19.469  0.00  0.00    -0.476 OA
ATOM     30  H   UNL     1      33.064 -24.715 -19.534  0.00  0.00    +0.295 HD
ENDBRANCH  28  29
ENDBRANCH  16  28
ENDBRANCH   1  16
TORSDOF 7
ENDMDL
MODEL 9
REMARK VINA RESULT:     -10.3      4.399      6.434
REMARK  Name = 657131
REMARK  7 active torsions:
REMARK  status: ('A' for Active; 'I' for Inactive)
REMARK    1  A    between atoms: C_1  and  CA_2
REMARK    2  A    between atoms: C_1  and  C_3
REMARK    3  A    between atoms: CA_2  and  C_28
REMARK    4  A    between atoms: C_4  and  O_9
REMARK    5  A    between atoms: O_9  and  C_11
REMARK    6  A    between atoms: C_19  and  C_21
REMARK    7  A    between atoms: C_28  and  O_29
REMARK                            x       y       z     vdW  Elec       q    Type
REMARK                         _______ _______ _______ _____ _____    ______ ____
ROOT
ATOM      1  C   UNL     1      31.761 -12.249 -20.186  0.00  0.00    +0.074 C 
ENDROOT
BRANCH   1   2
ATOM      2  C   UNL     1      31.890 -10.830 -20.473  0.00  0.00    -0.016 C 
ATOM      3  C   UNL     1      32.137  -8.107 -21.028  0.00  0.00    +0.145 C 
ATOM      4  C   UNL     1      32.291  -9.947 -19.471  0.00  0.00    -0.001 C 
ATOM      5  C   UNL     1      31.612 -10.350 -21.754  0.00  0.00    -0.001 C 
ATOM      6  C   UNL     1      32.415  -8.585 -19.748  0.00  0.00    +0.037 C 
ATOM      7  C   UNL     1      31.736  -8.989 -22.031  0.00  0.00    +0.037 C 
BRANCH   3   8
ATOM      8  O   UNL     1      32.258  -6.779 -21.299  0.00  0.00    -0.453 OA
BRANCH   8  10
ATOM      9 BR   UNL     1      30.788  -4.580 -22.958  0.00  0.00    -0.046 Br
ATOM     10  C   UNL     1      32.946  -6.414 -22.444  0.00  0.00    +0.151 C 
ATOM     11  C   UNL     1      32.437  -5.451 -23.298  0.00  0.00    +0.069 C 
ATOM     12  C   UNL     1      34.151  -7.045 -22.700  0.00  0.00    +0.038 C 
ATOM     13  C   UNL     1      33.156  -5.107 -24.443  0.00  0.00    +0.010 C 
ATOM     14  C   UNL     1      34.870  -6.701 -23.846  0.00  0.00    +0.003 C 
ATOM     15  C   UNL     1      34.372  -5.733 -24.717  0.00  0.00    +0.001 C 
ENDBRANCH   8  10
ENDBRANCH   3   8
ENDBRANCH   1   2
BRANCH   1  16
ATOM     16  CA  UNL     1      32.370 -13.258 -20.850  0.00  0.00    +0.108 C 
ATOM     17  O   UNL     1      33.646 -15.313 -22.366  0.00  0.00    -0.270 OA
ATOM     18  N   UNL     1      32.648 -13.220 -22.188  0.00  0.00    -0.278 N 
ATOM     19  C   UNL     1      33.273 -14.255 -22.867  0.00  0.00    +0.249 C 
ATOM     20  H   UNL     1      32.393 -12.416 -22.695  0.00  0.00    +0.155 HD
BRANCH  19  21
ATOM     21  C   UNL     1      33.470 -14.039 -24.324  0.00  0.00    +0.054 C 
ATOM     22  C   UNL     1      33.451 -15.131 -25.167  0.00  0.00    +0.005 C 
ATOM     23  C   UNL     1      33.663 -12.755 -24.787  0.00  0.00    +0.005 C 
ATOM     24  C   UNL     1      33.636 -14.929 -26.534  0.00  0.00    +0.000 C 
ATOM     25  C   UNL     1      33.847 -12.553 -26.155  0.00  0.00    +0.000 C 
ATOM     26  C   UNL     1      33.834 -13.641 -27.028  0.00  0.00    +0.000 C 
ENDBRANCH  19  21
BRANCH  16  28
ATOM     27  OXT UNL     1      31.963 -15.347 -19.717  0.00  0.00    -0.244 OA
ATOM     28  C   UNL     1      32.740 -14.480 -20.088  0.00  0.00    +0.348 C 
BRANCH  28  29
ATOM     29  O   UNL     1      34.073 -14.514 -19.846  0.00  0.00    -0.476 OA
ATOM     30  H   UNL     1      34.435 -14.008 -19.146  0.00  0.00    +0.295 HD
ENDBRANCH  28  29
ENDBRANCH  16  28
ENDBRANCH   1  16
TORSDOF 7
ENDMDL
