MODEL 1
REMARK VINA RESULT:     -12.4      0.000      0.000
REMARK  Name = 66555680
REMARK  4 active torsions:
REMARK  status: ('A' for Active; 'I' for Inactive)
REMARK    1  A    between atoms: N_1  and  C_8
REMARK    2  A    between atoms: C_3  and  C_22
REMARK    3  A    between atoms: C_4  and  N_18
REMARK    4  A    between atoms: C_22  and  C_24
REMARK                            x       y       z     vdW  Elec       q    Type
REMARK                         _______ _______ _______ _____ _____    ______ ____
ROOT
ATOM      1  N   UNL     1      35.340 -19.757 -20.667  0.00  0.00    -0.177 N 
ATOM      2  N   UNL     1      36.580 -20.069 -20.251  0.00  0.00    -0.171 NA
ATOM      3  C   UNL     1      35.015 -21.463 -19.342  0.00  0.00    +0.090 C 
ATOM      4  C   UNL     1      34.367 -20.562 -20.152  0.00  0.00    +0.122 C 
ATOM      5  C   UNL     1      36.374 -21.112 -19.442  0.00  0.00    +0.124 C 
ENDROOT
BRANCH   1   8
ATOM      6  N   UNL     1      34.596 -15.025 -21.814  0.00  0.00    -0.318 N 
ATOM      7  N   UNL     1      34.609 -15.391 -24.007  0.00  0.00    -0.318 N 
ATOM      8  C   UNL     1      35.161 -18.689 -21.548  0.00  0.00    +0.077 C 
ATOM      9  C   UNL     1      34.799 -16.373 -21.959  0.00  0.00    +0.060 C 
ATOM     10  C   UNL     1      34.974 -17.401 -21.033  0.00  0.00    +0.032 C 
ATOM     11  C   UNL     1      34.803 -16.577 -23.336  0.00  0.00    +0.059 C 
ATOM     12  C   UNL     1      35.169 -18.924 -22.924  0.00  0.00    +0.018 C 
ATOM     13  C   UNL     1      34.991 -17.876 -23.836  0.00  0.00    +0.017 C 
ATOM     14  C   UNL     1      34.488 -14.482 -23.065  0.00  0.00    +0.144 C 
ATOM     15  C   UNL     1      34.264 -13.038 -23.256  0.00  0.00    +0.044 C 
ATOM     16  H   UNL     1      34.538 -14.535 -20.962  0.00  0.00    +0.148 HD
ATOM     17  H   UNL     1      34.568 -15.253 -24.981  0.00  0.00    +0.148 HD
ENDBRANCH   1   8
BRANCH   4  18
ATOM     18  N   UNL     1      33.062 -20.398 -20.459  0.00  0.00    -0.344 N 
ATOM     19  H   UNL     1      32.432 -21.147 -20.354  0.00  0.00    +0.144 HD
ATOM     20  H   UNL     1      32.740 -19.528 -20.789  0.00  0.00    +0.144 HD
ENDBRANCH   4  18
BRANCH   3  22
ATOM     21  O   UNL     1      33.500 -23.235 -19.143  0.00  0.00    -0.285 OA
ATOM     22  C   UNL     1      34.376 -22.570 -18.541  0.00  0.00    +0.213 C 
BRANCH  22  24
ATOM     23  N   UNL     1      35.984 -22.688 -16.674  0.00  0.00    -0.310 N 
ATOM     24  C   UNL     1      34.726 -22.859 -17.187  0.00  0.00    +0.088 C 
ATOM     25  C   UNL     1      36.008 -23.052 -15.345  0.00  0.00    +0.048 C 
ATOM     26  C   UNL     1      34.718 -23.468 -15.009  0.00  0.00    +0.015 C 
ATOM     27  C   UNL     1      33.920 -23.341 -16.182  0.00  0.00    +0.019 C 
ATOM     28  C   UNL     1      37.062 -23.045 -14.426  0.00  0.00    +0.015 C 
ATOM     29  C   UNL     1      34.465 -23.897 -13.692  0.00  0.00    +0.001 C 
ATOM     30  C   UNL     1      36.788 -23.475 -13.125  0.00  0.00    +0.001 C 
ATOM     31  C   UNL     1      35.510 -23.896 -12.761  0.00  0.00    +0.000 C 
ATOM     32  H   UNL     1      36.758 -22.353 -17.180  0.00  0.00    +0.152 HD
ENDBRANCH  22  24
ENDBRANCH   3  22
TORSDOF 4
ENDMDL
MODEL 2
REMARK VINA RESULT:     -12.1      2.941      9.242
REMARK  Name = 66555680
REMARK  4 active torsions:
REMARK  status: ('A' for Active; 'I' for Inactive)
REMARK    1  A    between atoms: N_1  and  C_8
REMARK    2  A    between atoms: C_3  and  C_22
REMARK    3  A    between atoms: C_4  and  N_18
REMARK    4  A    between atoms: C_22  and  C_24
REMARK                            x       y       z     vdW  Elec       q    Type
REMARK                         _______ _______ _______ _____ _____    ______ ____
ROOT
ATOM      1  N   UNL     1      34.867 -19.132 -21.875  0.00  0.00    -0.177 N 
ATOM      2  N   UNL     1      34.667 -19.561 -23.133  0.00  0.00    -0.171 NA
ATOM      3  C   UNL     1      34.939 -17.295 -23.054  0.00  0.00    +0.090 C 
ATOM      4  C   UNL     1      35.035 -17.782 -21.773  0.00  0.00    +0.122 C 
ATOM      5  C   UNL     1      34.712 -18.434 -23.849  0.00  0.00    +0.124 C 
ENDROOT
BRANCH   1   8
ATOM      6  N   UNL     1      32.794 -22.002 -18.450  0.00  0.00    -0.318 N 
ATOM      7  N   UNL     1      34.736 -22.795 -17.714  0.00  0.00    -0.318 N 
ATOM      8  C   UNL     1      34.884 -20.057 -20.830  0.00  0.00    +0.077 C 
ATOM      9  C   UNL     1      33.753 -21.394 -19.219  0.00  0.00    +0.060 C 
ATOM     10  C   UNL     1      33.675 -20.470 -20.261  0.00  0.00    +0.032 C 
ATOM     11  C   UNL     1      34.956 -21.906 -18.740  0.00  0.00    +0.059 C 
ATOM     12  C   UNL     1      36.106 -20.552 -20.370  0.00  0.00    +0.018 C 
ATOM     13  C   UNL     1      36.161 -21.480 -19.323  0.00  0.00    +0.017 C 
ATOM     14  C   UNL     1      33.430 -22.829 -17.566  0.00  0.00    +0.144 C 
ATOM     15  C   UNL     1      32.673 -23.635 -16.591  0.00  0.00    +0.044 C 
ATOM     16  H   UNL     1      31.821 -21.868 -18.523  0.00  0.00    +0.148 HD
ATOM     17  H   UNL     1      35.410 -23.297 -17.200  0.00  0.00    +0.148 HD
ENDBRANCH   1   8
BRANCH   4  18
ATOM     18  N   UNL     1      35.248 -17.173 -20.587  0.00  0.00    -0.344 N 
ATOM     19  H   UNL     1      36.081 -17.339 -20.090  0.00  0.00    +0.144 HD
ATOM     20  H   UNL     1      34.569 -16.562 -20.219  0.00  0.00    +0.144 HD
ENDBRANCH   4  18
BRANCH   3  22
ATOM     21  O   UNL     1      35.908 -15.616 -24.364  0.00  0.00    -0.285 OA
ATOM     22  C   UNL     1      35.057 -15.851 -23.475  0.00  0.00    +0.213 C 
BRANCH  22  24
ATOM     23  N   UNL     1      33.602 -14.910 -21.717  0.00  0.00    -0.310 N 
ATOM     24  C   UNL     1      34.265 -14.804 -22.911  0.00  0.00    +0.088 C 
ATOM     25  C   UNL     1      32.928 -13.742 -21.443  0.00  0.00    +0.048 C 
ATOM     26  C   UNL     1      33.174 -12.866 -22.503  0.00  0.00    +0.015 C 
ATOM     27  C   UNL     1      34.019 -13.550 -23.422  0.00  0.00    +0.019 C 
ATOM     28  C   UNL     1      32.127 -13.396 -20.350  0.00  0.00    +0.015 C 
ATOM     29  C   UNL     1      32.594 -11.583 -22.471  0.00  0.00    +0.001 C 
ATOM     30  C   UNL     1      31.562 -12.118 -20.340  0.00  0.00    +0.001 C 
ATOM     31  C   UNL     1      31.791 -11.223 -21.384  0.00  0.00    +0.000 C 
ATOM     32  H   UNL     1      33.607 -15.707 -21.139  0.00  0.00    +0.152 HD
ENDBRANCH  22  24
ENDBRANCH   3  22
TORSDOF 4
ENDMDL
MODEL 3
REMARK VINA RESULT:     -12.0      2.740      5.418
REMARK  Name = 66555680
REMARK  4 active torsions:
REMARK  status: ('A' for Active; 'I' for Inactive)
REMARK    1  A    between atoms: N_1  and  C_8
REMARK    2  A    between atoms: C_3  and  C_22
REMARK    3  A    between atoms: C_4  and  N_18
REMARK    4  A    between atoms: C_22  and  C_24
REMARK                            x       y       z     vdW  Elec       q    Type
REMARK                         _______ _______ _______ _____ _____    ______ ____
ROOT
ATOM      1  N   UNL     1      34.235 -15.424 -22.661  0.00  0.00    -0.177 N 
ATOM      2  N   UNL     1      34.281 -15.832 -23.941  0.00  0.00    -0.171 NA
ATOM      3  C   UNL     1      35.318 -17.317 -22.549  0.00  0.00    +0.090 C 
ATOM      4  C   UNL     1      34.842 -16.278 -21.787  0.00  0.00    +0.122 C 
ATOM      5  C   UNL     1      34.944 -16.990 -23.865  0.00  0.00    +0.124 C 
ENDROOT
BRANCH   1   8
ATOM      6  N   UNL     1      33.268 -10.630 -23.251  0.00  0.00    -0.318 N 
ATOM      7  N   UNL     1      31.821 -10.553 -21.564  0.00  0.00    -0.318 N 
ATOM      8  C   UNL     1      33.602 -14.219 -22.347  0.00  0.00    +0.077 C 
ATOM      9  C   UNL     1      33.228 -11.903 -22.743  0.00  0.00    +0.060 C 
ATOM     10  C   UNL     1      33.890 -13.077 -23.102  0.00  0.00    +0.032 C 
ATOM     11  C   UNL     1      32.319 -11.829 -21.692  0.00  0.00    +0.059 C 
ATOM     12  C   UNL     1      32.694 -14.176 -21.287  0.00  0.00    +0.018 C 
ATOM     13  C   UNL     1      32.041 -12.986 -20.944  0.00  0.00    +0.017 C 
ATOM     14  C   UNL     1      32.410  -9.860 -22.513  0.00  0.00    +0.144 C 
ATOM     15  C   UNL     1      32.221  -8.428 -22.808  0.00  0.00    +0.044 C 
ATOM     16  H   UNL     1      33.814 -10.324 -24.010  0.00  0.00    +0.148 HD
ATOM     17  H   UNL     1      31.166 -10.228 -20.905  0.00  0.00    +0.148 HD
ENDBRANCH   1   8
BRANCH   4  18
ATOM     18  N   UNL     1      34.893 -16.030 -20.460  0.00  0.00    -0.344 N 
ATOM     19  H   UNL     1      34.725 -15.122 -20.121  0.00  0.00    +0.144 HD
ATOM     20  H   UNL     1      35.099 -16.759 -19.832  0.00  0.00    +0.144 HD
ENDBRANCH   4  18
BRANCH   3  22
ATOM     21  O   UNL     1      37.232 -18.660 -22.496  0.00  0.00    -0.285 OA
ATOM     22  C   UNL     1      36.070 -18.524 -22.047  0.00  0.00    +0.213 C 
BRANCH  22  24
ATOM     23  N   UNL     1      36.267 -20.212 -20.258  0.00  0.00    -0.310 N 
ATOM     24  C   UNL     1      35.516 -19.464 -21.124  0.00  0.00    +0.088 C 
ATOM     25  C   UNL     1      35.452 -21.023 -19.501  0.00  0.00    +0.048 C 
ATOM     26  C   UNL     1      34.138 -20.777 -19.905  0.00  0.00    +0.015 C 
ATOM     27  C   UNL     1      34.194 -19.791 -20.931  0.00  0.00    +0.019 C 
ATOM     28  C   UNL     1      35.773 -21.945 -18.499  0.00  0.00    +0.015 C 
ATOM     29  C   UNL     1      33.093 -21.485 -19.281  0.00  0.00    +0.001 C 
ATOM     30  C   UNL     1      34.720 -22.636 -17.894  0.00  0.00    +0.001 C 
ATOM     31  C   UNL     1      33.399 -22.410 -18.277  0.00  0.00    +0.000 C 
ATOM     32  H   UNL     1      37.248 -20.175 -20.186  0.00  0.00    +0.152 HD
ENDBRANCH  22  24
ENDBRANCH   3  22
TORSDOF 4
ENDMDL
MODEL 4
REMARK VINA RESULT:     -11.6      2.646      5.248
REMARK  Name = 66555680
REMARK  4 active torsions:
REMARK  status: ('A' for Active; 'I' for Inactive)
REMARK    1  A    between atoms: N_1  and  C_8
REMARK    2  A    between atoms: C_3  and  C_22
REMARK    3  A    between atoms: C_4  and  N_18
REMARK    4  A    between atoms: C_22  and  C_24
REMARK                            x       y       z     vdW  Elec       q    Type
REMARK                         _______ _______ _______ _____ _____    ______ ____
ROOT
ATOM      1  N   UNL     1      34.328 -15.641 -22.661  0.00  0.00    -0.177 N 
ATOM      2  N   UNL     1      34.408 -16.040 -23.942  0.00  0.00    -0.171 NA
ATOM      3  C   UNL     1      35.385 -17.548 -22.531  0.00  0.00    +0.090 C 
ATOM      4  C   UNL     1      34.898 -16.509 -21.776  0.00  0.00    +0.122 C 
ATOM      5  C   UNL     1      35.055 -17.206 -23.856  0.00  0.00    +0.124 C 
ENDROOT
BRANCH   1   8
ATOM      6  N   UNL     1      31.720 -12.584 -19.812  0.00  0.00    -0.318 N 
ATOM      7  N   UNL     1      31.776 -10.915 -21.279  0.00  0.00    -0.318 N 
ATOM      8  C   UNL     1      33.700 -14.432 -22.357  0.00  0.00    +0.077 C 
ATOM      9  C   UNL     1      32.433 -13.061 -20.882  0.00  0.00    +0.060 C 
ATOM     10  C   UNL     1      33.043 -14.291 -21.130  0.00  0.00    +0.032 C 
ATOM     11  C   UNL     1      32.454 -12.001 -21.784  0.00  0.00    +0.059 C 
ATOM     12  C   UNL     1      33.737 -13.386 -23.282  0.00  0.00    +0.018 C 
ATOM     13  C   UNL     1      33.117 -12.161 -23.012  0.00  0.00    +0.017 C 
ATOM     14  C   UNL     1      31.349 -11.299 -20.097  0.00  0.00    +0.144 C 
ATOM     15  C   UNL     1      30.563 -10.499 -19.140  0.00  0.00    +0.044 C 
ATOM     16  H   UNL     1      31.513 -13.078 -18.986  0.00  0.00    +0.148 HD
ATOM     17  H   UNL     1      31.639 -10.041 -21.710  0.00  0.00    +0.148 HD
ENDBRANCH   1   8
BRANCH   4  18
ATOM     18  N   UNL     1      34.911 -16.273 -20.446  0.00  0.00    -0.344 N 
ATOM     19  H   UNL     1      34.562 -15.423 -20.093  0.00  0.00    +0.144 HD
ATOM     20  H   UNL     1      35.270 -16.951 -19.830  0.00  0.00    +0.144 HD
ENDBRANCH   4  18
BRANCH   3  22
ATOM     21  O   UNL     1      37.252 -18.957 -22.489  0.00  0.00    -0.285 OA
ATOM     22  C   UNL     1      36.106 -18.768 -22.016  0.00  0.00    +0.213 C 
BRANCH  22  24
ATOM     23  N   UNL     1      36.286 -20.374 -20.152  0.00  0.00    -0.310 N 
ATOM     24  C   UNL     1      35.543 -19.665 -21.057  0.00  0.00    +0.088 C 
ATOM     25  C   UNL     1      35.463 -21.149 -19.365  0.00  0.00    +0.048 C 
ATOM     26  C   UNL     1      34.153 -20.919 -19.790  0.00  0.00    +0.015 C 
ATOM     27  C   UNL     1      34.219 -19.980 -20.859  0.00  0.00    +0.019 C 
ATOM     28  C   UNL     1      35.774 -22.026 -18.321  0.00  0.00    +0.015 C 
ATOM     29  C   UNL     1      33.101 -21.595 -19.143  0.00  0.00    +0.001 C 
ATOM     30  C   UNL     1      34.715 -22.686 -17.693  0.00  0.00    +0.001 C 
ATOM     31  C   UNL     1      33.398 -22.476 -18.096  0.00  0.00    +0.000 C 
ATOM     32  H   UNL     1      37.267 -20.336 -20.074  0.00  0.00    +0.152 HD
ENDBRANCH  22  24
ENDBRANCH   3  22
TORSDOF 4
ENDMDL
MODEL 5
REMARK VINA RESULT:     -11.5      1.606      2.310
REMARK  Name = 66555680
REMARK  4 active torsions:
REMARK  status: ('A' for Active; 'I' for Inactive)
REMARK    1  A    between atoms: N_1  and  C_8
REMARK    2  A    between atoms: C_3  and  C_22
REMARK    3  A    between atoms: C_4  and  N_18
REMARK    4  A    between atoms: C_22  and  C_24
REMARK                            x       y       z     vdW  Elec       q    Type
REMARK                         _______ _______ _______ _____ _____    ______ ____
ROOT
ATOM      1  N   UNL     1      35.198 -19.809 -20.607  0.00  0.00    -0.177 N 
ATOM      2  N   UNL     1      36.382 -20.125 -20.054  0.00  0.00    -0.171 NA
ATOM      3  C   UNL     1      34.786 -21.686 -19.568  0.00  0.00    +0.090 C 
ATOM      4  C   UNL     1      34.209 -20.711 -20.346  0.00  0.00    +0.122 C 
ATOM      5  C   UNL     1      36.123 -21.273 -19.421  0.00  0.00    +0.124 C 
ENDROOT
BRANCH   1   8
ATOM      6  N   UNL     1      34.421 -14.987 -21.244  0.00  0.00    -0.318 N 
ATOM      7  N   UNL     1      34.707 -15.071 -23.447  0.00  0.00    -0.318 N 
ATOM      8  C   UNL     1      35.085 -18.641 -21.364  0.00  0.00    +0.077 C 
ATOM      9  C   UNL     1      34.689 -16.301 -21.529  0.00  0.00    +0.060 C 
ATOM     10  C   UNL     1      34.791 -17.434 -20.721  0.00  0.00    +0.032 C 
ATOM     11  C   UNL     1      34.864 -16.327 -22.909  0.00  0.00    +0.059 C 
ATOM     12  C   UNL     1      35.265 -18.699 -22.748  0.00  0.00    +0.018 C 
ATOM     13  C   UNL     1      35.158 -17.549 -23.538  0.00  0.00    +0.017 C 
ATOM     14  C   UNL     1      34.443 -14.292 -22.422  0.00  0.00    +0.144 C 
ATOM     15  C   UNL     1      34.190 -12.840 -22.459  0.00  0.00    +0.044 C 
ATOM     16  H   UNL     1      34.245 -14.610 -20.351  0.00  0.00    +0.148 HD
ATOM     17  H   UNL     1      34.778 -14.811 -24.394  0.00  0.00    +0.148 HD
ENDBRANCH   1   8
BRANCH   4  18
ATOM     18  N   UNL     1      32.953 -20.557 -20.821  0.00  0.00    -0.344 N 
ATOM     19  H   UNL     1      32.297 -20.027 -20.314  0.00  0.00    +0.144 HD
ATOM     20  H   UNL     1      32.695 -20.976 -21.673  0.00  0.00    +0.144 HD
ENDBRANCH   4  18
BRANCH   3  22
ATOM     21  O   UNL     1      34.114 -23.918 -19.762  0.00  0.00    -0.285 OA
ATOM     22  C   UNL     1      34.103 -22.911 -19.015  0.00  0.00    +0.213 C 
BRANCH  22  24
ATOM     23  N   UNL     1      32.139 -22.743 -17.531  0.00  0.00    -0.310 N 
ATOM     24  C   UNL     1      33.478 -22.947 -17.731  0.00  0.00    +0.088 C 
ATOM     25  C   UNL     1      31.839 -22.839 -16.190  0.00  0.00    +0.048 C 
ATOM     26  C   UNL     1      33.033 -23.114 -15.520  0.00  0.00    +0.015 C 
ATOM     27  C   UNL     1      34.059 -23.179 -16.506  0.00  0.00    +0.019 C 
ATOM     28  C   UNL     1      30.615 -22.705 -15.526  0.00  0.00    +0.015 C 
ATOM     29  C   UNL     1      33.006 -23.263 -14.121  0.00  0.00    +0.001 C 
ATOM     30  C   UNL     1      30.613 -22.857 -14.138  0.00  0.00    +0.001 C 
ATOM     31  C   UNL     1      31.789 -23.131 -13.443  0.00  0.00    +0.000 C 
ATOM     32  H   UNL     1      31.485 -22.555 -18.243  0.00  0.00    +0.152 HD
ENDBRANCH  22  24
ENDBRANCH   3  22
TORSDOF 4
ENDMDL
MODEL 6
REMARK VINA RESULT:     -11.5      4.823     11.886
REMARK  Name = 66555680
REMARK  4 active torsions:
REMARK  status: ('A' for Active; 'I' for Inactive)
REMARK    1  A    between atoms: N_1  and  C_8
REMARK    2  A    between atoms: C_3  and  C_22
REMARK    3  A    between atoms: C_4  and  N_18
REMARK    4  A    between atoms: C_22  and  C_24
REMARK                            x       y       z     vdW  Elec       q    Type
REMARK                         _______ _______ _______ _____ _____    ______ ____
ROOT
ATOM      1  N   UNL     1      33.789 -13.889 -22.676  0.00  0.00    -0.177 N 
ATOM      2  N   UNL     1      34.256 -12.987 -23.556  0.00  0.00    -0.171 NA
ATOM      3  C   UNL     1      32.668 -12.079 -22.189  0.00  0.00    +0.090 C 
ATOM      4  C   UNL     1      32.835 -13.395 -21.835  0.00  0.00    +0.122 C 
ATOM      5  C   UNL     1      33.568 -11.883 -23.253  0.00  0.00    +0.124 C 
ENDROOT
BRANCH   1   8
ATOM      6  N   UNL     1      35.643 -17.964 -20.623  0.00  0.00    -0.318 N 
ATOM      7  N   UNL     1      35.811 -19.051 -22.555  0.00  0.00    -0.318 N 
ATOM      8  C   UNL     1      34.292 -15.191 -22.696  0.00  0.00    +0.077 C 
ATOM      9  C   UNL     1      35.179 -17.093 -21.575  0.00  0.00    +0.060 C 
ATOM     10  C   UNL     1      34.683 -15.792 -21.495  0.00  0.00    +0.032 C 
ATOM     11  C   UNL     1      35.294 -17.795 -22.771  0.00  0.00    +0.059 C 
ATOM     12  C   UNL     1      34.396 -15.870 -23.912  0.00  0.00    +0.018 C 
ATOM     13  C   UNL     1      34.896 -17.176 -23.969  0.00  0.00    +0.017 C 
ATOM     14  C   UNL     1      36.008 -19.120 -21.257  0.00  0.00    +0.144 C 
ATOM     15  C   UNL     1      36.552 -20.266 -20.507  0.00  0.00    +0.044 C 
ATOM     16  H   UNL     1      35.701 -17.790 -19.656  0.00  0.00    +0.148 HD
ATOM     17  H   UNL     1      35.994 -19.748 -23.226  0.00  0.00    +0.148 HD
ENDBRANCH   1   8
BRANCH   4  18
ATOM     18  N   UNL     1      32.251 -14.158 -20.885  0.00  0.00    -0.344 N 
ATOM     19  H   UNL     1      32.738 -14.921 -20.499  0.00  0.00    +0.144 HD
ATOM     20  H   UNL     1      31.339 -13.950 -20.580  0.00  0.00    +0.144 HD
ENDBRANCH   4  18
BRANCH   3  22
ATOM     21  O   UNL     1      30.815 -11.595 -20.846  0.00  0.00    -0.285 OA
ATOM     22  C   UNL     1      31.719 -11.093 -21.554  0.00  0.00    +0.213 C 
BRANCH  22  24
ATOM     23  N   UNL     1      31.806  -9.065 -22.956  0.00  0.00    -0.310 N 
ATOM     24  C   UNL     1      31.823  -9.679 -21.733  0.00  0.00    +0.088 C 
ATOM     25  C   UNL     1      31.924  -7.701 -22.805  0.00  0.00    +0.048 C 
ATOM     26  C   UNL     1      32.019  -7.447 -21.435  0.00  0.00    +0.015 C 
ATOM     27  C   UNL     1      31.954  -8.705 -20.771  0.00  0.00    +0.019 C 
ATOM     28  C   UNL     1      31.954  -6.684 -23.765  0.00  0.00    +0.015 C 
ATOM     29  C   UNL     1      32.150  -6.114 -21.000  0.00  0.00    +0.001 C 
ATOM     30  C   UNL     1      32.084  -5.370 -23.310  0.00  0.00    +0.001 C 
ATOM     31  C   UNL     1      32.181  -5.086 -21.949  0.00  0.00    +0.000 C 
ATOM     32  H   UNL     1      31.721  -9.530 -23.820  0.00  0.00    +0.152 HD
ENDBRANCH  22  24
ENDBRANCH   3  22
TORSDOF 4
ENDMDL
MODEL 7
REMARK VINA RESULT:     -11.3      1.632      2.530
REMARK  Name = 66555680
REMARK  4 active torsions:
REMARK  status: ('A' for Active; 'I' for Inactive)
REMARK    1  A    between atoms: N_1  and  C_8
REMARK    2  A    between atoms: C_3  and  C_22
REMARK    3  A    between atoms: C_4  and  N_18
REMARK    4  A    between atoms: C_22  and  C_24
REMARK                            x       y       z     vdW  Elec       q    Type
REMARK                         _______ _______ _______ _____ _____    ______ ____
ROOT
ATOM      1  N   UNL     1      35.619 -18.478 -21.052  0.00  0.00    -0.177 N 
ATOM      2  N   UNL     1      36.895 -18.470 -20.630  0.00  0.00    -0.171 NA
ATOM      3  C   UNL     1      35.887 -20.477 -20.213  0.00  0.00    +0.090 C 
ATOM      4  C   UNL     1      34.971 -19.657 -20.826  0.00  0.00    +0.122 C 
ATOM      5  C   UNL     1      37.053 -19.694 -20.119  0.00  0.00    +0.124 C 
ENDROOT
BRANCH   1   8
ATOM      6  N   UNL     1      34.272 -15.706 -24.895  0.00  0.00    -0.318 N 
ATOM      7  N   UNL     1      33.550 -14.026 -23.631  0.00  0.00    -0.318 N 
ATOM      8  C   UNL     1      35.089 -17.336 -21.656  0.00  0.00    +0.077 C 
ATOM      9  C   UNL     1      34.485 -16.104 -23.600  0.00  0.00    +0.060 C 
ATOM     10  C   UNL     1      35.023 -17.269 -23.052  0.00  0.00    +0.032 C 
ATOM     11  C   UNL     1      34.026 -15.039 -22.831  0.00  0.00    +0.059 C 
ATOM     12  C   UNL     1      34.637 -16.283 -20.858  0.00  0.00    +0.018 C 
ATOM     13  C   UNL     1      34.101 -15.123 -21.430  0.00  0.00    +0.017 C 
ATOM     14  C   UNL     1      33.712 -14.459 -24.861  0.00  0.00    +0.144 C 
ATOM     15  C   UNL     1      33.359 -13.745 -26.102  0.00  0.00    +0.044 C 
ATOM     16  H   UNL     1      34.484 -16.225 -25.704  0.00  0.00    +0.148 HD
ATOM     17  H   UNL     1      33.170 -13.164 -23.345  0.00  0.00    +0.148 HD
ENDBRANCH   1   8
BRANCH   4  18
ATOM     18  N   UNL     1      33.682 -19.847 -21.184  0.00  0.00    -0.344 N 
ATOM     19  H   UNL     1      32.956 -19.540 -20.595  0.00  0.00    +0.144 HD
ATOM     20  H   UNL     1      33.469 -20.294 -22.035  0.00  0.00    +0.144 HD
ENDBRANCH   4  18
BRANCH   3  22
ATOM     21  O   UNL     1      36.235 -22.779 -20.433  0.00  0.00    -0.285 OA
ATOM     22  C   UNL     1      35.655 -21.896 -19.759  0.00  0.00    +0.213 C 
BRANCH  22  24
ATOM     23  N   UNL     1      35.330 -22.620 -17.422  0.00  0.00    -0.310 N 
ATOM     24  C   UNL     1      34.835 -22.236 -18.640  0.00  0.00    +0.088 C 
ATOM     25  C   UNL     1      34.296 -22.882 -16.551  0.00  0.00    +0.048 C 
ATOM     26  C   UNL     1      33.106 -22.655 -17.244  0.00  0.00    +0.015 C 
ATOM     27  C   UNL     1      33.461 -22.248 -18.561  0.00  0.00    +0.019 C 
ATOM     28  C   UNL     1      34.324 -23.298 -15.215  0.00  0.00    +0.015 C 
ATOM     29  C   UNL     1      31.883 -22.851 -16.574  0.00  0.00    +0.001 C 
ATOM     30  C   UNL     1      33.099 -23.487 -14.571  0.00  0.00    +0.001 C 
ATOM     31  C   UNL     1      31.895 -23.267 -15.239  0.00  0.00    +0.000 C 
ATOM     32  H   UNL     1      36.286 -22.698 -17.202  0.00  0.00    +0.152 HD
ENDBRANCH  22  24
ENDBRANCH   3  22
TORSDOF 4
ENDMDL
MODEL 8
REMARK VINA RESULT:     -11.2      1.064      1.855
REMARK  Name = 66555680
REMARK  4 active torsions:
REMARK  status: ('A' for Active; 'I' for Inactive)
REMARK    1  A    between atoms: N_1  and  C_8
REMARK    2  A    between atoms: C_3  and  C_22
REMARK    3  A    between atoms: C_4  and  N_18
REMARK    4  A    between atoms: C_22  and  C_24
REMARK                            x       y       z     vdW  Elec       q    Type
REMARK                         _______ _______ _______ _____ _____    ______ ____
ROOT
ATOM      1  N   UNL     1      35.353 -19.401 -20.734  0.00  0.00    -0.177 N 
ATOM      2  N   UNL     1      36.624 -19.728 -20.444  0.00  0.00    -0.171 NA
ATOM      3  C   UNL     1      35.150 -21.252 -19.592  0.00  0.00    +0.090 C 
ATOM      4  C   UNL     1      34.431 -20.281 -20.247  0.00  0.00    +0.122 C 
ATOM      5  C   UNL     1      36.493 -20.860 -19.746  0.00  0.00    +0.124 C 
ENDROOT
BRANCH   1   8
ATOM      6  N   UNL     1      34.570 -16.866 -24.885  0.00  0.00    -0.318 N 
ATOM      7  N   UNL     1      34.330 -14.920 -23.837  0.00  0.00    -0.318 N 
ATOM      8  C   UNL     1      35.094 -18.245 -21.474  0.00  0.00    +0.077 C 
ATOM      9  C   UNL     1      34.731 -17.145 -23.552  0.00  0.00    +0.060 C 
ATOM     10  C   UNL     1      34.989 -18.332 -22.866  0.00  0.00    +0.032 C 
ATOM     11  C   UNL     1      34.577 -15.915 -22.920  0.00  0.00    +0.059 C 
ATOM     12  C   UNL     1      34.944 -17.025 -20.811  0.00  0.00    +0.018 C 
ATOM     13  C   UNL     1      34.685 -15.846 -21.520  0.00  0.00    +0.017 C 
ATOM     14  C   UNL     1      34.332 -15.524 -25.004  0.00  0.00    +0.144 C 
ATOM     15  C   UNL     1      34.114 -14.900 -26.322  0.00  0.00    +0.044 C 
ATOM     16  H   UNL     1      34.615 -17.515 -25.623  0.00  0.00    +0.148 HD
ATOM     17  H   UNL     1      34.184 -13.963 -23.659  0.00  0.00    +0.148 HD
ENDBRANCH   1   8
BRANCH   4  18
ATOM     18  N   UNL     1      33.105 -20.114 -20.442  0.00  0.00    -0.344 N 
ATOM     19  H   UNL     1      32.755 -19.974 -21.351  0.00  0.00    +0.144 HD
ATOM     20  H   UNL     1      32.489 -20.131 -19.675  0.00  0.00    +0.144 HD
ENDBRANCH   4  18
BRANCH   3  22
ATOM     21  O   UNL     1      33.829 -23.182 -19.563  0.00  0.00    -0.285 OA
ATOM     22  C   UNL     1      34.587 -22.455 -18.879  0.00  0.00    +0.213 C 
BRANCH  22  24
ATOM     23  N   UNL     1      34.061 -23.510 -16.711  0.00  0.00    -0.310 N 
ATOM     24  C   UNL     1      34.882 -22.767 -17.516  0.00  0.00    +0.088 C 
ATOM     25  C   UNL     1      34.614 -23.637 -15.456  0.00  0.00    +0.048 C 
ATOM     26  C   UNL     1      35.829 -22.949 -15.471  0.00  0.00    +0.015 C 
ATOM     27  C   UNL     1      35.985 -22.404 -16.777  0.00  0.00    +0.019 C 
ATOM     28  C   UNL     1      34.137 -24.301 -14.322  0.00  0.00    +0.015 C 
ATOM     29  C   UNL     1      36.607 -22.922 -14.298  0.00  0.00    +0.001 C 
ATOM     30  C   UNL     1      34.926 -24.261 -13.169  0.00  0.00    +0.001 C 
ATOM     31  C   UNL     1      36.143 -23.582 -13.155  0.00  0.00    +0.000 C 
ATOM     32  H   UNL     1      33.199 -23.897 -16.989  0.00  0.00    +0.152 HD
ENDBRANCH  22  24
ENDBRANCH   3  22
TORSDOF 4
ENDMDL
MODEL 9
REMARK VINA RESULT:     -11.2      1.822      9.554
REMARK  Name = 66555680
REMARK  4 active torsions:
REMARK  status: ('A' for Active; 'I' for Inactive)
REMARK    1  A    between atoms: N_1  and  C_8
REMARK    2  A    between atoms: C_3  and  C_22
REMARK    3  A    between atoms: C_4  and  N_18
REMARK    4  A    between atoms: C_22  and  C_24
REMARK                            x       y       z     vdW  Elec       q    Type
REMARK                         _______ _______ _______ _____ _____    ______ ____
ROOT
ATOM      1  N   UNL     1      34.651 -20.900 -19.698  0.00  0.00    -0.177 N 
ATOM      2  N   UNL     1      33.488 -20.682 -20.336  0.00  0.00    -0.171 NA
ATOM      3  C   UNL     1      35.196 -19.489 -21.273  0.00  0.00    +0.090 C 
ATOM      4  C   UNL     1      35.705 -20.209 -20.220  0.00  0.00    +0.122 C 
ATOM      5  C   UNL     1      33.828 -19.820 -21.298  0.00  0.00    +0.124 C 
ENDROOT
BRANCH   1   8
ATOM      6  N   UNL     1      36.810 -23.220 -15.927  0.00  0.00    -0.318 N 
ATOM      7  N   UNL     1      34.968 -24.319 -15.343  0.00  0.00    -0.318 N 
ATOM      8  C   UNL     1      34.682 -21.772 -18.607  0.00  0.00    +0.077 C 
ATOM      9  C   UNL     1      35.848 -22.823 -16.820  0.00  0.00    +0.060 C 
ATOM     10  C   UNL     1      35.876 -21.939 -17.899  0.00  0.00    +0.032 C 
ATOM     11  C   UNL     1      34.709 -23.523 -16.434  0.00  0.00    +0.059 C 
ATOM     12  C   UNL     1      33.522 -22.460 -18.244  0.00  0.00    +0.018 C 
ATOM     13  C   UNL     1      33.517 -23.343 -17.158  0.00  0.00    +0.017 C 
ATOM     14  C   UNL     1      36.236 -24.113 -15.064  0.00  0.00    +0.144 C 
ATOM     15  C   UNL     1      37.012 -24.731 -13.974  0.00  0.00    +0.044 C 
ATOM     16  H   UNL     1      37.746 -22.915 -15.908  0.00  0.00    +0.148 HD
ATOM     17  H   UNL     1      34.341 -24.914 -14.872  0.00  0.00    +0.148 HD
ENDBRANCH   1   8
BRANCH   4  18
ATOM     18  N   UNL     1      36.951 -20.304 -19.707  0.00  0.00    -0.344 N 
ATOM     19  H   UNL     1      37.314 -19.574 -19.155  0.00  0.00    +0.144 HD
ATOM     20  H   UNL     1      37.496 -21.104 -19.885  0.00  0.00    +0.144 HD
ENDBRANCH   4  18
BRANCH   3  22
ATOM     21  O   UNL     1      37.178 -18.840 -22.332  0.00  0.00    -0.285 OA
ATOM     22  C   UNL     1      35.965 -18.561 -22.179  0.00  0.00    +0.213 C 
BRANCH  22  24
ATOM     23  N   UNL     1      35.158 -16.230 -22.214  0.00  0.00    -0.310 N 
ATOM     24  C   UNL     1      35.376 -17.433 -22.829  0.00  0.00    +0.088 C 
ATOM     25  C   UNL     1      34.577 -15.344 -23.094  0.00  0.00    +0.048 C 
ATOM     26  C   UNL     1      34.423 -16.015 -24.310  0.00  0.00    +0.015 C 
ATOM     27  C   UNL     1      34.931 -17.332 -24.127  0.00  0.00    +0.019 C 
ATOM     28  C   UNL     1      34.181 -14.016 -22.910  0.00  0.00    +0.015 C 
ATOM     29  C   UNL     1      33.846 -15.328 -25.395  0.00  0.00    +0.001 C 
ATOM     30  C   UNL     1      33.611 -13.354 -24.001  0.00  0.00    +0.001 C 
ATOM     31  C   UNL     1      33.445 -13.998 -25.226  0.00  0.00    +0.000 C 
ATOM     32  H   UNL     1      35.384 -16.026 -21.277  0.00  0.00    +0.152 HD
ENDBRANCH  22  24
ENDBRANCH   3  22
TORSDOF 4
ENDMDL
