MODEL 1
REMARK VINA RESULT:     -12.9      0.000      0.000
REMARK  Name = 24812719
REMARK  3 active torsions:
REMARK  status: ('A' for Active; 'I' for Inactive)
REMARK    1  A    between atoms: N_2  and  C_22
REMARK    2  A    between atoms: C_3  and  C_12
REMARK    3  A    between atoms: C_25  and  C_31
REMARK                            x       y       z     vdW  Elec       q    Type
REMARK                         _______ _______ _______ _____ _____    ______ ____
ROOT
ATOM      1  O   UNL     1      34.586 -15.969 -20.902  0.00  0.00    -0.269 OA
ATOM      2  N   UNL     1      35.074 -17.570 -22.558  0.00  0.00    -0.233 N 
ATOM      3  C   UNL     1      34.069 -15.352 -23.116  0.00  0.00    +0.046 C 
ATOM      4  C   UNL     1      34.153 -15.652 -24.428  0.00  0.00    -0.016 C 
ATOM      5  C   UNL     1      34.586 -16.330 -22.080  0.00  0.00    +0.256 C 
ATOM      6  C   UNL     1      35.140 -17.803 -23.927  0.00  0.00    +0.072 C 
ATOM      7  C   UNL     1      34.720 -16.917 -24.832  0.00  0.00    +0.012 C 
ATOM      8  C   UNL     1      33.692 -14.784 -25.568  0.00  0.00    +0.031 C 
ENDROOT
BRANCH   3  12
ATOM      9  N   UNL     1      31.872 -10.479 -21.308  0.00  0.00    -0.342 NA
ATOM     10  N   UNL     1      33.088  -9.266 -22.998  0.00  0.00    -0.170 NA
ATOM     11  N   UNL     1      31.683  -8.147 -21.493  0.00  0.00    -0.293 N 
ATOM     12  C   UNL     1      33.499 -14.075 -22.648  0.00  0.00    -0.017 C 
ATOM     13  C   UNL     1      33.844 -12.882 -23.276  0.00  0.00    +0.056 C 
ATOM     14  C   UNL     1      32.613 -14.055 -21.576  0.00  0.00    -0.022 C 
ATOM     15  C   UNL     1      33.296 -11.668 -22.827  0.00  0.00    +0.029 C 
ATOM     16  C   UNL     1      32.400 -11.635 -21.746  0.00  0.00    +0.124 C 
ATOM     17  C   UNL     1      32.074 -12.843 -21.136  0.00  0.00    +0.085 C 
ATOM     18  C   UNL     1      33.599 -10.441 -23.411  0.00  0.00    +0.110 C 
ATOM     19  C   UNL     1      32.244  -9.358 -21.958  0.00  0.00    +0.141 C 
ATOM     20  H   UNL     1      31.058  -8.155 -20.733  0.00  0.00    +0.155 HD
ATOM     21  H   UNL     1      31.918  -7.297 -21.930  0.00  0.00    +0.155 HD
ENDBRANCH   3  12
BRANCH   2  22
ATOM     22  C   UNL     1      35.529 -18.580 -21.620  0.00  0.00    +0.058 C 
ATOM     23  C   UNL     1      34.628 -19.512 -21.108  0.00  0.00    +0.019 C 
ATOM     24  C   UNL     1      36.867 -18.615 -21.228  0.00  0.00    +0.015 C 
ATOM     25  C   UNL     1      35.064 -20.482 -20.206  0.00  0.00    +0.073 C 
ATOM     26  C   UNL     1      37.304 -19.584 -20.325  0.00  0.00    +0.001 C 
ATOM     27  C   UNL     1      36.402 -20.518 -19.813  0.00  0.00    +0.004 C 
BRANCH  25  31
ATOM     28  F   UNL     1      34.499 -22.775 -19.824  0.00  0.00    -0.166 F 
ATOM     29  F   UNL     1      33.879 -21.345 -18.316  0.00  0.00    -0.166 F 
ATOM     30  F   UNL     1      32.870 -21.397 -20.242  0.00  0.00    -0.166 F 
ATOM     31  C   UNL     1      34.100 -21.480 -19.658  0.00  0.00    +0.419 C 
ENDBRANCH  25  31
ENDBRANCH   2  22
TORSDOF 3
ENDMDL
MODEL 2
REMARK VINA RESULT:     -11.8      0.971      1.823
REMARK  Name = 24812719
REMARK  3 active torsions:
REMARK  status: ('A' for Active; 'I' for Inactive)
REMARK    1  A    between atoms: N_2  and  C_22
REMARK    2  A    between atoms: C_3  and  C_12
REMARK    3  A    between atoms: C_25  and  C_31
REMARK                            x       y       z     vdW  Elec       q    Type
REMARK                         _______ _______ _______ _____ _____    ______ ____
ROOT
ATOM      1  O   UNL     1      34.782 -16.396 -20.862  0.00  0.00    -0.269 OA
ATOM      2  N   UNL     1      35.163 -18.156 -22.380  0.00  0.00    -0.233 N 
ATOM      3  C   UNL     1      34.334 -15.920 -23.125  0.00  0.00    +0.046 C 
ATOM      4  C   UNL     1      34.406 -16.328 -24.409  0.00  0.00    -0.016 C 
ATOM      5  C   UNL     1      34.765 -16.849 -22.008  0.00  0.00    +0.256 C 
ATOM      6  C   UNL     1      35.224 -18.501 -23.726  0.00  0.00    +0.072 C 
ATOM      7  C   UNL     1      34.880 -17.660 -24.704  0.00  0.00    +0.012 C 
ATOM      8  C   UNL     1      34.023 -15.522 -25.620  0.00  0.00    +0.031 C 
ENDROOT
BRANCH   3  12
ATOM      9  N   UNL     1      32.526 -10.746 -21.779  0.00  0.00    -0.342 NA
ATOM     10  N   UNL     1      31.481 -11.596 -19.782  0.00  0.00    -0.170 NA
ATOM     11  N   UNL     1      31.371  -9.318 -20.319  0.00  0.00    -0.293 N 
ATOM     12  C   UNL     1      33.858 -14.570 -22.768  0.00  0.00    -0.017 C 
ATOM     13  C   UNL     1      33.117 -14.373 -21.606  0.00  0.00    +0.056 C 
ATOM     14  C   UNL     1      34.147 -13.486 -23.589  0.00  0.00    -0.022 C 
ATOM     15  C   UNL     1      32.668 -13.085 -21.270  0.00  0.00    +0.029 C 
ATOM     16  C   UNL     1      32.953 -11.983 -22.092  0.00  0.00    +0.124 C 
ATOM     17  C   UNL     1      33.695 -12.209 -23.248  0.00  0.00    +0.085 C 
ATOM     18  C   UNL     1      31.923 -12.821 -20.123  0.00  0.00    +0.110 C 
ATOM     19  C   UNL     1      31.814 -10.621 -20.641  0.00  0.00    +0.141 C 
ATOM     20  H   UNL     1      31.586  -8.564 -20.914  0.00  0.00    +0.155 HD
ATOM     21  H   UNL     1      30.847  -9.166 -19.500  0.00  0.00    +0.155 HD
ENDBRANCH   3  12
BRANCH   2  22
ATOM     22  C   UNL     1      35.531 -19.119 -21.359  0.00  0.00    +0.058 C 
ATOM     23  C   UNL     1      34.548 -19.892 -20.742  0.00  0.00    +0.019 C 
ATOM     24  C   UNL     1      36.868 -19.269 -20.992  0.00  0.00    +0.015 C 
ATOM     25  C   UNL     1      34.902 -20.816 -19.761  0.00  0.00    +0.073 C 
ATOM     26  C   UNL     1      37.222 -20.194 -20.010  0.00  0.00    +0.001 C 
ATOM     27  C   UNL     1      36.239 -20.967 -19.393  0.00  0.00    +0.004 C 
BRANCH  25  31
ATOM     28  F   UNL     1      32.677 -20.975 -18.894  0.00  0.00    -0.166 F 
ATOM     29  F   UNL     1      33.506 -22.758 -19.809  0.00  0.00    -0.166 F 
ATOM     30  F   UNL     1      34.235 -22.096 -17.871  0.00  0.00    -0.166 F 
ATOM     31  C   UNL     1      33.851 -21.643 -19.100  0.00  0.00    +0.419 C 
ENDBRANCH  25  31
ENDBRANCH   2  22
TORSDOF 3
ENDMDL
MODEL 3
REMARK VINA RESULT:     -11.8      3.824      8.530
REMARK  Name = 24812719
REMARK  3 active torsions:
REMARK  status: ('A' for Active; 'I' for Inactive)
REMARK    1  A    between atoms: N_2  and  C_22
REMARK    2  A    between atoms: C_3  and  C_12
REMARK    3  A    between atoms: C_25  and  C_31
REMARK                            x       y       z     vdW  Elec       q    Type
REMARK                         _______ _______ _______ _____ _____    ______ ____
ROOT
ATOM      1  O   UNL     1      34.539 -16.029 -21.156  0.00  0.00    -0.269 OA
ATOM      2  N   UNL     1      34.157 -15.454 -23.407  0.00  0.00    -0.233 N 
ATOM      3  C   UNL     1      34.970 -17.720 -22.738  0.00  0.00    +0.046 C 
ATOM      4  C   UNL     1      34.892 -18.121 -24.023  0.00  0.00    -0.016 C 
ATOM      5  C   UNL     1      34.551 -16.315 -22.354  0.00  0.00    +0.256 C 
ATOM      6  C   UNL     1      34.089 -15.943 -24.707  0.00  0.00    +0.072 C 
ATOM      7  C   UNL     1      34.422 -17.196 -25.027  0.00  0.00    +0.012 C 
ATOM      8  C   UNL     1      35.263 -19.480 -24.554  0.00  0.00    +0.031 C 
ENDROOT
BRANCH   3  12
ATOM      9  N   UNL     1      36.802 -21.170 -18.665  0.00  0.00    -0.342 NA
ATOM     10  N   UNL     1      34.606 -22.135 -18.450  0.00  0.00    -0.170 NA
ATOM     11  N   UNL     1      36.379 -22.874 -17.108  0.00  0.00    -0.293 N 
ATOM     12  C   UNL     1      35.442 -18.624 -21.672  0.00  0.00    -0.017 C 
ATOM     13  C   UNL     1      34.563 -19.522 -21.075  0.00  0.00    +0.056 C 
ATOM     14  C   UNL     1      36.769 -18.585 -21.259  0.00  0.00    -0.022 C 
ATOM     15  C   UNL     1      35.019 -20.382 -20.061  0.00  0.00    +0.029 C 
ATOM     16  C   UNL     1      36.357 -20.352 -19.634  0.00  0.00    +0.124 C 
ATOM     17  C   UNL     1      37.214 -19.443 -20.249  0.00  0.00    +0.085 C 
ATOM     18  C   UNL     1      34.192 -21.303 -19.423  0.00  0.00    +0.110 C 
ATOM     19  C   UNL     1      35.903 -22.017 -18.126  0.00  0.00    +0.141 C 
ATOM     20  H   UNL     1      37.322 -22.831 -16.831  0.00  0.00    +0.155 HD
ATOM     21  H   UNL     1      35.767 -23.515 -16.679  0.00  0.00    +0.155 HD
ENDBRANCH   3  12
BRANCH   2  22
ATOM     22  C   UNL     1      33.800 -14.077 -23.122  0.00  0.00    +0.058 C 
ATOM     23  C   UNL     1      33.023 -13.775 -22.005  0.00  0.00    +0.019 C 
ATOM     24  C   UNL     1      34.233 -13.056 -23.968  0.00  0.00    +0.015 C 
ATOM     25  C   UNL     1      32.679 -12.452 -21.732  0.00  0.00    +0.073 C 
ATOM     26  C   UNL     1      33.889 -11.732 -23.694  0.00  0.00    +0.001 C 
ATOM     27  C   UNL     1      33.112 -11.430 -22.577  0.00  0.00    +0.004 C 
BRANCH  25  31
ATOM     28  F   UNL     1      32.282 -11.033 -19.846  0.00  0.00    -0.166 F 
ATOM     29  F   UNL     1      30.541 -11.863 -20.837  0.00  0.00    -0.166 F 
ATOM     30  F   UNL     1      31.814 -13.146 -19.628  0.00  0.00    -0.166 F 
ATOM     31  C   UNL     1      31.847 -12.128 -20.537  0.00  0.00    +0.419 C 
ENDBRANCH  25  31
ENDBRANCH   2  22
TORSDOF 3
ENDMDL
MODEL 4
REMARK VINA RESULT:     -11.5      2.744      4.957
REMARK  Name = 24812719
REMARK  3 active torsions:
REMARK  status: ('A' for Active; 'I' for Inactive)
REMARK    1  A    between atoms: N_2  and  C_22
REMARK    2  A    between atoms: C_3  and  C_12
REMARK    3  A    between atoms: C_25  and  C_31
REMARK                            x       y       z     vdW  Elec       q    Type
REMARK                         _______ _______ _______ _____ _____    ______ ____
ROOT
ATOM      1  O   UNL     1      33.392 -12.190 -23.800  0.00  0.00    -0.269 OA
ATOM      2  N   UNL     1      33.164 -13.773 -22.071  0.00  0.00    -0.233 N 
ATOM      3  C   UNL     1      32.454 -11.394 -21.791  0.00  0.00    +0.046 C 
ATOM      4  C   UNL     1      31.974 -11.689 -20.565  0.00  0.00    -0.016 C 
ATOM      5  C   UNL     1      33.064 -12.484 -22.649  0.00  0.00    +0.256 C 
ATOM      6  C   UNL     1      32.635 -14.004 -20.806  0.00  0.00    +0.072 C 
ATOM      7  C   UNL     1      32.063 -13.045 -20.075  0.00  0.00    +0.012 C 
ATOM      8  C   UNL     1      31.337 -10.721 -19.604  0.00  0.00    +0.031 C 
ENDROOT
BRANCH   3  12
ATOM      9  N   UNL     1      32.176  -6.163 -23.889  0.00  0.00    -0.342 NA
ATOM     10  N   UNL     1      34.548  -6.170 -24.308  0.00  0.00    -0.170 NA
ATOM     11  N   UNL     1      33.239  -4.302 -24.843  0.00  0.00    -0.293 N 
ATOM     12  C   UNL     1      32.389 -10.027 -22.339  0.00  0.00    -0.017 C 
ATOM     13  C   UNL     1      33.542  -9.401 -22.802  0.00  0.00    +0.056 C 
ATOM     14  C   UNL     1      31.173  -9.355 -22.399  0.00  0.00    -0.022 C 
ATOM     15  C   UNL     1      33.473  -8.099 -23.325  0.00  0.00    +0.029 C 
ATOM     16  C   UNL     1      32.252  -7.410 -23.390  0.00  0.00    +0.124 C 
ATOM     17  C   UNL     1      31.113  -8.059 -22.921  0.00  0.00    +0.085 C 
ATOM     18  C   UNL     1      34.590  -7.417 -23.803  0.00  0.00    +0.110 C 
ATOM     19  C   UNL     1      33.327  -5.611 -24.320  0.00  0.00    +0.141 C 
ATOM     20  H   UNL     1      32.369  -3.844 -24.877  0.00  0.00    +0.155 HD
ATOM     21  H   UNL     1      34.048  -3.849 -25.174  0.00  0.00    +0.155 HD
ENDBRANCH   3  12
BRANCH   2  22
ATOM     22  C   UNL     1      33.792 -14.852 -22.812  0.00  0.00    +0.058 C 
ATOM     23  C   UNL     1      34.408 -15.899 -22.129  0.00  0.00    +0.019 C 
ATOM     24  C   UNL     1      33.780 -14.838 -24.206  0.00  0.00    +0.015 C 
ATOM     25  C   UNL     1      35.012 -16.935 -22.841  0.00  0.00    +0.073 C 
ATOM     26  C   UNL     1      34.384 -15.875 -24.918  0.00  0.00    +0.001 C 
ATOM     27  C   UNL     1      35.001 -16.923 -24.236  0.00  0.00    +0.004 C 
BRANCH  25  31
ATOM     28  F   UNL     1      36.806 -18.515 -22.722  0.00  0.00    -0.166 F 
ATOM     29  F   UNL     1      36.059 -17.730 -20.842  0.00  0.00    -0.166 F 
ATOM     30  F   UNL     1      34.862 -19.146 -21.978  0.00  0.00    -0.166 F 
ATOM     31  C   UNL     1      35.673 -18.056 -22.111  0.00  0.00    +0.419 C 
ENDBRANCH  25  31
ENDBRANCH   2  22
TORSDOF 3
ENDMDL
MODEL 5
REMARK VINA RESULT:     -11.5      2.748      5.183
REMARK  Name = 24812719
REMARK  3 active torsions:
REMARK  status: ('A' for Active; 'I' for Inactive)
REMARK    1  A    between atoms: N_2  and  C_22
REMARK    2  A    between atoms: C_3  and  C_12
REMARK    3  A    between atoms: C_25  and  C_31
REMARK                            x       y       z     vdW  Elec       q    Type
REMARK                         _______ _______ _______ _____ _____    ______ ____
ROOT
ATOM      1  O   UNL     1      33.690 -11.980 -23.904  0.00  0.00    -0.269 OA
ATOM      2  N   UNL     1      33.117 -13.619 -22.313  0.00  0.00    -0.233 N 
ATOM      3  C   UNL     1      32.583 -11.201 -21.977  0.00  0.00    +0.046 C 
ATOM      4  C   UNL     1      31.932 -11.510 -20.837  0.00  0.00    -0.016 C 
ATOM      5  C   UNL     1      33.199 -12.299 -22.820  0.00  0.00    +0.256 C 
ATOM      6  C   UNL     1      32.418 -13.862 -21.136  0.00  0.00    +0.072 C 
ATOM      7  C   UNL     1      31.844 -12.891 -20.422  0.00  0.00    +0.012 C 
ATOM      8  C   UNL     1      31.266 -10.536 -19.902  0.00  0.00    +0.031 C 
ENDROOT
BRANCH   3  12
ATOM      9  N   UNL     1      33.066  -5.876 -23.781  0.00  0.00    -0.342 NA
ATOM     10  N   UNL     1      30.824  -5.389 -23.046  0.00  0.00    -0.170 NA
ATOM     11  N   UNL     1      32.140  -3.738 -24.062  0.00  0.00    -0.293 N 
ATOM     12  C   UNL     1      32.702  -9.808 -22.447  0.00  0.00    -0.017 C 
ATOM     13  C   UNL     1      31.639  -8.924 -22.295  0.00  0.00    +0.056 C 
ATOM     14  C   UNL     1      33.880  -9.369 -23.043  0.00  0.00    -0.022 C 
ATOM     15  C   UNL     1      31.758  -7.598 -22.744  0.00  0.00    +0.029 C 
ATOM     16  C   UNL     1      32.942  -7.143 -23.348  0.00  0.00    +0.124 C 
ATOM     17  C   UNL     1      33.990  -8.049 -23.486  0.00  0.00    +0.085 C 
ATOM     18  C   UNL     1      30.732  -6.664 -22.623  0.00  0.00    +0.110 C 
ATOM     19  C   UNL     1      32.001  -5.068 -23.606  0.00  0.00    +0.141 C 
ATOM     20  H   UNL     1      32.981  -3.448 -24.481  0.00  0.00    +0.155 HD
ATOM     21  H   UNL     1      31.395  -3.103 -23.960  0.00  0.00    +0.155 HD
ENDBRANCH   3  12
BRANCH   2  22
ATOM     22  C   UNL     1      33.737 -14.712 -23.037  0.00  0.00    +0.058 C 
ATOM     23  C   UNL     1      34.326 -15.765 -22.339  0.00  0.00    +0.019 C 
ATOM     24  C   UNL     1      33.746 -14.708 -24.432  0.00  0.00    +0.015 C 
ATOM     25  C   UNL     1      34.923 -16.816 -23.035  0.00  0.00    +0.073 C 
ATOM     26  C   UNL     1      34.343 -15.759 -25.128  0.00  0.00    +0.001 C 
ATOM     27  C   UNL     1      34.932 -16.813 -24.429  0.00  0.00    +0.004 C 
BRANCH  25  31
ATOM     28  F   UNL     1      36.738 -18.361 -22.826  0.00  0.00    -0.166 F 
ATOM     29  F   UNL     1      35.841 -17.644 -20.986  0.00  0.00    -0.166 F 
ATOM     30  F   UNL     1      34.760 -19.052 -22.242  0.00  0.00    -0.166 F 
ATOM     31  C   UNL     1      35.554 -17.943 -22.288  0.00  0.00    +0.419 C 
ENDBRANCH  25  31
ENDBRANCH   2  22
TORSDOF 3
ENDMDL
MODEL 6
REMARK VINA RESULT:     -11.3      6.212     10.622
REMARK  Name = 24812719
REMARK  3 active torsions:
REMARK  status: ('A' for Active; 'I' for Inactive)
REMARK    1  A    between atoms: N_2  and  C_22
REMARK    2  A    between atoms: C_3  and  C_12
REMARK    3  A    between atoms: C_25  and  C_31
REMARK                            x       y       z     vdW  Elec       q    Type
REMARK                         _______ _______ _______ _____ _____    ______ ____
ROOT
ATOM      1  O   UNL     1      34.260 -10.549 -23.740  0.00  0.00    -0.269 OA
ATOM      2  N   UNL     1      32.889  -9.110 -22.476  0.00  0.00    -0.233 N 
ATOM      3  C   UNL     1      32.859 -11.588 -22.156  0.00  0.00    +0.046 C 
ATOM      4  C   UNL     1      31.996 -11.438 -21.131  0.00  0.00    -0.016 C 
ATOM      5  C   UNL     1      33.395 -10.369 -22.881  0.00  0.00    +0.256 C 
ATOM      6  C   UNL     1      32.010  -9.034 -21.402  0.00  0.00    +0.072 C 
ATOM      7  C   UNL     1      31.577 -10.112 -20.744  0.00  0.00    +0.012 C 
ATOM      8  C   UNL     1      31.387 -12.546 -20.314  0.00  0.00    +0.031 C 
ENDROOT
BRANCH   3  12
ATOM      9  N   UNL     1      34.615 -16.677 -23.849  0.00  0.00    -0.342 NA
ATOM     10  N   UNL     1      35.238 -17.248 -21.594  0.00  0.00    -0.170 NA
ATOM     11  N   UNL     1      35.545 -18.772 -23.347  0.00  0.00    -0.293 N 
ATOM     12  C   UNL     1      33.321 -12.919 -22.592  0.00  0.00    -0.017 C 
ATOM     13  C   UNL     1      33.843 -13.817 -21.667  0.00  0.00    +0.056 C 
ATOM     14  C   UNL     1      33.235 -13.285 -23.931  0.00  0.00    -0.022 C 
ATOM     15  C   UNL     1      34.280 -15.085 -22.088  0.00  0.00    +0.029 C 
ATOM     16  C   UNL     1      34.199 -15.467 -23.437  0.00  0.00    +0.124 C 
ATOM     17  C   UNL     1      33.672 -14.548 -24.341  0.00  0.00    +0.085 C 
ATOM     18  C   UNL     1      34.813 -16.029 -21.213  0.00  0.00    +0.110 C 
ATOM     19  C   UNL     1      35.111 -17.501 -22.906  0.00  0.00    +0.141 C 
ATOM     20  H   UNL     1      35.475 -19.011 -24.299  0.00  0.00    +0.155 HD
ATOM     21  H   UNL     1      35.916 -19.416 -22.702  0.00  0.00    +0.155 HD
ENDBRANCH   3  12
BRANCH   2  22
ATOM     22  C   UNL     1      33.311  -7.905 -23.165  0.00  0.00    +0.058 C 
ATOM     23  C   UNL     1      32.446  -6.816 -23.259  0.00  0.00    +0.019 C 
ATOM     24  C   UNL     1      34.581  -7.838 -23.737  0.00  0.00    +0.015 C 
ATOM     25  C   UNL     1      32.851  -5.658 -23.922  0.00  0.00    +0.073 C 
ATOM     26  C   UNL     1      34.987  -6.680 -24.400  0.00  0.00    +0.001 C 
ATOM     27  C   UNL     1      34.121  -5.590 -24.494  0.00  0.00    +0.004 C 
BRANCH  25  31
ATOM     28  F   UNL     1      30.638  -4.783 -23.669  0.00  0.00    -0.166 F 
ATOM     29  F   UNL     1      32.283  -3.440 -23.230  0.00  0.00    -0.166 F 
ATOM     30  F   UNL     1      31.853  -3.988 -25.289  0.00  0.00    -0.166 F 
ATOM     31  C   UNL     1      31.925  -4.493 -24.023  0.00  0.00    +0.419 C 
ENDBRANCH  25  31
ENDBRANCH   2  22
TORSDOF 3
ENDMDL
MODEL 7
REMARK VINA RESULT:     -11.1      5.548     10.088
REMARK  Name = 24812719
REMARK  3 active torsions:
REMARK  status: ('A' for Active; 'I' for Inactive)
REMARK    1  A    between atoms: N_2  and  C_22
REMARK    2  A    between atoms: C_3  and  C_12
REMARK    3  A    between atoms: C_25  and  C_31
REMARK                            x       y       z     vdW  Elec       q    Type
REMARK                         _______ _______ _______ _____ _____    ______ ____
ROOT
ATOM      1  O   UNL     1      33.585 -11.107 -23.455  0.00  0.00    -0.269 OA
ATOM      2  N   UNL     1      32.258  -9.914 -21.919  0.00  0.00    -0.233 N 
ATOM      3  C   UNL     1      32.696 -12.361 -21.670  0.00  0.00    +0.046 C 
ATOM      4  C   UNL     1      32.028 -12.356 -20.499  0.00  0.00    -0.016 C 
ATOM      5  C   UNL     1      32.879 -11.073 -22.446  0.00  0.00    +0.256 C 
ATOM      6  C   UNL     1      31.596  -9.983 -20.698  0.00  0.00    +0.072 C 
ATOM      7  C   UNL     1      31.476 -11.117 -20.003  0.00  0.00    +0.012 C 
ATOM      8  C   UNL     1      31.773 -13.548 -19.616  0.00  0.00    +0.031 C 
ENDROOT
BRANCH   3  12
ATOM      9  N   UNL     1      34.921 -17.087 -23.808  0.00  0.00    -0.342 NA
ATOM     10  N   UNL     1      35.548 -17.828 -21.603  0.00  0.00    -0.170 NA
ATOM     11  N   UNL     1      36.020 -19.135 -23.489  0.00  0.00    -0.293 N 
ATOM     12  C   UNL     1      33.280 -13.598 -22.223  0.00  0.00    -0.017 C 
ATOM     13  C   UNL     1      33.861 -14.537 -21.376  0.00  0.00    +0.056 C 
ATOM     14  C   UNL     1      33.252 -13.834 -23.593  0.00  0.00    -0.022 C 
ATOM     15  C   UNL     1      34.415 -15.715 -21.908  0.00  0.00    +0.029 C 
ATOM     16  C   UNL     1      34.393 -15.964 -23.289  0.00  0.00    +0.124 C 
ATOM     17  C   UNL     1      33.805 -15.007 -24.113  0.00  0.00    +0.085 C 
ATOM     18  C   UNL     1      35.011 -16.693 -21.116  0.00  0.00    +0.110 C 
ATOM     19  C   UNL     1      35.469 -17.957 -22.936  0.00  0.00    +0.141 C 
ATOM     20  H   UNL     1      35.990 -19.283 -24.461  0.00  0.00    +0.155 HD
ATOM     21  H   UNL     1      36.433 -19.808 -22.900  0.00  0.00    +0.155 HD
ENDBRANCH   3  12
BRANCH   2  22
ATOM     22  C   UNL     1      32.339  -8.657 -22.639  0.00  0.00    +0.058 C 
ATOM     23  C   UNL     1      33.566  -8.212 -23.128  0.00  0.00    +0.019 C 
ATOM     24  C   UNL     1      31.190  -7.894 -22.839  0.00  0.00    +0.015 C 
ATOM     25  C   UNL     1      33.644  -7.003 -23.819  0.00  0.00    +0.073 C 
ATOM     26  C   UNL     1      31.267  -6.685 -23.531  0.00  0.00    +0.001 C 
ATOM     27  C   UNL     1      32.495  -6.239 -24.020  0.00  0.00    +0.004 C 
BRANCH  25  31
ATOM     28  F   UNL     1      34.941  -5.224 -24.755  0.00  0.00    -0.166 F 
ATOM     29  F   UNL     1      35.968  -6.595 -23.425  0.00  0.00    -0.166 F 
ATOM     30  F   UNL     1      35.388  -7.247 -25.417  0.00  0.00    -0.166 F 
ATOM     31  C   UNL     1      34.957  -6.525 -24.341  0.00  0.00    +0.419 C 
ENDBRANCH  25  31
ENDBRANCH   2  22
TORSDOF 3
ENDMDL
MODEL 8
REMARK VINA RESULT:     -11.1      4.600      9.053
REMARK  Name = 24812719
REMARK  3 active torsions:
REMARK  status: ('A' for Active; 'I' for Inactive)
REMARK    1  A    between atoms: N_2  and  C_22
REMARK    2  A    between atoms: C_3  and  C_12
REMARK    3  A    between atoms: C_25  and  C_31
REMARK                            x       y       z     vdW  Elec       q    Type
REMARK                         _______ _______ _______ _____ _____    ______ ____
ROOT
ATOM      1  O   UNL     1      34.194 -16.903 -20.630  0.00  0.00    -0.269 OA
ATOM      2  N   UNL     1      34.363 -16.175 -22.863  0.00  0.00    -0.233 N 
ATOM      3  C   UNL     1      34.912 -18.517 -22.188  0.00  0.00    +0.046 C 
ATOM      4  C   UNL     1      35.116 -18.835 -23.483  0.00  0.00    -0.016 C 
ATOM      5  C   UNL     1      34.470 -17.117 -21.811  0.00  0.00    +0.256 C 
ATOM      6  C   UNL     1      34.578 -16.580 -24.176  0.00  0.00    +0.072 C 
ATOM      7  C   UNL     1      34.927 -17.828 -24.500  0.00  0.00    +0.012 C 
ATOM      8  C   UNL     1      35.547 -20.178 -24.010  0.00  0.00    +0.031 C 
ENDROOT
BRANCH   3  12
ATOM      9  N   UNL     1      35.621 -22.306 -18.066  0.00  0.00    -0.342 NA
ATOM     10  N   UNL     1      33.242 -22.663 -17.941  0.00  0.00    -0.170 NA
ATOM     11  N   UNL     1      34.708 -23.833 -16.536  0.00  0.00    -0.293 N 
ATOM     12  C   UNL     1      35.090 -19.508 -21.110  0.00  0.00    -0.017 C 
ATOM     13  C   UNL     1      33.985 -20.142 -20.551  0.00  0.00    +0.056 C 
ATOM     14  C   UNL     1      36.364 -19.814 -20.646  0.00  0.00    -0.022 C 
ATOM     15  C   UNL     1      34.161 -21.086 -19.526  0.00  0.00    +0.029 C 
ATOM     16  C   UNL     1      35.442 -21.404 -19.048  0.00  0.00    +0.124 C 
ATOM     17  C   UNL     1      36.531 -20.755 -19.625  0.00  0.00    +0.085 C 
ATOM     18  C   UNL     1      33.098 -21.756 -18.925  0.00  0.00    +0.110 C 
ATOM     19  C   UNL     1      34.512 -22.886 -17.567  0.00  0.00    +0.141 C 
ATOM     20  H   UNL     1      35.618 -24.036 -16.222  0.00  0.00    +0.155 HD
ATOM     21  H   UNL     1      33.934 -24.289 -16.134  0.00  0.00    +0.155 HD
ENDBRANCH   3  12
BRANCH   2  22
ATOM     22  C   UNL     1      34.004 -14.800 -22.569  0.00  0.00    +0.058 C 
ATOM     23  C   UNL     1      34.201 -13.808 -23.528  0.00  0.00    +0.019 C 
ATOM     24  C   UNL     1      33.465 -14.471 -21.326  0.00  0.00    +0.015 C 
ATOM     25  C   UNL     1      33.857 -12.487 -23.246  0.00  0.00    +0.073 C 
ATOM     26  C   UNL     1      33.120 -13.149 -21.043  0.00  0.00    +0.001 C 
ATOM     27  C   UNL     1      33.317 -12.156 -22.003  0.00  0.00    +0.004 C 
BRANCH  25  31
ATOM     28  F   UNL     1      35.338 -10.919 -24.283  0.00  0.00    -0.166 F 
ATOM     29  F   UNL     1      33.842 -11.846 -25.551  0.00  0.00    -0.166 F 
ATOM     30  F   UNL     1      33.247 -10.349 -24.091  0.00  0.00    -0.166 F 
ATOM     31  C   UNL     1      34.069 -11.424 -24.272  0.00  0.00    +0.419 C 
ENDBRANCH  25  31
ENDBRANCH   2  22
TORSDOF 3
ENDMDL
MODEL 9
REMARK VINA RESULT:     -10.9      4.467      6.558
REMARK  Name = 24812719
REMARK  3 active torsions:
REMARK  status: ('A' for Active; 'I' for Inactive)
REMARK    1  A    between atoms: N_2  and  C_22
REMARK    2  A    between atoms: C_3  and  C_12
REMARK    3  A    between atoms: C_25  and  C_31
REMARK                            x       y       z     vdW  Elec       q    Type
REMARK                         _______ _______ _______ _____ _____    ______ ____
ROOT
ATOM      1  O   UNL     1      33.161 -11.107 -22.938  0.00  0.00    -0.269 OA
ATOM      2  N   UNL     1      32.804 -13.076 -21.695  0.00  0.00    -0.233 N 
ATOM      3  C   UNL     1      32.140 -10.826 -20.834  0.00  0.00    +0.046 C 
ATOM      4  C   UNL     1      31.589 -11.411 -19.751  0.00  0.00    -0.016 C 
ATOM      5  C   UNL     1      32.767 -11.678 -21.919  0.00  0.00    +0.256 C 
ATOM      6  C   UNL     1      32.204 -13.607 -20.559  0.00  0.00    +0.072 C 
ATOM      7  C   UNL     1      31.618 -12.850 -19.629  0.00  0.00    +0.012 C 
ATOM      8  C   UNL     1      30.927 -10.702 -18.599  0.00  0.00    +0.031 C 
ENDROOT
BRANCH   3  12
ATOM      9  N   UNL     1      32.142  -5.220 -21.476  0.00  0.00    -0.342 NA
ATOM     10  N   UNL     1      30.966  -5.426 -23.569  0.00  0.00    -0.170 NA
ATOM     11  N   UNL     1      31.564  -3.322 -22.730  0.00  0.00    -0.293 N 
ATOM     12  C   UNL     1      32.138  -9.362 -21.008  0.00  0.00    -0.017 C 
ATOM     13  C   UNL     1      31.549  -8.791 -22.133  0.00  0.00    +0.056 C 
ATOM     14  C   UNL     1      32.723  -8.542 -20.049  0.00  0.00    -0.022 C 
ATOM     15  C   UNL     1      31.549  -7.395 -22.293  0.00  0.00    +0.029 C 
ATOM     16  C   UNL     1      32.137  -6.556 -21.332  0.00  0.00    +0.124 C 
ATOM     17  C   UNL     1      32.718  -7.154 -20.217  0.00  0.00    +0.085 C 
ATOM     18  C   UNL     1      30.977  -6.761 -23.394  0.00  0.00    +0.110 C 
ATOM     19  C   UNL     1      31.556  -4.728 -22.586  0.00  0.00    +0.141 C 
ATOM     20  H   UNL     1      31.984  -2.760 -22.040  0.00  0.00    +0.155 HD
ATOM     21  H   UNL     1      31.150  -2.906 -23.521  0.00  0.00    +0.155 HD
ENDBRANCH   3  12
BRANCH   2  22
ATOM     22  C   UNL     1      33.442 -13.947 -22.663  0.00  0.00    +0.058 C 
ATOM     23  C   UNL     1      33.074 -13.887 -24.006  0.00  0.00    +0.019 C 
ATOM     24  C   UNL     1      34.423 -14.848 -22.249  0.00  0.00    +0.015 C 
ATOM     25  C   UNL     1      33.686 -14.725 -24.936  0.00  0.00    +0.073 C 
ATOM     26  C   UNL     1      35.036 -15.688 -23.180  0.00  0.00    +0.001 C 
ATOM     27  C   UNL     1      34.667 -15.627 -24.523  0.00  0.00    +0.004 C 
BRANCH  25  31
ATOM     28  F   UNL     1      34.303 -14.267 -27.202  0.00  0.00    -0.166 F 
ATOM     29  F   UNL     1      32.866 -15.858 -26.877  0.00  0.00    -0.166 F 
ATOM     30  F   UNL     1      32.269 -13.786 -26.599  0.00  0.00    -0.166 F 
ATOM     31  C   UNL     1      33.292 -14.662 -26.374  0.00  0.00    +0.419 C 
ENDBRANCH  25  31
ENDBRANCH   2  22
TORSDOF 3
ENDMDL
