MODEL 1
REMARK VINA RESULT:     -11.9      0.000      0.000
REMARK  Name = 71245288
REMARK  5 active torsions:
REMARK  status: ('A' for Active; 'I' for Inactive)
REMARK    1  A    between atoms: C_3  and  C_9
REMARK    2  A    between atoms: C_6  and  N_14
REMARK    3  A    between atoms: C_15  and  C_18
REMARK    4  A    between atoms: C_22  and  C_30
REMARK    5  A    between atoms: N_27  and  C_32
REMARK                            x       y       z     vdW  Elec       q    Type
REMARK                         _______ _______ _______ _____ _____    ______ ____
ROOT
ATOM      1  O   UNL     1      32.898 -21.673 -19.410  0.00  0.00    -0.270 OA
ATOM      2  N   UNL     1      34.470 -22.073 -17.713  0.00  0.00    -0.259 N 
ATOM      3  C   UNL     1      34.044 -21.559 -18.947  0.00  0.00    +0.253 C 
ATOM      4  H   UNL     1      35.411 -21.902 -17.481  0.00  0.00    +0.157 HD
ATOM      5  N   UNL     1      34.340 -23.209 -15.627  0.00  0.00    -0.388 NA
ATOM      6  C   UNL     1      33.588 -23.907 -14.747  0.00  0.00    +0.166 C 
ATOM      7  C   UNL     1      33.723 -22.807 -16.760  0.00  0.00    +0.167 C 
ATOM      8  C   UNL     1      32.252 -24.219 -14.946  0.00  0.00    +0.031 C 
ATOM      9  C   UNL     1      32.394 -23.068 -17.053  0.00  0.00    +0.101 C 
ATOM     10  C   UNL     1      31.651 -23.788 -16.123  0.00  0.00    -0.015 C 
ENDROOT
BRANCH   3  15
ATOM     11  F   UNL     1      36.798 -22.027 -18.657  0.00  0.00    -0.204 F 
ATOM     12  C   UNL     1      35.592 -19.124 -21.336  0.00  0.00    +0.046 C 
ATOM     13  C   UNL     1      36.949 -19.393 -21.157  0.00  0.00    -0.006 C 
ATOM     14  C   UNL     1      34.638 -19.836 -20.609  0.00  0.00    +0.021 C 
ATOM     15  C   UNL     1      35.041 -20.818 -19.703  0.00  0.00    +0.082 C 
ATOM     16  C   UNL     1      37.352 -20.373 -20.251  0.00  0.00    +0.027 C 
ATOM     17  C   UNL     1      37.998 -18.647 -21.919  0.00  0.00    +0.032 C 
ATOM     18  C   UNL     1      36.398 -21.086 -19.525  0.00  0.00    +0.144 C 
BRANCH  12  20
ATOM     19  N   UNL     1      34.528 -17.224 -24.142  0.00  0.00    -0.255 NA
ATOM     20  N   UNL     1      35.171 -18.154 -22.229  0.00  0.00    -0.282 N 
ATOM     21  C   UNL     1      34.539 -16.285 -23.141  0.00  0.00    +0.053 C 
ATOM     22  C   UNL     1      34.935 -16.838 -21.946  0.00  0.00    +0.134 C 
ATOM     23  C   UNL     1      34.912 -18.338 -23.560  0.00  0.00    +0.219 C 
BRANCH  21  24
ATOM     24  C   UNL     1      34.161 -14.820 -23.338  0.00  0.00    +0.037 C 
ATOM     25  C   UNL     1      34.571 -13.824 -22.294  0.00  0.00    +0.006 C 
ATOM     26  C   UNL     1      33.129 -14.215 -22.434  0.00  0.00    +0.006 C 
ENDBRANCH  21  24
ENDBRANCH  12  20
ENDBRANCH   3  15
BRANCH   6  30
ATOM     27  N   UNL     1      35.530 -24.861 -13.549  0.00  0.00    -0.252 N 
ATOM     28  N   UNL     1      33.832 -24.226 -12.324  0.00  0.00    -0.129 NA
ATOM     29  N   UNL     1      34.809 -24.727 -11.488  0.00  0.00    -0.128 NA
ATOM     30  C   UNL     1      34.282 -24.316 -13.555  0.00  0.00    +0.188 C 
ATOM     31  C   UNL     1      35.819 -25.101 -12.240  0.00  0.00    +0.192 C 
BRANCH  27  32
ATOM     32  C   UNL     1      36.388 -25.135 -14.677  0.00  0.00    +0.080 C 
ATOM     33  C   UNL     1      37.664 -24.290 -14.631  0.00  0.00    +0.022 C 
ATOM     34  C   UNL     1      36.724 -26.624 -14.780  0.00  0.00    +0.022 C 
ENDBRANCH  27  32
ENDBRANCH   6  30
TORSDOF 5
ENDMDL
MODEL 2
REMARK VINA RESULT:     -11.7      4.983      9.165
REMARK  Name = 71245288
REMARK  5 active torsions:
REMARK  status: ('A' for Active; 'I' for Inactive)
REMARK    1  A    between atoms: C_3  and  C_9
REMARK    2  A    between atoms: C_6  and  N_14
REMARK    3  A    between atoms: C_15  and  C_18
REMARK    4  A    between atoms: C_22  and  C_30
REMARK    5  A    between atoms: N_27  and  C_32
REMARK                            x       y       z     vdW  Elec       q    Type
REMARK                         _______ _______ _______ _____ _____    ______ ____
ROOT
ATOM      1  O   UNL     1      33.114 -14.105 -23.786  0.00  0.00    -0.270 OA
ATOM      2  N   UNL     1      33.978 -15.024 -21.806  0.00  0.00    -0.259 N 
ATOM      3  C   UNL     1      33.315 -14.047 -22.562  0.00  0.00    +0.253 C 
ATOM      4  H   UNL     1      34.061 -14.837 -20.843  0.00  0.00    +0.157 HD
ATOM      5  N   UNL     1      35.144 -17.044 -21.337  0.00  0.00    -0.388 NA
ATOM      6  C   UNL     1      35.672 -18.197 -21.804  0.00  0.00    +0.166 C 
ATOM      7  C   UNL     1      34.546 -16.244 -22.247  0.00  0.00    +0.167 C 
ATOM      8  C   UNL     1      35.628 -18.586 -23.134  0.00  0.00    +0.031 C 
ATOM      9  C   UNL     1      34.450 -16.542 -23.597  0.00  0.00    +0.101 C 
ATOM     10  C   UNL     1      35.004 -17.738 -24.041  0.00  0.00    -0.015 C 
ENDROOT
BRANCH   3  15
ATOM     11  F   UNL     1      32.352 -14.272 -19.934  0.00  0.00    -0.204 F 
ATOM     12  C   UNL     1      32.319 -10.539 -21.701  0.00  0.00    +0.046 C 
ATOM     13  C   UNL     1      31.851 -10.702 -20.397  0.00  0.00    -0.006 C 
ATOM     14  C   UNL     1      32.799 -11.639 -22.412  0.00  0.00    +0.021 C 
ATOM     15  C   UNL     1      32.812 -12.902 -21.819  0.00  0.00    +0.082 C 
ATOM     16  C   UNL     1      31.863 -11.964 -19.804  0.00  0.00    +0.027 C 
ATOM     17  C   UNL     1      31.328  -9.544 -19.608  0.00  0.00    +0.032 C 
ATOM     18  C   UNL     1      32.344 -13.064 -20.515  0.00  0.00    +0.144 C 
BRANCH  12  20
ATOM     19  N   UNL     1      31.544  -7.488 -23.347  0.00  0.00    -0.255 NA
ATOM     20  N   UNL     1      32.314  -9.295 -22.309  0.00  0.00    -0.282 N 
ATOM     21  C   UNL     1      32.893  -7.368 -23.129  0.00  0.00    +0.053 C 
ATOM     22  C   UNL     1      33.394  -8.476 -22.487  0.00  0.00    +0.134 C 
ATOM     23  C   UNL     1      31.226  -8.660 -22.841  0.00  0.00    +0.219 C 
BRANCH  21  24
ATOM     24  C   UNL     1      33.722  -6.158 -23.548  0.00  0.00    +0.037 C 
ATOM     25  C   UNL     1      33.696  -5.731 -24.986  0.00  0.00    +0.006 C 
ATOM     26  C   UNL     1      34.926  -6.376 -24.416  0.00  0.00    +0.006 C 
ENDBRANCH  21  24
ENDBRANCH  12  20
ENDBRANCH   3  15
BRANCH   6  30
ATOM     27  N   UNL     1      35.732 -20.136 -20.270  0.00  0.00    -0.252 N 
ATOM     28  N   UNL     1      37.483 -18.825 -20.269  0.00  0.00    -0.129 NA
ATOM     29  N   UNL     1      37.698 -19.840 -19.359  0.00  0.00    -0.128 NA
ATOM     30  C   UNL     1      36.299 -19.019 -20.804  0.00  0.00    +0.188 C 
ATOM     31  C   UNL     1      36.639 -20.616 -19.374  0.00  0.00    +0.192 C 
BRANCH  27  32
ATOM     32  C   UNL     1      34.444 -20.713 -20.573  0.00  0.00    +0.080 C 
ATOM     33  C   UNL     1      34.197 -21.992 -19.770  0.00  0.00    +0.022 C 
ATOM     34  C   UNL     1      33.312 -19.707 -20.357  0.00  0.00    +0.022 C 
ENDBRANCH  27  32
ENDBRANCH   6  30
TORSDOF 5
ENDMDL
MODEL 3
REMARK VINA RESULT:     -11.6      5.108     12.534
REMARK  Name = 71245288
REMARK  5 active torsions:
REMARK  status: ('A' for Active; 'I' for Inactive)
REMARK    1  A    between atoms: C_3  and  C_9
REMARK    2  A    between atoms: C_6  and  N_14
REMARK    3  A    between atoms: C_15  and  C_18
REMARK    4  A    between atoms: C_22  and  C_30
REMARK    5  A    between atoms: N_27  and  C_32
REMARK                            x       y       z     vdW  Elec       q    Type
REMARK                         _______ _______ _______ _____ _____    ______ ____
ROOT
ATOM      1  O   UNL     1      32.920 -14.363 -19.930  0.00  0.00    -0.270 OA
ATOM      2  N   UNL     1      33.097 -12.943 -21.790  0.00  0.00    -0.259 N 
ATOM      3  C   UNL     1      33.255 -14.158 -21.107  0.00  0.00    +0.253 C 
ATOM      4  H   UNL     1      33.412 -12.932 -22.722  0.00  0.00    +0.157 HD
ATOM      5  N   UNL     1      32.492 -10.671 -22.151  0.00  0.00    -0.388 NA
ATOM      6  C   UNL     1      31.958  -9.534 -21.651  0.00  0.00    +0.166 C 
ATOM      7  C   UNL     1      32.546 -11.729 -21.312  0.00  0.00    +0.167 C 
ATOM      8  C   UNL     1      31.476  -9.408 -20.357  0.00  0.00    +0.031 C 
ATOM      9  C   UNL     1      32.092 -11.705 -20.003  0.00  0.00    +0.101 C 
ATOM     10  C   UNL     1      31.549 -10.518 -19.524  0.00  0.00    -0.015 C 
ENDROOT
BRANCH   3  15
ATOM     11  F   UNL     1      33.321 -14.141 -23.915  0.00  0.00    -0.204 F 
ATOM     12  C   UNL     1      34.942 -17.394 -21.953  0.00  0.00    +0.046 C 
ATOM     13  C   UNL     1      34.951 -17.339 -23.347  0.00  0.00    -0.006 C 
ATOM     14  C   UNL     1      34.384 -16.348 -21.218  0.00  0.00    +0.021 C 
ATOM     15  C   UNL     1      33.836 -15.247 -21.877  0.00  0.00    +0.082 C 
ATOM     16  C   UNL     1      34.402 -16.240 -24.006  0.00  0.00    +0.027 C 
ATOM     17  C   UNL     1      35.540 -18.444 -24.165  0.00  0.00    +0.032 C 
ATOM     18  C   UNL     1      33.845 -15.193 -23.270  0.00  0.00    +0.144 C 
BRANCH  12  20
ATOM     19  N   UNL     1      36.979 -19.744 -20.236  0.00  0.00    -0.255 NA
ATOM     20  N   UNL     1      35.481 -18.477 -21.280  0.00  0.00    -0.282 N 
ATOM     21  C   UNL     1      35.768 -20.388 -20.286  0.00  0.00    +0.053 C 
ATOM     22  C   UNL     1      34.823 -19.622 -20.928  0.00  0.00    +0.134 C 
ATOM     23  C   UNL     1      36.772 -18.596 -20.843  0.00  0.00    +0.219 C 
BRANCH  21  24
ATOM     24  C   UNL     1      35.512 -21.773 -19.701  0.00  0.00    +0.037 C 
ATOM     25  C   UNL     1      34.300 -21.979 -18.839  0.00  0.00    +0.006 C 
ATOM     26  C   UNL     1      35.669 -21.972 -18.223  0.00  0.00    +0.006 C 
ENDBRANCH  21  24
ENDBRANCH  12  20
ENDBRANCH   3  15
BRANCH   6  30
ATOM     27  N   UNL     1      33.021  -7.890 -23.162  0.00  0.00    -0.252 N 
ATOM     28  N   UNL     1      30.842  -7.798 -22.983  0.00  0.00    -0.129 NA
ATOM     29  N   UNL     1      31.250  -6.814 -23.861  0.00  0.00    -0.128 NA
ATOM     30  C   UNL     1      31.918  -8.432 -22.575  0.00  0.00    +0.188 C 
ATOM     31  C   UNL     1      32.557  -6.885 -23.956  0.00  0.00    +0.192 C 
BRANCH  27  32
ATOM     32  C   UNL     1      34.400  -8.281 -22.998  0.00  0.00    +0.080 C 
ATOM     33  C   UNL     1      34.792  -9.390 -23.978  0.00  0.00    +0.022 C 
ATOM     34  C   UNL     1      35.344  -7.083 -23.127  0.00  0.00    +0.022 C 
ENDBRANCH  27  32
ENDBRANCH   6  30
TORSDOF 5
ENDMDL
MODEL 4
REMARK VINA RESULT:     -11.5      3.180     10.971
REMARK  Name = 71245288
REMARK  5 active torsions:
REMARK  status: ('A' for Active; 'I' for Inactive)
REMARK    1  A    between atoms: C_3  and  C_9
REMARK    2  A    between atoms: C_6  and  N_14
REMARK    3  A    between atoms: C_15  and  C_18
REMARK    4  A    between atoms: C_22  and  C_30
REMARK    5  A    between atoms: N_27  and  C_32
REMARK                            x       y       z     vdW  Elec       q    Type
REMARK                         _______ _______ _______ _____ _____    ______ ____
ROOT
ATOM      1  O   UNL     1      34.649 -18.633 -24.215  0.00  0.00    -0.270 OA
ATOM      2  N   UNL     1      34.794 -16.681 -22.920  0.00  0.00    -0.259 N 
ATOM      3  C   UNL     1      34.931 -18.057 -23.153  0.00  0.00    +0.253 C 
ATOM      4  H   UNL     1      35.059 -16.370 -22.025  0.00  0.00    +0.157 HD
ATOM      5  N   UNL     1      34.272 -14.404 -23.366  0.00  0.00    -0.388 NA
ATOM      6  C   UNL     1      33.814 -13.484 -24.245  0.00  0.00    +0.166 C 
ATOM      7  C   UNL     1      34.321 -15.681 -23.804  0.00  0.00    +0.167 C 
ATOM      8  C   UNL     1      33.406 -13.781 -25.536  0.00  0.00    +0.031 C 
ATOM      9  C   UNL     1      33.937 -16.081 -25.074  0.00  0.00    +0.101 C 
ATOM     10  C   UNL     1      33.472 -15.106 -25.951  0.00  0.00    -0.015 C 
ENDROOT
BRANCH   3  15
ATOM     11  F   UNL     1      37.668 -18.058 -22.525  0.00  0.00    -0.204 F 
ATOM     12  C   UNL     1      35.143 -20.363 -20.208  0.00  0.00    +0.046 C 
ATOM     13  C   UNL     1      36.511 -20.331 -19.935  0.00  0.00    -0.006 C 
ATOM     14  C   UNL     1      34.625 -19.616 -21.266  0.00  0.00    +0.021 C 
ATOM     15  C   UNL     1      35.475 -18.836 -22.051  0.00  0.00    +0.082 C 
ATOM     16  C   UNL     1      37.360 -19.552 -20.720  0.00  0.00    +0.027 C 
ATOM     17  C   UNL     1      37.099 -21.121 -18.810  0.00  0.00    +0.032 C 
ATOM     18  C   UNL     1      36.842 -18.804 -21.777  0.00  0.00    +0.144 C 
BRANCH  12  20
ATOM     19  N   UNL     1      32.381 -21.910 -18.596  0.00  0.00    -0.255 NA
ATOM     20  N   UNL     1      34.282 -21.131 -19.442  0.00  0.00    -0.282 N 
ATOM     21  C   UNL     1      33.449 -22.579 -18.052  0.00  0.00    +0.053 C 
ATOM     22  C   UNL     1      34.639 -22.113 -18.560  0.00  0.00    +0.134 C 
ATOM     23  C   UNL     1      32.917 -21.046 -19.429  0.00  0.00    +0.219 C 
BRANCH  21  24
ATOM     24  C   UNL     1      33.323 -23.692 -17.017  0.00  0.00    +0.037 C 
ATOM     25  C   UNL     1      32.561 -23.418 -15.753  0.00  0.00    +0.006 C 
ATOM     26  C   UNL     1      34.055 -23.552 -15.715  0.00  0.00    +0.006 C 
ENDBRANCH  21  24
ENDBRANCH  12  20
ENDBRANCH   3  15
BRANCH   6  30
ATOM     27  N   UNL     1      33.010 -11.738 -22.688  0.00  0.00    -0.252 N 
ATOM     28  N   UNL     1      34.460 -11.115 -24.203  0.00  0.00    -0.129 NA
ATOM     29  N   UNL     1      34.132 -10.016 -23.435  0.00  0.00    -0.128 NA
ATOM     30  C   UNL     1      33.777 -12.137 -23.740  0.00  0.00    +0.188 C 
ATOM     31  C   UNL     1      33.263 -10.409 -22.533  0.00  0.00    +0.192 C 
BRANCH  27  32
ATOM     32  C   UNL     1      32.111 -12.535 -21.888  0.00  0.00    +0.080 C 
ATOM     33  C   UNL     1      32.868 -13.355 -20.839  0.00  0.00    +0.022 C 
ATOM     34  C   UNL     1      31.029 -11.675 -21.231  0.00  0.00    +0.022 C 
ENDBRANCH  27  32
ENDBRANCH   6  30
TORSDOF 5
ENDMDL
MODEL 5
REMARK VINA RESULT:     -11.3      2.802      5.337
REMARK  Name = 71245288
REMARK  5 active torsions:
REMARK  status: ('A' for Active; 'I' for Inactive)
REMARK    1  A    between atoms: C_3  and  C_9
REMARK    2  A    between atoms: C_6  and  N_14
REMARK    3  A    between atoms: C_15  and  C_18
REMARK    4  A    between atoms: C_22  and  C_30
REMARK    5  A    between atoms: N_27  and  C_32
REMARK                            x       y       z     vdW  Elec       q    Type
REMARK                         _______ _______ _______ _____ _____    ______ ____
ROOT
ATOM      1  O   UNL     1      36.952 -18.407 -22.191  0.00  0.00    -0.270 OA
ATOM      2  N   UNL     1      34.903 -19.000 -21.212  0.00  0.00    -0.259 N 
ATOM      3  C   UNL     1      35.727 -18.256 -22.069  0.00  0.00    +0.253 C 
ATOM      4  H   UNL     1      33.948 -18.764 -21.225  0.00  0.00    +0.157 HD
ATOM      5  N   UNL     1      34.301 -20.631 -19.589  0.00  0.00    -0.388 NA
ATOM      6  C   UNL     1      34.696 -21.624 -18.761  0.00  0.00    +0.166 C 
ATOM      7  C   UNL     1      35.267 -20.046 -20.330  0.00  0.00    +0.167 C 
ATOM      8  C   UNL     1      36.006 -22.059 -18.642  0.00  0.00    +0.031 C 
ATOM      9  C   UNL     1      36.605 -20.407 -20.284  0.00  0.00    +0.101 C 
ATOM     10  C   UNL     1      36.973 -21.433 -19.421  0.00  0.00    -0.015 C 
ENDROOT
BRANCH   3  15
ATOM     11  F   UNL     1      35.403 -18.549 -24.844  0.00  0.00    -0.204 F 
ATOM     12  C   UNL     1      33.900 -15.139 -23.062  0.00  0.00    +0.046 C 
ATOM     13  C   UNL     1      33.764 -15.330 -24.438  0.00  0.00    -0.006 C 
ATOM     14  C   UNL     1      34.546 -16.101 -22.285  0.00  0.00    +0.021 C 
ATOM     15  C   UNL     1      35.055 -17.254 -22.883  0.00  0.00    +0.082 C 
ATOM     16  C   UNL     1      34.274 -16.482 -25.035  0.00  0.00    +0.027 C 
ATOM     17  C   UNL     1      33.080 -14.318 -25.300  0.00  0.00    +0.032 C 
ATOM     18  C   UNL     1      34.918 -17.444 -24.258  0.00  0.00    +0.144 C 
BRANCH  12  20
ATOM     19  N   UNL     1      32.936 -11.857 -22.106  0.00  0.00    -0.255 NA
ATOM     20  N   UNL     1      33.403 -14.002 -22.449  0.00  0.00    -0.282 N 
ATOM     21  C   UNL     1      32.434 -12.619 -21.081  0.00  0.00    +0.053 C 
ATOM     22  C   UNL     1      32.711 -13.952 -21.271  0.00  0.00    +0.134 C 
ATOM     23  C   UNL     1      33.513 -12.720 -22.912  0.00  0.00    +0.219 C 
BRANCH  21  24
ATOM     24  C   UNL     1      31.669 -12.052 -19.889  0.00  0.00    +0.037 C 
ATOM     25  C   UNL     1      30.501 -11.145 -20.148  0.00  0.00    +0.006 C 
ATOM     26  C   UNL     1      31.779 -10.585 -19.595  0.00  0.00    +0.006 C 
ENDBRANCH  21  24
ENDBRANCH  12  20
ENDBRANCH   3  15
BRANCH   6  30
ATOM     27  N   UNL     1      33.837 -22.950 -16.858  0.00  0.00    -0.252 N 
ATOM     28  N   UNL     1      32.351 -22.151 -18.252  0.00  0.00    -0.129 NA
ATOM     29  N   UNL     1      31.690 -22.855 -17.266  0.00  0.00    -0.128 NA
ATOM     30  C   UNL     1      33.637 -22.220 -17.990  0.00  0.00    +0.188 C 
ATOM     31  C   UNL     1      32.596 -23.326 -16.440  0.00  0.00    +0.192 C 
BRANCH  27  32
ATOM     32  C   UNL     1      35.088 -23.271 -16.214  0.00  0.00    +0.080 C 
ATOM     33  C   UNL     1      35.586 -22.115 -15.344  0.00  0.00    +0.022 C 
ATOM     34  C   UNL     1      34.986 -24.562 -15.399  0.00  0.00    +0.022 C 
ENDBRANCH  27  32
ENDBRANCH   6  30
TORSDOF 5
ENDMDL
MODEL 6
REMARK VINA RESULT:     -10.6      2.417     10.657
REMARK  Name = 71245288
REMARK  5 active torsions:
REMARK  status: ('A' for Active; 'I' for Inactive)
REMARK    1  A    between atoms: C_3  and  C_9
REMARK    2  A    between atoms: C_6  and  N_14
REMARK    3  A    between atoms: C_15  and  C_18
REMARK    4  A    between atoms: C_22  and  C_30
REMARK    5  A    between atoms: N_27  and  C_32
REMARK                            x       y       z     vdW  Elec       q    Type
REMARK                         _______ _______ _______ _____ _____    ______ ____
ROOT
ATOM      1  O   UNL     1      36.105 -20.641 -21.279  0.00  0.00    -0.270 OA
ATOM      2  N   UNL     1      34.665 -19.004 -20.410  0.00  0.00    -0.259 N 
ATOM      3  C   UNL     1      35.281 -20.264 -20.431  0.00  0.00    +0.253 C 
ATOM      4  H   UNL     1      34.032 -18.850 -19.673  0.00  0.00    +0.157 HD
ATOM      5  N   UNL     1      34.134 -16.790 -21.099  0.00  0.00    -0.388 NA
ATOM      6  C   UNL     1      34.328 -15.788 -21.985  0.00  0.00    +0.166 C 
ATOM      7  C   UNL     1      34.835 -17.925 -21.311  0.00  0.00    +0.167 C 
ATOM      8  C   UNL     1      35.189 -15.868 -23.068  0.00  0.00    +0.031 C 
ATOM      9  C   UNL     1      35.719 -18.105 -22.363  0.00  0.00    +0.101 C 
ATOM     10  C   UNL     1      35.894 -17.051 -23.254  0.00  0.00    -0.015 C 
ENDROOT
BRANCH   3  15
ATOM     11  F   UNL     1      32.686 -21.294 -20.133  0.00  0.00    -0.204 F 
ATOM     12  C   UNL     1      35.546 -22.403 -17.367  0.00  0.00    +0.046 C 
ATOM     13  C   UNL     1      34.242 -22.888 -17.261  0.00  0.00    -0.006 C 
ATOM     14  C   UNL     1      35.886 -21.540 -18.409  0.00  0.00    +0.021 C 
ATOM     15  C   UNL     1      34.923 -21.163 -19.345  0.00  0.00    +0.082 C 
ATOM     16  C   UNL     1      33.280 -22.511 -18.196  0.00  0.00    +0.027 C 
ATOM     17  C   UNL     1      33.844 -23.813 -16.155  0.00  0.00    +0.032 C 
ATOM     18  C   UNL     1      33.620 -21.649 -19.239  0.00  0.00    +0.144 C 
BRANCH  12  20
ATOM     19  N   UNL     1      38.488 -22.847 -15.427  0.00  0.00    -0.255 NA
ATOM     20  N   UNL     1      36.517 -22.764 -16.448  0.00  0.00    -0.282 N 
ATOM     21  C   UNL     1      37.589 -23.660 -14.784  0.00  0.00    +0.053 C 
ATOM     22  C   UNL     1      36.359 -23.625 -15.399  0.00  0.00    +0.134 C 
ATOM     23  C   UNL     1      37.811 -22.322 -16.424  0.00  0.00    +0.219 C 
BRANCH  21  24
ATOM     24  C   UNL     1      37.919 -24.490 -13.548  0.00  0.00    +0.037 C 
ATOM     25  C   UNL     1      38.942 -25.582 -13.667  0.00  0.00    +0.006 C 
ATOM     26  C   UNL     1      37.489 -25.927 -13.510  0.00  0.00    +0.006 C 
ENDBRANCH  21  24
ENDBRANCH  12  20
ENDBRANCH   3  15
BRANCH   6  30
ATOM     27  N   UNL     1      33.404 -13.583 -22.617  0.00  0.00    -0.252 N 
ATOM     28  N   UNL     1      32.917 -14.318 -20.614  0.00  0.00    -0.129 NA
ATOM     29  N   UNL     1      32.319 -13.085 -20.784  0.00  0.00    -0.128 NA
ATOM     30  C   UNL     1      33.563 -14.598 -21.723  0.00  0.00    +0.188 C 
ATOM     31  C   UNL     1      32.621 -12.661 -21.989  0.00  0.00    +0.192 C 
BRANCH  27  32
ATOM     32  C   UNL     1      33.938 -13.480 -23.953  0.00  0.00    +0.080 C 
ATOM     33  C   UNL     1      33.042 -14.185 -24.974  0.00  0.00    +0.022 C 
ATOM     34  C   UNL     1      34.177 -12.022 -24.353  0.00  0.00    +0.022 C 
ENDBRANCH  27  32
ENDBRANCH   6  30
TORSDOF 5
ENDMDL
MODEL 7
REMARK VINA RESULT:     -10.4      2.075      9.931
REMARK  Name = 71245288
REMARK  5 active torsions:
REMARK  status: ('A' for Active; 'I' for Inactive)
REMARK    1  A    between atoms: C_3  and  C_9
REMARK    2  A    between atoms: C_6  and  N_14
REMARK    3  A    between atoms: C_15  and  C_18
REMARK    4  A    between atoms: C_22  and  C_30
REMARK    5  A    between atoms: N_27  and  C_32
REMARK                            x       y       z     vdW  Elec       q    Type
REMARK                         _______ _______ _______ _____ _____    ______ ____
ROOT
ATOM      1  O   UNL     1      35.305 -22.433 -20.448  0.00  0.00    -0.270 OA
ATOM      2  N   UNL     1      34.975 -20.237 -19.689  0.00  0.00    -0.259 N 
ATOM      3  C   UNL     1      35.132 -21.622 -19.526  0.00  0.00    +0.253 C 
ATOM      4  H   UNL     1      34.845 -19.722 -18.861  0.00  0.00    +0.157 HD
ATOM      5  N   UNL     1      34.809 -18.147 -20.813  0.00  0.00    -0.388 NA
ATOM      6  C   UNL     1      34.819 -17.472 -21.983  0.00  0.00    +0.166 C 
ATOM      7  C   UNL     1      34.979 -19.486 -20.889  0.00  0.00    +0.167 C 
ATOM      8  C   UNL     1      34.992 -18.071 -23.222  0.00  0.00    +0.031 C 
ATOM      9  C   UNL     1      35.159 -20.178 -22.076  0.00  0.00    +0.101 C 
ATOM     10  C   UNL     1      35.165 -19.449 -23.260  0.00  0.00    -0.015 C 
ENDROOT
BRANCH   3  15
ATOM     11  F   UNL     1      37.443 -21.721 -17.934  0.00  0.00    -0.204 F 
ATOM     12  C   UNL     1      33.884 -23.004 -16.275  0.00  0.00    +0.046 C 
ATOM     13  C   UNL     1      35.059 -23.034 -15.524  0.00  0.00    -0.006 C 
ATOM     14  C   UNL     1      33.909 -22.540 -17.591  0.00  0.00    +0.021 C 
ATOM     15  C   UNL     1      35.109 -22.106 -18.154  0.00  0.00    +0.082 C 
ATOM     16  C   UNL     1      36.259 -22.601 -16.087  0.00  0.00    +0.027 C 
ATOM     17  C   UNL     1      35.068 -23.527 -14.112  0.00  0.00    +0.032 C 
ATOM     18  C   UNL     1      36.283 -22.136 -17.403  0.00  0.00    +0.144 C 
BRANCH  12  20
ATOM     19  N   UNL     1      31.262 -24.534 -14.431  0.00  0.00    -0.255 NA
ATOM     20  N   UNL     1      32.683 -23.431 -15.735  0.00  0.00    -0.282 N 
ATOM     21  C   UNL     1      30.575 -23.719 -15.295  0.00  0.00    +0.053 C 
ATOM     22  C   UNL     1      31.434 -23.024 -16.113  0.00  0.00    +0.134 C 
ATOM     23  C   UNL     1      32.529 -24.337 -14.722  0.00  0.00    +0.219 C 
BRANCH  21  24
ATOM     24  C   UNL     1      29.054 -23.604 -15.334  0.00  0.00    +0.037 C 
ATOM     25  C   UNL     1      28.327 -24.094 -16.552  0.00  0.00    +0.006 C 
ATOM     26  C   UNL     1      28.430 -22.622 -16.281  0.00  0.00    +0.006 C 
ENDBRANCH  21  24
ENDBRANCH  12  20
ENDBRANCH   3  15
BRANCH   6  30
ATOM     27  N   UNL     1      34.295 -15.233 -22.893  0.00  0.00    -0.252 N 
ATOM     28  N   UNL     1      34.762 -15.344 -20.758  0.00  0.00    -0.129 NA
ATOM     29  N   UNL     1      34.499 -14.028 -21.079  0.00  0.00    -0.128 NA
ATOM     30  C   UNL     1      34.635 -16.050 -21.859  0.00  0.00    +0.188 C 
ATOM     31  C   UNL     1      34.221 -13.981 -22.361  0.00  0.00    +0.192 C 
BRANCH  27  32
ATOM     32  C   UNL     1      34.057 -15.590 -24.270  0.00  0.00    +0.080 C 
ATOM     33  C   UNL     1      33.167 -14.562 -24.973  0.00  0.00    +0.022 C 
ATOM     34  C   UNL     1      35.367 -15.791 -25.035  0.00  0.00    +0.022 C 
ENDBRANCH  27  32
ENDBRANCH   6  30
TORSDOF 5
ENDMDL
MODEL 8
REMARK VINA RESULT:     -10.3      1.896     10.472
REMARK  Name = 71245288
REMARK  5 active torsions:
REMARK  status: ('A' for Active; 'I' for Inactive)
REMARK    1  A    between atoms: C_3  and  C_9
REMARK    2  A    between atoms: C_6  and  N_14
REMARK    3  A    between atoms: C_15  and  C_18
REMARK    4  A    between atoms: C_22  and  C_30
REMARK    5  A    between atoms: N_27  and  C_32
REMARK                            x       y       z     vdW  Elec       q    Type
REMARK                         _______ _______ _______ _____ _____    ______ ____
ROOT
ATOM      1  O   UNL     1      36.646 -21.910 -19.569  0.00  0.00    -0.270 OA
ATOM      2  N   UNL     1      35.052 -20.190 -19.661  0.00  0.00    -0.259 N 
ATOM      3  C   UNL     1      35.572 -21.409 -19.201  0.00  0.00    +0.253 C 
ATOM      4  H   UNL     1      34.186 -19.922 -19.276  0.00  0.00    +0.157 HD
ATOM      5  N   UNL     1      34.929 -18.166 -20.905  0.00  0.00    -0.388 NA
ATOM      6  C   UNL     1      35.499 -17.344 -21.813  0.00  0.00    +0.166 C 
ATOM      7  C   UNL     1      35.608 -19.295 -20.607  0.00  0.00    +0.167 C 
ATOM      8  C   UNL     1      36.712 -17.596 -22.434  0.00  0.00    +0.031 C 
ATOM      9  C   UNL     1      36.827 -19.639 -21.171  0.00  0.00    +0.101 C 
ATOM     10  C   UNL     1      37.383 -18.768 -22.101  0.00  0.00    -0.015 C 
ENDROOT
BRANCH   3  15
ATOM     11  F   UNL     1      32.778 -21.625 -19.389  0.00  0.00    -0.204 F 
ATOM     12  C   UNL     1      34.645 -23.344 -16.130  0.00  0.00    +0.046 C 
ATOM     13  C   UNL     1      33.259 -23.425 -16.268  0.00  0.00    -0.006 C 
ATOM     14  C   UNL     1      35.404 -22.681 -17.095  0.00  0.00    +0.021 C 
ATOM     15  C   UNL     1      34.777 -22.099 -18.197  0.00  0.00    +0.082 C 
ATOM     16  C   UNL     1      32.633 -22.842 -17.369  0.00  0.00    +0.027 C 
ATOM     17  C   UNL     1      32.416 -24.126 -15.252  0.00  0.00    +0.032 C 
ATOM     18  C   UNL     1      33.392 -22.180 -18.334  0.00  0.00    +0.144 C 
BRANCH  12  20
ATOM     19  N   UNL     1      36.313 -25.442 -13.799  0.00  0.00    -0.255 NA
ATOM     20  N   UNL     1      35.287 -23.914 -15.044  0.00  0.00    -0.282 N 
ATOM     21  C   UNL     1      36.210 -24.260 -13.108  0.00  0.00    +0.053 C 
ATOM     22  C   UNL     1      35.578 -23.298 -13.859  0.00  0.00    +0.134 C 
ATOM     23  C   UNL     1      35.747 -25.199 -14.961  0.00  0.00    +0.219 C 
BRANCH  21  24
ATOM     24  C   UNL     1      36.734 -24.051 -11.690  0.00  0.00    +0.037 C 
ATOM     25  C   UNL     1      37.576 -22.843 -11.404  0.00  0.00    +0.006 C 
ATOM     26  C   UNL     1      38.204 -24.206 -11.435  0.00  0.00    +0.006 C 
ENDBRANCH  21  24
ENDBRANCH  12  20
ENDBRANCH   3  15
BRANCH   6  30
ATOM     27  N   UNL     1      34.447 -15.726 -23.361  0.00  0.00    -0.252 N 
ATOM     28  N   UNL     1      34.239 -15.320 -21.221  0.00  0.00    -0.129 NA
ATOM     29  N   UNL     1      33.594 -14.319 -21.920  0.00  0.00    -0.128 NA
ATOM     30  C   UNL     1      34.744 -16.153 -22.102  0.00  0.00    +0.188 C 
ATOM     31  C   UNL     1      33.729 -14.580 -23.200  0.00  0.00    +0.192 C 
BRANCH  27  32
ATOM     32  C   UNL     1      34.803 -16.340 -24.617  0.00  0.00    +0.080 C 
ATOM     33  C   UNL     1      34.412 -17.820 -24.652  0.00  0.00    +0.022 C 
ATOM     34  C   UNL     1      34.196 -15.588 -25.803  0.00  0.00    +0.022 C 
ENDBRANCH  27  32
ENDBRANCH   6  30
TORSDOF 5
ENDMDL
MODEL 9
REMARK VINA RESULT:     -10.3      1.687     10.492
REMARK  Name = 71245288
REMARK  5 active torsions:
REMARK  status: ('A' for Active; 'I' for Inactive)
REMARK    1  A    between atoms: C_3  and  C_9
REMARK    2  A    between atoms: C_6  and  N_14
REMARK    3  A    between atoms: C_15  and  C_18
REMARK    4  A    between atoms: C_22  and  C_30
REMARK    5  A    between atoms: N_27  and  C_32
REMARK                            x       y       z     vdW  Elec       q    Type
REMARK                         _______ _______ _______ _____ _____    ______ ____
ROOT
ATOM      1  O   UNL     1      36.859 -21.654 -19.108  0.00  0.00    -0.270 OA
ATOM      2  N   UNL     1      35.122 -20.260 -19.847  0.00  0.00    -0.259 N 
ATOM      3  C   UNL     1      35.669 -21.303 -19.086  0.00  0.00    +0.253 C 
ATOM      4  H   UNL     1      34.159 -20.099 -19.722  0.00  0.00    +0.157 HD
ATOM      5  N   UNL     1      35.044 -18.460 -21.401  0.00  0.00    -0.388 NA
ATOM      6  C   UNL     1      35.709 -17.672 -22.275  0.00  0.00    +0.166 C 
ATOM      7  C   UNL     1      35.773 -19.409 -20.773  0.00  0.00    +0.167 C 
ATOM      8  C   UNL     1      37.063 -17.788 -22.548  0.00  0.00    +0.031 C 
ATOM      9  C   UNL     1      37.130 -19.605 -20.975  0.00  0.00    +0.101 C 
ATOM     10  C   UNL     1      37.780 -18.775 -21.882  0.00  0.00    -0.015 C 
ENDROOT
BRANCH   3  15
ATOM     11  F   UNL     1      32.906 -21.410 -19.579  0.00  0.00    -0.204 F 
ATOM     12  C   UNL     1      34.349 -23.278 -16.189  0.00  0.00    +0.046 C 
ATOM     13  C   UNL     1      32.984 -23.304 -16.477  0.00  0.00    -0.006 C 
ATOM     14  C   UNL     1      35.230 -22.620 -17.047  0.00  0.00    +0.021 C 
ATOM     15  C   UNL     1      34.747 -21.988 -18.193  0.00  0.00    +0.082 C 
ATOM     16  C   UNL     1      32.501 -22.672 -17.622  0.00  0.00    +0.027 C 
ATOM     17  C   UNL     1      32.012 -23.999 -15.578  0.00  0.00    +0.032 C 
ATOM     18  C   UNL     1      33.383 -22.014 -18.480  0.00  0.00    +0.144 C 
BRANCH  12  20
ATOM     19  N   UNL     1      35.084 -24.452 -12.919  0.00  0.00    -0.255 NA
ATOM     20  N   UNL     1      34.849 -23.899 -15.057  0.00  0.00    -0.282 N 
ATOM     21  C   UNL     1      35.999 -25.130 -13.685  0.00  0.00    +0.053 C 
ATOM     22  C   UNL     1      35.873 -24.803 -15.014  0.00  0.00    +0.134 C 
ATOM     23  C   UNL     1      34.407 -23.720 -13.776  0.00  0.00    +0.219 C 
BRANCH  21  24
ATOM     24  C   UNL     1      37.020 -26.115 -13.124  0.00  0.00    +0.037 C 
ATOM     25  C   UNL     1      37.972 -25.642 -12.065  0.00  0.00    +0.006 C 
ATOM     26  C   UNL     1      38.470 -25.915 -13.454  0.00  0.00    +0.006 C 
ENDBRANCH  21  24
ENDBRANCH  12  20
ENDBRANCH   3  15
BRANCH   6  30
ATOM     27  N   UNL     1      34.319 -15.627 -22.275  0.00  0.00    -0.252 N 
ATOM     28  N   UNL     1      34.601 -16.626 -24.201  0.00  0.00    -0.129 NA
ATOM     29  N   UNL     1      33.805 -15.515 -24.399  0.00  0.00    -0.128 NA
ATOM     30  C   UNL     1      34.897 -16.675 -22.922  0.00  0.00    +0.188 C 
ATOM     31  C   UNL     1      33.648 -14.929 -23.234  0.00  0.00    +0.192 C 
BRANCH  27  32
ATOM     32  C   UNL     1      34.387 -15.298 -20.872  0.00  0.00    +0.080 C 
ATOM     33  C   UNL     1      34.802 -13.841 -20.654  0.00  0.00    +0.022 C 
ATOM     34  C   UNL     1      33.067 -15.601 -20.158  0.00  0.00    +0.022 C 
ENDBRANCH  27  32
ENDBRANCH   6  30
TORSDOF 5
ENDMDL
