MODEL 1
REMARK VINA RESULT:     -11.9      0.000      0.000
REMARK  Name = 11633167
REMARK  7 active torsions:
REMARK  status: ('A' for Active; 'I' for Inactive)
REMARK    1  A    between atoms: C_1  and  C_8
REMARK    2  A    between atoms: C_2  and  C_25
REMARK    3  A    between atoms: C_4  and  O_17
REMARK    4  A    between atoms: O_17  and  C_18
REMARK    5  A    between atoms: C_18  and  C_20
REMARK    6  A    between atoms: C_25  and  N_26
REMARK    7  A    between atoms: N_26  and  C_29
REMARK                            x       y       z     vdW  Elec       q    Type
REMARK                         _______ _______ _______ _____ _____    ______ ____
ROOT
ATOM      1  C   UNL     1      34.660 -20.246 -20.424  0.00  0.00    -0.000 C 
ATOM      2  C   UNL     1      35.718 -21.573 -18.706  0.00  0.00    +0.031 C 
ATOM      3  C   UNL     1      35.814 -20.672 -19.767  0.00  0.00    +0.000 C 
ATOM      4  C   UNL     1      34.470 -22.046 -18.303  0.00  0.00    +0.137 C 
ATOM      5  C   UNL     1      33.412 -20.719 -20.023  0.00  0.00    +0.003 C 
ATOM      6  C   UNL     1      33.316 -21.619 -18.960  0.00  0.00    +0.037 C 
ENDROOT
BRANCH   1   8
ATOM      7  N   UNL     1      35.022 -15.701 -22.392  0.00  0.00    -0.312 N 
ATOM      8  C   UNL     1      34.759 -19.312 -21.526  0.00  0.00    +0.001 C 
ATOM      9  C   UNL     1      34.932 -17.074 -22.352  0.00  0.00    +0.048 C 
ATOM     10  C   UNL     1      34.950 -17.525 -23.674  0.00  0.00    +0.015 C 
ATOM     11  C   UNL     1      34.837 -17.942 -21.258  0.00  0.00    +0.015 C 
ATOM     12  C   UNL     1      34.774 -19.791 -22.834  0.00  0.00    +0.000 C 
ATOM     13  C   UNL     1      34.869 -18.910 -23.918  0.00  0.00    +0.001 C 
ATOM     14  C   UNL     1      35.055 -16.376 -24.506  0.00  0.00    +0.017 C 
ATOM     15  C   UNL     1      35.096 -15.269 -23.689  0.00  0.00    +0.062 C 
ATOM     16  H   UNL     1      35.031 -15.113 -21.602  0.00  0.00    +0.152 HD
ENDBRANCH   1   8
BRANCH   4  17
ATOM     17  O   UNL     1      34.358 -22.926 -17.269  0.00  0.00    -0.469 OA
BRANCH  17  18
ATOM     18  C   UNL     1      33.249 -23.822 -17.297  0.00  0.00    +0.251 C 
BRANCH  18  20
ATOM     19  N   UNL     1      32.937 -24.070 -14.909  0.00  0.00    -0.244 NA
ATOM     20  C   UNL     1      32.417 -23.612 -16.066  0.00  0.00    +0.103 C 
ATOM     21  C   UNL     1      31.197 -22.977 -16.181  0.00  0.00    +0.018 C 
ATOM     22  C   UNL     1      30.451 -22.798 -15.022  0.00  0.00    +0.003 C 
ATOM     23  C   UNL     1      32.184 -23.878 -13.803  0.00  0.00    +0.099 C 
ATOM     24  C   UNL     1      30.947 -23.253 -13.805  0.00  0.00    +0.021 C 
ENDBRANCH  18  20
ENDBRANCH  17  18
ENDBRANCH   4  17
BRANCH   2  25
ATOM     25  C   UNL     1      36.962 -22.019 -18.012  0.00  0.00    +0.117 C 
BRANCH  25  26
ATOM     26  N   UNL     1      36.920 -21.759 -16.573  0.00  0.00    -0.327 N 
ATOM     27  H   UNL     1      36.634 -20.869 -16.265  0.00  0.00    +0.147 HD
BRANCH  26  29
ATOM     28  N   UNL     1      36.751 -23.944 -13.587  0.00  0.00    -0.228 NA
ATOM     29  C   UNL     1      37.262 -22.700 -15.630  0.00  0.00    +0.077 C 
ATOM     30  C   UNL     1      36.449 -23.027 -14.534  0.00  0.00    +0.139 C 
ATOM     31  C   UNL     1      38.478 -23.401 -15.717  0.00  0.00    +0.019 C 
ATOM     32  C   UNL     1      38.824 -24.353 -14.762  0.00  0.00    +0.022 C 
ATOM     33  C   UNL     1      37.932 -24.584 -13.726  0.00  0.00    +0.100 C 
ATOM     34  N   UNL     1      35.216 -22.338 -14.415  0.00  0.00    -0.342 N 
ATOM     35  H   UNL     1      34.613 -22.535 -13.662  0.00  0.00    +0.144 HD
ATOM     36  H   UNL     1      34.962 -21.663 -15.085  0.00  0.00    +0.144 HD
ENDBRANCH  26  29
ENDBRANCH  25  26
ENDBRANCH   2  25
TORSDOF 7
ENDMDL
MODEL 2
REMARK VINA RESULT:     -11.7      1.704      2.677
REMARK  Name = 11633167
REMARK  7 active torsions:
REMARK  status: ('A' for Active; 'I' for Inactive)
REMARK    1  A    between atoms: C_1  and  C_8
REMARK    2  A    between atoms: C_2  and  C_25
REMARK    3  A    between atoms: C_4  and  O_17
REMARK    4  A    between atoms: O_17  and  C_18
REMARK    5  A    between atoms: C_18  and  C_20
REMARK    6  A    between atoms: C_25  and  N_26
REMARK    7  A    between atoms: N_26  and  C_29
REMARK                            x       y       z     vdW  Elec       q    Type
REMARK                         _______ _______ _______ _____ _____    ______ ____
ROOT
ATOM      1  C   UNL     1      35.355 -21.585 -18.676  0.00  0.00    -0.000 C 
ATOM      2  C   UNL     1      36.040 -22.610 -16.600  0.00  0.00    +0.031 C 
ATOM      3  C   UNL     1      36.302 -21.749 -17.666  0.00  0.00    +0.000 C 
ATOM      4  C   UNL     1      34.832 -23.305 -16.545  0.00  0.00    +0.137 C 
ATOM      5  C   UNL     1      34.148 -22.279 -18.622  0.00  0.00    +0.003 C 
ATOM      6  C   UNL     1      33.885 -23.139 -17.555  0.00  0.00    +0.037 C 
ENDROOT
BRANCH   1   8
ATOM      7  N   UNL     1      34.166 -19.182 -22.857  0.00  0.00    -0.312 N 
ATOM      8  C   UNL     1      35.627 -20.692 -19.783  0.00  0.00    +0.001 C 
ATOM      9  C   UNL     1      34.936 -19.591 -21.791  0.00  0.00    +0.048 C 
ATOM     10  C   UNL     1      36.176 -18.960 -21.915  0.00  0.00    +0.015 C 
ATOM     11  C   UNL     1      34.632 -20.461 -20.738  0.00  0.00    +0.015 C 
ATOM     12  C   UNL     1      36.873 -20.077 -19.881  0.00  0.00    +0.000 C 
ATOM     13  C   UNL     1      37.163 -19.210 -20.940  0.00  0.00    +0.001 C 
ATOM     14  C   UNL     1      36.123 -18.159 -23.089  0.00  0.00    +0.017 C 
ATOM     15  C   UNL     1      34.875 -18.318 -23.648  0.00  0.00    +0.062 C 
ATOM     16  H   UNL     1      33.240 -19.470 -23.027  0.00  0.00    +0.152 HD
ENDBRANCH   1   8
BRANCH   4  17
ATOM     17  O   UNL     1      34.560 -24.149 -15.511  0.00  0.00    -0.469 OA
BRANCH  17  18
ATOM     18  C   UNL     1      34.035 -23.568 -14.320  0.00  0.00    +0.251 C 
BRANCH  18  20
ATOM     19  N   UNL     1      32.196 -25.049 -13.787  0.00  0.00    -0.244 NA
ATOM     20  C   UNL     1      32.561 -23.837 -14.251  0.00  0.00    +0.103 C 
ATOM     21  C   UNL     1      31.679 -22.854 -14.656  0.00  0.00    +0.018 C 
ATOM     22  C   UNL     1      30.320 -23.136 -14.580  0.00  0.00    +0.003 C 
ATOM     23  C   UNL     1      30.867 -25.287 -13.727  0.00  0.00    +0.099 C 
ATOM     24  C   UNL     1      29.897 -24.373 -14.107  0.00  0.00    +0.021 C 
ENDBRANCH  18  20
ENDBRANCH  17  18
ENDBRANCH   4  17
BRANCH   2  25
ATOM     25  C   UNL     1      37.064 -22.776 -15.526  0.00  0.00    +0.117 C 
BRANCH  25  26
ATOM     26  N   UNL     1      37.611 -24.132 -15.484  0.00  0.00    -0.327 N 
ATOM     27  H   UNL     1      38.020 -24.500 -16.300  0.00  0.00    +0.147 HD
BRANCH  26  29
ATOM     28  N   UNL     1      37.014 -27.026 -13.251  0.00  0.00    -0.228 NA
ATOM     29  C   UNL     1      37.580 -24.919 -14.356  0.00  0.00    +0.077 C 
ATOM     30  C   UNL     1      37.063 -26.223 -14.337  0.00  0.00    +0.139 C 
ATOM     31  C   UNL     1      38.080 -24.444 -13.130  0.00  0.00    +0.019 C 
ATOM     32  C   UNL     1      38.048 -25.241 -11.990  0.00  0.00    +0.022 C 
ATOM     33  C   UNL     1      37.510 -26.513 -12.103  0.00  0.00    +0.100 C 
ATOM     34  N   UNL     1      36.549 -26.734 -15.557  0.00  0.00    -0.342 N 
ATOM     35  H   UNL     1      36.176 -27.644 -15.590  0.00  0.00    +0.144 HD
ATOM     36  H   UNL     1      36.567 -26.178 -16.369  0.00  0.00    +0.144 HD
ENDBRANCH  26  29
ENDBRANCH  25  26
ENDBRANCH   2  25
TORSDOF 7
ENDMDL
MODEL 3
REMARK VINA RESULT:     -11.6      1.071      4.285
REMARK  Name = 11633167
REMARK  7 active torsions:
REMARK  status: ('A' for Active; 'I' for Inactive)
REMARK    1  A    between atoms: C_1  and  C_8
REMARK    2  A    between atoms: C_2  and  C_25
REMARK    3  A    between atoms: C_4  and  O_17
REMARK    4  A    between atoms: O_17  and  C_18
REMARK    5  A    between atoms: C_18  and  C_20
REMARK    6  A    between atoms: C_25  and  N_26
REMARK    7  A    between atoms: N_26  and  C_29
REMARK                            x       y       z     vdW  Elec       q    Type
REMARK                         _______ _______ _______ _____ _____    ______ ____
ROOT
ATOM      1  C   UNL     1      35.330 -20.258 -20.344  0.00  0.00    -0.000 C 
ATOM      2  C   UNL     1      34.365 -21.804 -18.758  0.00  0.00    +0.031 C 
ATOM      3  C   UNL     1      34.216 -20.921 -19.828  0.00  0.00    +0.000 C 
ATOM      4  C   UNL     1      35.626 -22.023 -18.205  0.00  0.00    +0.137 C 
ATOM      5  C   UNL     1      36.591 -20.477 -19.791  0.00  0.00    +0.003 C 
ATOM      6  C   UNL     1      36.739 -21.361 -18.722  0.00  0.00    +0.037 C 
ENDROOT
BRANCH   1   8
ATOM      7  N   UNL     1      35.070 -15.738 -22.385  0.00  0.00    -0.312 N 
ATOM      8  C   UNL     1      35.177 -19.341 -21.454  0.00  0.00    +0.001 C 
ATOM      9  C   UNL     1      35.069 -17.113 -22.317  0.00  0.00    +0.048 C 
ATOM     10  C   UNL     1      34.878 -17.588 -23.618  0.00  0.00    +0.015 C 
ATOM     11  C   UNL     1      35.221 -17.964 -21.217  0.00  0.00    +0.015 C 
ATOM     12  C   UNL     1      34.988 -19.844 -22.739  0.00  0.00    +0.000 C 
ATOM     13  C   UNL     1      34.837 -18.981 -23.831  0.00  0.00    +0.001 C 
ATOM     14  C   UNL     1      34.767 -16.452 -24.466  0.00  0.00    +0.017 C 
ATOM     15  C   UNL     1      34.887 -15.329 -23.679  0.00  0.00    +0.062 C 
ATOM     16  H   UNL     1      35.184 -15.136 -21.615  0.00  0.00    +0.152 HD
ENDBRANCH   1   8
BRANCH   4  17
ATOM     17  O   UNL     1      35.789 -22.882 -17.161  0.00  0.00    -0.469 OA
BRANCH  17  18
ATOM     18  C   UNL     1      36.695 -22.488 -16.132  0.00  0.00    +0.251 C 
BRANCH  18  20
ATOM     19  N   UNL     1      36.068 -24.538 -15.007  0.00  0.00    -0.244 NA
ATOM     20  C   UNL     1      37.071 -23.693 -15.322  0.00  0.00    +0.103 C 
ATOM     21  C   UNL     1      38.390 -23.869 -14.953  0.00  0.00    +0.018 C 
ATOM     22  C   UNL     1      38.705 -24.996 -14.202  0.00  0.00    +0.003 C 
ATOM     23  C   UNL     1      36.412 -25.622 -14.278  0.00  0.00    +0.099 C 
ATOM     24  C   UNL     1      37.703 -25.895 -13.854  0.00  0.00    +0.021 C 
ENDBRANCH  18  20
ENDBRANCH  17  18
ENDBRANCH   4  17
BRANCH   2  25
ATOM     25  C   UNL     1      33.163 -22.505 -18.218  0.00  0.00    +0.117 C 
BRANCH  25  26
ATOM     26  N   UNL     1      33.309 -22.850 -16.804  0.00  0.00    -0.327 N 
ATOM     27  H   UNL     1      34.214 -23.006 -16.449  0.00  0.00    +0.147 HD
BRANCH  26  29
ATOM     28  N   UNL     1      31.355 -23.230 -13.681  0.00  0.00    -0.228 NA
ATOM     29  C   UNL     1      32.241 -22.967 -15.945  0.00  0.00    +0.077 C 
ATOM     30  C   UNL     1      32.378 -23.112 -14.556  0.00  0.00    +0.139 C 
ATOM     31  C   UNL     1      30.920 -22.946 -16.428  0.00  0.00    +0.019 C 
ATOM     32  C   UNL     1      29.840 -23.065 -15.559  0.00  0.00    +0.022 C 
ATOM     33  C   UNL     1      30.110 -23.203 -14.206  0.00  0.00    +0.100 C 
ATOM     34  N   UNL     1      33.697 -23.137 -14.035  0.00  0.00    -0.342 N 
ATOM     35  H   UNL     1      33.841 -23.236 -13.066  0.00  0.00    +0.144 HD
ATOM     36  H   UNL     1      34.468 -23.054 -14.642  0.00  0.00    +0.144 HD
ENDBRANCH  26  29
ENDBRANCH  25  26
ENDBRANCH   2  25
TORSDOF 7
ENDMDL
MODEL 4
REMARK VINA RESULT:     -10.9      1.909      3.024
REMARK  Name = 11633167
REMARK  7 active torsions:
REMARK  status: ('A' for Active; 'I' for Inactive)
REMARK    1  A    between atoms: C_1  and  C_8
REMARK    2  A    between atoms: C_2  and  C_25
REMARK    3  A    between atoms: C_4  and  O_17
REMARK    4  A    between atoms: O_17  and  C_18
REMARK    5  A    between atoms: C_18  and  C_20
REMARK    6  A    between atoms: C_25  and  N_26
REMARK    7  A    between atoms: N_26  and  C_29
REMARK                            x       y       z     vdW  Elec       q    Type
REMARK                         _______ _______ _______ _____ _____    ______ ____
ROOT
ATOM      1  C   UNL     1      34.666 -21.877 -18.384  0.00  0.00    -0.000 C 
ATOM      2  C   UNL     1      35.378 -22.866 -16.299  0.00  0.00    +0.031 C 
ATOM      3  C   UNL     1      35.625 -22.023 -17.383  0.00  0.00    +0.000 C 
ATOM      4  C   UNL     1      34.172 -23.562 -16.218  0.00  0.00    +0.137 C 
ATOM      5  C   UNL     1      33.460 -22.572 -18.304  0.00  0.00    +0.003 C 
ATOM      6  C   UNL     1      33.212 -23.414 -17.219  0.00  0.00    +0.037 C 
ENDROOT
BRANCH   1   8
ATOM      7  N   UNL     1      37.581 -19.120 -21.310  0.00  0.00    -0.312 N 
ATOM      8  C   UNL     1      34.922 -21.003 -19.510  0.00  0.00    +0.001 C 
ATOM      9  C   UNL     1      36.428 -19.708 -20.843  0.00  0.00    +0.048 C 
ATOM     10  C   UNL     1      35.392 -19.313 -21.694  0.00  0.00    +0.015 C 
ATOM     11  C   UNL     1      36.224 -20.551 -19.744  0.00  0.00    +0.015 C 
ATOM     12  C   UNL     1      33.870 -20.626 -20.341  0.00  0.00    +0.000 C 
ATOM     13  C   UNL     1      34.088 -19.782 -21.436  0.00  0.00    +0.001 C 
ATOM     14  C   UNL     1      35.965 -18.471 -22.686  0.00  0.00    +0.017 C 
ATOM     15  C   UNL     1      37.312 -18.369 -22.423  0.00  0.00    +0.062 C 
ATOM     16  H   UNL     1      38.472 -19.223 -20.902  0.00  0.00    +0.152 HD
ENDBRANCH   1   8
BRANCH   4  17
ATOM     17  O   UNL     1      33.914 -24.389 -15.167  0.00  0.00    -0.469 OA
BRANCH  17  18
ATOM     18  C   UNL     1      33.159 -23.847 -14.085  0.00  0.00    +0.251 C 
BRANCH  18  20
ATOM     19  N   UNL     1      31.300 -25.394 -14.203  0.00  0.00    -0.244 NA
ATOM     20  C   UNL     1      31.701 -24.113 -14.324  0.00  0.00    +0.103 C 
ATOM     21  C   UNL     1      30.870 -23.058 -14.646  0.00  0.00    +0.018 C 
ATOM     22  C   UNL     1      29.526 -23.338 -14.861  0.00  0.00    +0.003 C 
ATOM     23  C   UNL     1      29.987 -25.629 -14.419  0.00  0.00    +0.099 C 
ATOM     24  C   UNL     1      29.067 -24.646 -14.747  0.00  0.00    +0.021 C 
ENDBRANCH  18  20
ENDBRANCH  17  18
ENDBRANCH   4  17
BRANCH   2  25
ATOM     25  C   UNL     1      36.415 -23.011 -15.236  0.00  0.00    +0.117 C 
BRANCH  25  26
ATOM     26  N   UNL     1      37.095 -24.306 -15.296  0.00  0.00    -0.327 N 
ATOM     27  H   UNL     1      37.257 -24.712 -16.178  0.00  0.00    +0.147 HD
BRANCH  26  29
ATOM     28  N   UNL     1      39.263 -26.184 -12.952  0.00  0.00    -0.228 NA
ATOM     29  C   UNL     1      37.518 -24.984 -14.176  0.00  0.00    +0.077 C 
ATOM     30  C   UNL     1      38.811 -25.512 -14.035  0.00  0.00    +0.139 C 
ATOM     31  C   UNL     1      36.654 -25.189 -13.085  0.00  0.00    +0.019 C 
ATOM     32  C   UNL     1      37.083 -25.875 -11.954  0.00  0.00    +0.022 C 
ATOM     33  C   UNL     1      38.386 -26.348 -11.938  0.00  0.00    +0.100 C 
ATOM     34  N   UNL     1      39.708 -25.324 -15.116  0.00  0.00    -0.342 N 
ATOM     35  H   UNL     1      40.625 -25.677 -15.061  0.00  0.00    +0.144 HD
ATOM     36  H   UNL     1      39.414 -24.840 -15.922  0.00  0.00    +0.144 HD
ENDBRANCH  26  29
ENDBRANCH  25  26
ENDBRANCH   2  25
TORSDOF 7
ENDMDL
MODEL 5
REMARK VINA RESULT:     -10.8      1.829      5.104
REMARK  Name = 11633167
REMARK  7 active torsions:
REMARK  status: ('A' for Active; 'I' for Inactive)
REMARK    1  A    between atoms: C_1  and  C_8
REMARK    2  A    between atoms: C_2  and  C_25
REMARK    3  A    between atoms: C_4  and  O_17
REMARK    4  A    between atoms: O_17  and  C_18
REMARK    5  A    between atoms: C_18  and  C_20
REMARK    6  A    between atoms: C_25  and  N_26
REMARK    7  A    between atoms: N_26  and  C_29
REMARK                            x       y       z     vdW  Elec       q    Type
REMARK                         _______ _______ _______ _____ _____    ______ ____
ROOT
ATOM      1  C   UNL     1      35.715 -21.373 -18.709  0.00  0.00    -0.000 C 
ATOM      2  C   UNL     1      34.365 -22.851 -17.359  0.00  0.00    +0.031 C 
ATOM      3  C   UNL     1      34.508 -22.032 -18.479  0.00  0.00    +0.000 C 
ATOM      4  C   UNL     1      35.428 -23.012 -16.471  0.00  0.00    +0.137 C 
ATOM      5  C   UNL     1      36.779 -21.533 -17.822  0.00  0.00    +0.003 C 
ATOM      6  C   UNL     1      36.636 -22.354 -16.703  0.00  0.00    +0.037 C 
ENDROOT
BRANCH   1   8
ATOM      7  N   UNL     1      34.165 -19.324 -22.959  0.00  0.00    -0.312 N 
ATOM      8  C   UNL     1      35.865 -20.522 -19.871  0.00  0.00    +0.001 C 
ATOM      9  C   UNL     1      35.005 -19.601 -21.904  0.00  0.00    +0.048 C 
ATOM     10  C   UNL     1      36.177 -18.868 -22.109  0.00  0.00    +0.015 C 
ATOM     11  C   UNL     1      34.820 -20.435 -20.796  0.00  0.00    +0.015 C 
ATOM     12  C   UNL     1      37.044 -19.803 -20.049  0.00  0.00    +0.000 C 
ATOM     13  C   UNL     1      37.216 -18.972 -21.162  0.00  0.00    +0.001 C 
ATOM     14  C   UNL     1      36.009 -18.141 -23.320  0.00  0.00    +0.017 C 
ATOM     15  C   UNL     1      34.763 -18.443 -23.821  0.00  0.00    +0.062 C 
ATOM     16  H   UNL     1      33.264 -19.704 -23.077  0.00  0.00    +0.152 HD
ENDBRANCH   1   8
BRANCH   4  17
ATOM     17  O   UNL     1      35.306 -23.808 -15.373  0.00  0.00    -0.469 OA
BRANCH  17  18
ATOM     18  C   UNL     1      35.700 -23.252 -14.121  0.00  0.00    +0.251 C 
BRANCH  18  20
ATOM     19  N   UNL     1      36.774 -25.418 -13.996  0.00  0.00    -0.244 NA
ATOM     20  C   UNL     1      36.653 -24.193 -13.445  0.00  0.00    +0.103 C 
ATOM     21  C   UNL     1      37.337 -23.766 -12.324  0.00  0.00    +0.018 C 
ATOM     22  C   UNL     1      38.212 -24.663 -11.721  0.00  0.00    +0.003 C 
ATOM     23  C   UNL     1      37.633 -26.262 -13.383  0.00  0.00    +0.099 C 
ATOM     24  C   UNL     1      38.369 -25.937 -12.255  0.00  0.00    +0.021 C 
ENDBRANCH  18  20
ENDBRANCH  17  18
ENDBRANCH   4  17
BRANCH   2  25
ATOM     25  C   UNL     1      33.066 -23.549 -17.126  0.00  0.00    +0.117 C 
BRANCH  25  26
ATOM     26  N   UNL     1      32.458 -23.180 -15.847  0.00  0.00    -0.327 N 
ATOM     27  H   UNL     1      32.851 -22.435 -15.337  0.00  0.00    +0.147 HD
BRANCH  26  29
ATOM     28  N   UNL     1      30.382 -25.381 -13.711  0.00  0.00    -0.228 NA
ATOM     29  C   UNL     1      31.362 -23.825 -15.323  0.00  0.00    +0.077 C 
ATOM     30  C   UNL     1      31.435 -24.729 -14.253  0.00  0.00    +0.139 C 
ATOM     31  C   UNL     1      30.075 -23.605 -15.848  0.00  0.00    +0.019 C 
ATOM     32  C   UNL     1      28.967 -24.257 -15.318  0.00  0.00    +0.022 C 
ATOM     33  C   UNL     1      29.173 -25.128 -14.259  0.00  0.00    +0.100 C 
ATOM     34  N   UNL     1      32.717 -24.974 -13.700  0.00  0.00    -0.342 N 
ATOM     35  H   UNL     1      32.816 -25.601 -12.947  0.00  0.00    +0.144 HD
ATOM     36  H   UNL     1      33.508 -24.518 -14.068  0.00  0.00    +0.144 HD
ENDBRANCH  26  29
ENDBRANCH  25  26
ENDBRANCH   2  25
TORSDOF 7
ENDMDL
MODEL 6
REMARK VINA RESULT:     -10.7      2.365      7.869
REMARK  Name = 11633167
REMARK  7 active torsions:
REMARK  status: ('A' for Active; 'I' for Inactive)
REMARK    1  A    between atoms: C_1  and  C_8
REMARK    2  A    between atoms: C_2  and  C_25
REMARK    3  A    between atoms: C_4  and  O_17
REMARK    4  A    between atoms: O_17  and  C_18
REMARK    5  A    between atoms: C_18  and  C_20
REMARK    6  A    between atoms: C_25  and  N_26
REMARK    7  A    between atoms: N_26  and  C_29
REMARK                            x       y       z     vdW  Elec       q    Type
REMARK                         _______ _______ _______ _____ _____    ______ ____
ROOT
ATOM      1  C   UNL     1      33.735 -23.301 -15.052  0.00  0.00    -0.000 C 
ATOM      2  C   UNL     1      35.758 -22.653 -16.200  0.00  0.00    +0.031 C 
ATOM      3  C   UNL     1      34.380 -22.872 -16.211  0.00  0.00    +0.000 C 
ATOM      4  C   UNL     1      36.489 -22.865 -15.032  0.00  0.00    +0.137 C 
ATOM      5  C   UNL     1      34.465 -23.513 -13.883  0.00  0.00    +0.003 C 
ATOM      6  C   UNL     1      35.843 -23.293 -13.872  0.00  0.00    +0.037 C 
ENDROOT
BRANCH   1   8
ATOM      7  N   UNL     1      29.143 -22.711 -16.850  0.00  0.00    -0.312 N 
ATOM      8  C   UNL     1      32.305 -23.529 -15.062  0.00  0.00    +0.001 C 
ATOM      9  C   UNL     1      30.144 -23.166 -16.021  0.00  0.00    +0.048 C 
ATOM     10  C   UNL     1      29.542 -23.984 -15.062  0.00  0.00    +0.015 C 
ATOM     11  C   UNL     1      31.521 -22.920 -16.047  0.00  0.00    +0.015 C 
ATOM     12  C   UNL     1      31.733 -24.349 -14.093  0.00  0.00    +0.000 C 
ATOM     13  C   UNL     1      30.353 -24.586 -14.079  0.00  0.00    +0.001 C 
ATOM     14  C   UNL     1      28.148 -24.004 -15.345  0.00  0.00    +0.017 C 
ATOM     15  C   UNL     1      27.933 -23.211 -16.449  0.00  0.00    +0.062 C 
ATOM     16  H   UNL     1      29.278 -22.112 -17.619  0.00  0.00    +0.152 HD
ENDBRANCH   1   8
BRANCH   4  17
ATOM     17  O   UNL     1      37.835 -22.656 -15.003  0.00  0.00    -0.469 OA
BRANCH  17  18
ATOM     18  C   UNL     1      38.672 -23.802 -15.144  0.00  0.00    +0.251 C 
BRANCH  18  20
ATOM     19  N   UNL     1      38.577 -24.485 -12.823  0.00  0.00    -0.244 NA
ATOM     20  C   UNL     1      38.297 -24.813 -14.101  0.00  0.00    +0.103 C 
ATOM     21  C   UNL     1      37.700 -25.995 -14.494  0.00  0.00    +0.018 C 
ATOM     22  C   UNL     1      37.366 -26.910 -13.503  0.00  0.00    +0.003 C 
ATOM     23  C   UNL     1      38.237 -25.399 -11.887  0.00  0.00    +0.099 C 
ATOM     24  C   UNL     1      37.635 -26.615 -12.172  0.00  0.00    +0.021 C 
ENDBRANCH  18  20
ENDBRANCH  17  18
ENDBRANCH   4  17
BRANCH   2  25
ATOM     25  C   UNL     1      36.434 -22.193 -17.449  0.00  0.00    +0.117 C 
BRANCH  25  26
ATOM     26  N   UNL     1      35.601 -22.388 -18.636  0.00  0.00    -0.327 N 
ATOM     27  H   UNL     1      35.259 -23.292 -18.828  0.00  0.00    +0.147 HD
BRANCH  26  29
ATOM     28  N   UNL     1      33.587 -20.049 -20.683  0.00  0.00    -0.228 NA
ATOM     29  C   UNL     1      35.271 -21.368 -19.498  0.00  0.00    +0.077 C 
ATOM     30  C   UNL     1      33.950 -21.042 -19.841  0.00  0.00    +0.139 C 
ATOM     31  C   UNL     1      36.269 -20.576 -20.095  0.00  0.00    +0.019 C 
ATOM     32  C   UNL     1      35.935 -19.544 -20.967  0.00  0.00    +0.022 C 
ATOM     33  C   UNL     1      34.591 -19.324 -21.225  0.00  0.00    +0.100 C 
ATOM     34  N   UNL     1      32.919 -21.821 -19.257  0.00  0.00    -0.342 N 
ATOM     35  H   UNL     1      31.978 -21.628 -19.470  0.00  0.00    +0.144 HD
ATOM     36  H   UNL     1      33.145 -22.554 -18.639  0.00  0.00    +0.144 HD
ENDBRANCH  26  29
ENDBRANCH  25  26
ENDBRANCH   2  25
TORSDOF 7
ENDMDL
MODEL 7
REMARK VINA RESULT:     -10.6      2.132      5.173
REMARK  Name = 11633167
REMARK  7 active torsions:
REMARK  status: ('A' for Active; 'I' for Inactive)
REMARK    1  A    between atoms: C_1  and  C_8
REMARK    2  A    between atoms: C_2  and  C_25
REMARK    3  A    between atoms: C_4  and  O_17
REMARK    4  A    between atoms: O_17  and  C_18
REMARK    5  A    between atoms: C_18  and  C_20
REMARK    6  A    between atoms: C_25  and  N_26
REMARK    7  A    between atoms: N_26  and  C_29
REMARK                            x       y       z     vdW  Elec       q    Type
REMARK                         _______ _______ _______ _____ _____    ______ ____
ROOT
ATOM      1  C   UNL     1      35.932 -21.843 -17.922  0.00  0.00    -0.000 C 
ATOM      2  C   UNL     1      35.407 -23.391 -16.144  0.00  0.00    +0.031 C 
ATOM      3  C   UNL     1      35.023 -22.689 -17.288  0.00  0.00    +0.000 C 
ATOM      4  C   UNL     1      36.697 -23.246 -15.637  0.00  0.00    +0.137 C 
ATOM      5  C   UNL     1      37.223 -21.698 -17.416  0.00  0.00    +0.003 C 
ATOM      6  C   UNL     1      37.607 -22.401 -16.273  0.00  0.00    +0.037 C 
ENDROOT
BRANCH   1   8
ATOM      7  N   UNL     1      36.777 -18.911 -21.841  0.00  0.00    -0.312 N 
ATOM      8  C   UNL     1      35.535 -21.114 -19.108  0.00  0.00    +0.001 C 
ATOM      9  C   UNL     1      36.068 -19.696 -20.960  0.00  0.00    +0.048 C 
ATOM     10  C   UNL     1      34.742 -19.713 -21.401  0.00  0.00    +0.015 C 
ATOM     11  C   UNL     1      36.494 -20.386 -19.819  0.00  0.00    +0.015 C 
ATOM     12  C   UNL     1      34.206 -21.149 -19.524  0.00  0.00    +0.000 C 
ATOM     13  C   UNL     1      33.794 -20.454 -20.667  0.00  0.00    +0.001 C 
ATOM     14  C   UNL     1      34.682 -18.913 -22.575  0.00  0.00    +0.017 C 
ATOM     15  C   UNL     1      35.948 -18.432 -22.820  0.00  0.00    +0.062 C 
ATOM     16  H   UNL     1      37.741 -18.721 -21.776  0.00  0.00    +0.152 HD
ENDBRANCH   1   8
BRANCH   4  17
ATOM     17  O   UNL     1      37.089 -23.924 -14.522  0.00  0.00    -0.469 OA
BRANCH  17  18
ATOM     18  C   UNL     1      37.623 -23.153 -13.448  0.00  0.00    +0.251 C 
BRANCH  18  20
ATOM     19  N   UNL     1      37.334 -22.905 -11.057  0.00  0.00    -0.244 NA
ATOM     20  C   UNL     1      36.974 -23.583 -12.166  0.00  0.00    +0.103 C 
ATOM     21  C   UNL     1      36.064 -24.622 -12.189  0.00  0.00    +0.018 C 
ATOM     22  C   UNL     1      35.481 -24.996 -10.984  0.00  0.00    +0.003 C 
ATOM     23  C   UNL     1      36.747 -23.296  -9.905  0.00  0.00    +0.099 C 
ATOM     24  C   UNL     1      35.823 -24.325  -9.815  0.00  0.00    +0.021 C 
ENDBRANCH  18  20
ENDBRANCH  17  18
ENDBRANCH   4  17
BRANCH   2  25
ATOM     25  C   UNL     1      34.422 -24.292 -15.476  0.00  0.00    +0.117 C 
BRANCH  25  26
ATOM     26  N   UNL     1      33.420 -23.549 -14.711  0.00  0.00    -0.327 N 
ATOM     27  H   UNL     1      33.727 -22.908 -14.030  0.00  0.00    +0.147 HD
BRANCH  26  29
ATOM     28  N   UNL     1      29.951 -24.789 -14.319  0.00  0.00    -0.228 NA
ATOM     29  C   UNL     1      32.065 -23.705 -14.898  0.00  0.00    +0.077 C 
ATOM     30  C   UNL     1      31.282 -24.608 -14.164  0.00  0.00    +0.139 C 
ATOM     31  C   UNL     1      31.378 -22.945 -15.862  0.00  0.00    +0.019 C 
ATOM     32  C   UNL     1      30.008 -23.103 -16.051  0.00  0.00    +0.022 C 
ATOM     33  C   UNL     1      29.348 -24.030 -15.260  0.00  0.00    +0.100 C 
ATOM     34  N   UNL     1      31.944 -25.390 -13.184  0.00  0.00    -0.342 N 
ATOM     35  H   UNL     1      31.434 -26.037 -12.644  0.00  0.00    +0.144 HD
ATOM     36  H   UNL     1      32.913 -25.286 -13.043  0.00  0.00    +0.144 HD
ENDBRANCH  26  29
ENDBRANCH  25  26
ENDBRANCH   2  25
TORSDOF 7
ENDMDL
MODEL 8
REMARK VINA RESULT:     -10.1      1.949      5.918
REMARK  Name = 11633167
REMARK  7 active torsions:
REMARK  status: ('A' for Active; 'I' for Inactive)
REMARK    1  A    between atoms: C_1  and  C_8
REMARK    2  A    between atoms: C_2  and  C_25
REMARK    3  A    between atoms: C_4  and  O_17
REMARK    4  A    between atoms: O_17  and  C_18
REMARK    5  A    between atoms: C_18  and  C_20
REMARK    6  A    between atoms: C_25  and  N_26
REMARK    7  A    between atoms: N_26  and  C_29
REMARK                            x       y       z     vdW  Elec       q    Type
REMARK                         _______ _______ _______ _____ _____    ______ ____
ROOT
ATOM      1  C   UNL     1      35.496 -21.898 -17.909  0.00  0.00    -0.000 C 
ATOM      2  C   UNL     1      34.785 -23.428 -16.182  0.00  0.00    +0.031 C 
ATOM      3  C   UNL     1      34.516 -22.719 -17.353  0.00  0.00    +0.000 C 
ATOM      4  C   UNL     1      36.032 -23.317 -15.570  0.00  0.00    +0.137 C 
ATOM      5  C   UNL     1      36.744 -21.786 -17.298  0.00  0.00    +0.003 C 
ATOM      6  C   UNL     1      37.013 -22.496 -16.127  0.00  0.00    +0.037 C 
ENDROOT
BRANCH   1   8
ATOM      7  N   UNL     1      36.770 -19.133 -21.833  0.00  0.00    -0.312 N 
ATOM      8  C   UNL     1      35.218 -21.161 -19.124  0.00  0.00    +0.001 C 
ATOM      9  C   UNL     1      35.956 -19.834 -20.972  0.00  0.00    +0.048 C 
ATOM     10  C   UNL     1      34.654 -19.741 -21.472  0.00  0.00    +0.015 C 
ATOM     11  C   UNL     1      36.268 -20.535 -19.802  0.00  0.00    +0.015 C 
ATOM     12  C   UNL     1      33.911 -21.086 -19.598  0.00  0.00    +0.000 C 
ATOM     13  C   UNL     1      33.612 -20.380 -20.770  0.00  0.00    +0.001 C 
ATOM     14  C   UNL     1      34.717 -18.963 -22.661  0.00  0.00    +0.017 C 
ATOM     15  C   UNL     1      36.031 -18.602 -22.857  0.00  0.00    +0.062 C 
ATOM     16  H   UNL     1      37.743 -19.027 -21.728  0.00  0.00    +0.152 HD
ENDBRANCH   1   8
BRANCH   4  17
ATOM     17  O   UNL     1      36.312 -24.002 -14.426  0.00  0.00    -0.469 OA
BRANCH  17  18
ATOM     18  C   UNL     1      37.428 -23.557 -13.659  0.00  0.00    +0.251 C 
BRANCH  18  20
ATOM     19  N   UNL     1      39.433 -24.278 -14.810  0.00  0.00    -0.244 NA
ATOM     20  C   UNL     1      38.554 -24.536 -13.820  0.00  0.00    +0.103 C 
ATOM     21  C   UNL     1      38.630 -25.619 -12.967  0.00  0.00    +0.018 C 
ATOM     22  C   UNL     1      39.685 -26.506 -13.143  0.00  0.00    +0.003 C 
ATOM     23  C   UNL     1      40.445 -25.162 -14.951  0.00  0.00    +0.099 C 
ATOM     24  C   UNL     1      40.615 -26.281 -14.151  0.00  0.00    +0.021 C 
ENDBRANCH  18  20
ENDBRANCH  17  18
ENDBRANCH   4  17
BRANCH   2  25
ATOM     25  C   UNL     1      33.724 -24.302 -15.598  0.00  0.00    +0.117 C 
BRANCH  25  26
ATOM     26  N   UNL     1      32.657 -23.531 -14.961  0.00  0.00    -0.327 N 
ATOM     27  H   UNL     1      32.902 -22.738 -14.432  0.00  0.00    +0.147 HD
BRANCH  26  29
ATOM     28  N   UNL     1      29.149 -23.598 -16.148  0.00  0.00    -0.228 NA
ATOM     29  C   UNL     1      31.326 -23.862 -15.065  0.00  0.00    +0.077 C 
ATOM     30  C   UNL     1      30.461 -23.299 -16.015  0.00  0.00    +0.139 C 
ATOM     31  C   UNL     1      30.748 -24.809 -14.200  0.00  0.00    +0.019 C 
ATOM     32  C   UNL     1      29.401 -25.144 -14.306  0.00  0.00    +0.022 C 
ATOM     33  C   UNL     1      28.653 -24.515 -15.288  0.00  0.00    +0.100 C 
ATOM     34  N   UNL     1      31.011 -22.340 -16.902  0.00  0.00    -0.342 N 
ATOM     35  H   UNL     1      30.441 -21.919 -17.586  0.00  0.00    +0.144 HD
ATOM     36  H   UNL     1      31.963 -22.096 -16.836  0.00  0.00    +0.144 HD
ENDBRANCH  26  29
ENDBRANCH  25  26
ENDBRANCH   2  25
TORSDOF 7
ENDMDL
MODEL 9
REMARK VINA RESULT:     -10.0      3.289     10.378
REMARK  Name = 11633167
REMARK  7 active torsions:
REMARK  status: ('A' for Active; 'I' for Inactive)
REMARK    1  A    between atoms: C_1  and  C_8
REMARK    2  A    between atoms: C_2  and  C_25
REMARK    3  A    between atoms: C_4  and  O_17
REMARK    4  A    between atoms: O_17  and  C_18
REMARK    5  A    between atoms: C_18  and  C_20
REMARK    6  A    between atoms: C_25  and  N_26
REMARK    7  A    between atoms: N_26  and  C_29
REMARK                            x       y       z     vdW  Elec       q    Type
REMARK                         _______ _______ _______ _____ _____    ______ ____
ROOT
ATOM      1  C   UNL     1      34.958 -19.373 -21.307  0.00  0.00    -0.000 C 
ATOM      2  C   UNL     1      34.902 -17.064 -22.011  0.00  0.00    +0.031 C 
ATOM      3  C   UNL     1      34.800 -18.022 -21.002  0.00  0.00    +0.000 C 
ATOM      4  C   UNL     1      35.161 -17.458 -23.323  0.00  0.00    +0.137 C 
ATOM      5  C   UNL     1      35.217 -19.768 -22.618  0.00  0.00    +0.003 C 
ATOM      6  C   UNL     1      35.320 -18.810 -23.627  0.00  0.00    +0.037 C 
ENDROOT
BRANCH   1   8
ATOM      7  N   UNL     1      32.445 -22.240 -18.123  0.00  0.00    -0.312 N 
ATOM      8  C   UNL     1      34.851 -20.368 -20.260  0.00  0.00    +0.001 C 
ATOM      9  C   UNL     1      33.530 -21.696 -18.773  0.00  0.00    +0.048 C 
ATOM     10  C   UNL     1      34.672 -22.295 -18.235  0.00  0.00    +0.015 C 
ATOM     11  C   UNL     1      33.588 -20.731 -19.785  0.00  0.00    +0.015 C 
ATOM     12  C   UNL     1      36.007 -20.948 -19.743  0.00  0.00    +0.000 C 
ATOM     13  C   UNL     1      35.935 -21.912 -18.731  0.00  0.00    +0.001 C 
ATOM     14  C   UNL     1      34.234 -23.216 -17.244  0.00  0.00    +0.017 C 
ATOM     15  C   UNL     1      32.860 -23.159 -17.197  0.00  0.00    +0.062 C 
ATOM     16  H   UNL     1      31.505 -22.002 -18.299  0.00  0.00    +0.152 HD
ENDBRANCH   1   8
BRANCH   4  17
ATOM     17  O   UNL     1      35.264 -16.536 -24.321  0.00  0.00    -0.469 OA
BRANCH  17  18
ATOM     18  C   UNL     1      34.212 -16.501 -25.282  0.00  0.00    +0.251 C 
BRANCH  18  20
ATOM     19  N   UNL     1      34.457 -14.140 -24.806  0.00  0.00    -0.244 NA
ATOM     20  C   UNL     1      33.879 -15.071 -25.592  0.00  0.00    +0.103 C 
ATOM     21  C   UNL     1      33.022 -14.792 -26.638  0.00  0.00    +0.018 C 
ATOM     22  C   UNL     1      32.735 -13.457 -26.899  0.00  0.00    +0.003 C 
ATOM     23  C   UNL     1      34.155 -12.853 -25.089  0.00  0.00    +0.099 C 
ATOM     24  C   UNL     1      33.308 -12.462 -26.114  0.00  0.00    +0.021 C 
ENDBRANCH  18  20
ENDBRANCH  17  18
ENDBRANCH   4  17
BRANCH   2  25
ATOM     25  C   UNL     1      34.730 -15.621 -21.668  0.00  0.00    +0.117 C 
BRANCH  25  26
ATOM     26  N   UNL     1      33.426 -15.103 -22.084  0.00  0.00    -0.327 N 
ATOM     27  H   UNL     1      32.935 -15.578 -22.792  0.00  0.00    +0.147 HD
BRANCH  26  29
ATOM     28  N   UNL     1      31.711 -12.875 -19.672  0.00  0.00    -0.228 NA
ATOM     29  C   UNL     1      32.853 -13.981 -21.531  0.00  0.00    +0.077 C 
ATOM     30  C   UNL     1      32.283 -13.956 -20.249  0.00  0.00    +0.139 C 
ATOM     31  C   UNL     1      32.808 -12.768 -22.241  0.00  0.00    +0.019 C 
ATOM     32  C   UNL     1      32.229 -11.634 -21.681  0.00  0.00    +0.022 C 
ATOM     33  C   UNL     1      31.699 -11.740 -20.405  0.00  0.00    +0.100 C 
ATOM     34  N   UNL     1      32.310 -15.163 -19.505  0.00  0.00    -0.342 N 
ATOM     35  H   UNL     1      31.922 -15.192 -18.601  0.00  0.00    +0.144 HD
ATOM     36  H   UNL     1      32.718 -15.971 -19.892  0.00  0.00    +0.144 HD
ENDBRANCH  26  29
ENDBRANCH  25  26
ENDBRANCH   2  25
TORSDOF 7
ENDMDL
