MODEL 1
REMARK VINA RESULT:     -11.9      0.000      0.000
REMARK  Name = 5289109
REMARK  6 active torsions:
REMARK  status: ('A' for Active; 'I' for Inactive)
REMARK    1  A    between atoms: C_3  and  C_9
REMARK    2  A    between atoms: C_4  and  C_21
REMARK    3  A    between atoms: N_8  and  C_11
REMARK    4  A    between atoms: C_11  and  C_12
REMARK    5  A    between atoms: N_20  and  C_23
REMARK    6  A    between atoms: C_23  and  C_24
REMARK                            x       y       z     vdW  Elec       q    Type
REMARK                         _______ _______ _______ _____ _____    ______ ____
ROOT
ATOM      1  N   UNL     1      34.171 -15.317 -24.719  0.00  0.00    -0.244 NA
ATOM      2  N   UNL     1      33.040 -13.445 -23.708  0.00  0.00    -0.244 NA
ATOM      3  C   UNL     1      34.337 -15.835 -23.484  0.00  0.00    +0.115 C 
ATOM      4  C   UNL     1      33.253 -14.036 -22.531  0.00  0.00    +0.115 C 
ATOM      5  C   UNL     1      33.890 -15.225 -22.330  0.00  0.00    +0.100 C 
ATOM      6  C   UNL     1      33.522 -14.138 -24.757  0.00  0.00    +0.250 C 
ENDROOT
BRANCH   3   9
ATOM      7  O   UNL     1      35.032 -17.881 -24.396  0.00  0.00    -0.269 OA
ATOM      8  N   UNL     1      35.716 -17.402 -22.232  0.00  0.00    -0.296 N 
ATOM      9  C   UNL     1      35.035 -17.108 -23.420  0.00  0.00    +0.260 C 
ATOM     10  H   UNL     1      35.677 -16.747 -21.499  0.00  0.00    +0.150 HD
BRANCH   8  11
ATOM     11  C   UNL     1      36.474 -18.614 -22.024  0.00  0.00    +0.117 C 
BRANCH  11  12
ATOM     12  C   UNL     1      35.776 -19.560 -21.090  0.00  0.00    -0.003 C 
ATOM     13  C   UNL     1      36.514 -20.262 -20.145  0.00  0.00    -0.007 C 
ATOM     14  C   UNL     1      35.865 -21.139 -19.275  0.00  0.00    -0.022 C 
ATOM     15  C   UNL     1      34.398 -19.723 -21.179  0.00  0.00    -0.003 C 
ATOM     16  C   UNL     1      34.483 -21.309 -19.358  0.00  0.00    -0.004 C 
ATOM     17  C   UNL     1      33.750 -20.600 -20.310  0.00  0.00    -0.001 C 
ATOM     18  C   UNL     1      36.650 -21.898 -18.258  0.00  0.00    +0.031 C 
ENDBRANCH  11  12
ENDBRANCH   8  11
ENDBRANCH   3   9
BRANCH   4  21
ATOM     19  O   UNL     1      33.161 -13.546 -20.240  0.00  0.00    -0.269 OA
ATOM     20  N   UNL     1      31.781 -12.312 -21.637  0.00  0.00    -0.296 N 
ATOM     21  C   UNL     1      32.728 -13.288 -21.360  0.00  0.00    +0.260 C 
ATOM     22  H   UNL     1      31.497 -12.179 -22.570  0.00  0.00    +0.150 HD
BRANCH  20  23
ATOM     23  C   UNL     1      31.196 -11.486 -20.611  0.00  0.00    +0.117 C 
BRANCH  23  24
ATOM     24  C   UNL     1      31.554 -10.046 -20.771  0.00  0.00    -0.003 C 
ATOM     25  C   UNL     1      31.460  -9.441 -22.024  0.00  0.00    -0.007 C 
ATOM     26  C   UNL     1      31.794  -8.094 -22.175  0.00  0.00    -0.022 C 
ATOM     27  C   UNL     1      31.980  -9.306 -19.669  0.00  0.00    -0.003 C 
ATOM     28  C   UNL     1      32.220  -7.354 -21.072  0.00  0.00    -0.004 C 
ATOM     29  C   UNL     1      32.313  -7.960 -19.819  0.00  0.00    -0.001 C 
ATOM     30  C   UNL     1      31.695  -7.446 -23.514  0.00  0.00    +0.031 C 
ENDBRANCH  23  24
ENDBRANCH  20  23
ENDBRANCH   4  21
TORSDOF 6
ENDMDL
MODEL 2
REMARK VINA RESULT:     -11.9      0.109      9.956
REMARK  Name = 5289109
REMARK  6 active torsions:
REMARK  status: ('A' for Active; 'I' for Inactive)
REMARK    1  A    between atoms: C_3  and  C_9
REMARK    2  A    between atoms: C_4  and  C_21
REMARK    3  A    between atoms: N_8  and  C_11
REMARK    4  A    between atoms: C_11  and  C_12
REMARK    5  A    between atoms: N_20  and  C_23
REMARK    6  A    between atoms: C_23  and  C_24
REMARK                            x       y       z     vdW  Elec       q    Type
REMARK                         _______ _______ _______ _____ _____    ______ ____
ROOT
ATOM      1  N   UNL     1      33.035 -13.432 -23.778  0.00  0.00    -0.244 NA
ATOM      2  N   UNL     1      34.143 -15.319 -24.785  0.00  0.00    -0.244 NA
ATOM      3  C   UNL     1      33.226 -14.010 -22.573  0.00  0.00    +0.115 C 
ATOM      4  C   UNL     1      34.285 -15.811 -23.552  0.00  0.00    +0.115 C 
ATOM      5  C   UNL     1      33.857 -15.225 -22.397  0.00  0.00    +0.100 C 
ATOM      6  C   UNL     1      33.512 -14.131 -24.825  0.00  0.00    +0.250 C 
ENDROOT
BRANCH   3   9
ATOM      7  O   UNL     1      33.139 -13.512 -20.283  0.00  0.00    -0.269 OA
ATOM      8  N   UNL     1      31.766 -12.277 -21.685  0.00  0.00    -0.296 N 
ATOM      9  C   UNL     1      32.719 -13.272 -21.429  0.00  0.00    +0.260 C 
ATOM     10  H   UNL     1      31.475 -12.139 -22.615  0.00  0.00    +0.150 HD
BRANCH   8  11
ATOM     11  C   UNL     1      31.185 -11.443 -20.658  0.00  0.00    +0.117 C 
BRANCH  11  12
ATOM     12  C   UNL     1      31.571 -10.002 -20.820  0.00  0.00    -0.003 C 
ATOM     13  C   UNL     1      31.510  -9.411 -22.075  0.00  0.00    -0.007 C 
ATOM     14  C   UNL     1      31.866  -8.070 -22.225  0.00  0.00    -0.022 C 
ATOM     15  C   UNL     1      31.985  -9.272 -19.711  0.00  0.00    -0.003 C 
ATOM     16  C   UNL     1      32.283  -7.331 -21.118  0.00  0.00    -0.004 C 
ATOM     17  C   UNL     1      32.341  -7.932 -19.861  0.00  0.00    -0.001 C 
ATOM     18  C   UNL     1      31.805  -7.427 -23.570  0.00  0.00    +0.031 C 
ENDBRANCH  11  12
ENDBRANCH   8  11
ENDBRANCH   3   9
BRANCH   4  21
ATOM     19  O   UNL     1      34.988 -17.847 -24.477  0.00  0.00    -0.269 OA
ATOM     20  N   UNL     1      35.598 -17.422 -22.280  0.00  0.00    -0.296 N 
ATOM     21  C   UNL     1      34.978 -17.122 -23.485  0.00  0.00    +0.260 C 
ATOM     22  H   UNL     1      35.534 -16.775 -21.541  0.00  0.00    +0.150 HD
BRANCH  20  23
ATOM     23  C   UNL     1      36.331 -18.645 -22.068  0.00  0.00    +0.117 C 
BRANCH  23  24
ATOM     24  C   UNL     1      35.631 -19.571 -21.132  0.00  0.00    -0.003 C 
ATOM     25  C   UNL     1      36.362 -20.290 -20.187  0.00  0.00    -0.007 C 
ATOM     26  C   UNL     1      35.707 -21.157 -19.310  0.00  0.00    -0.022 C 
ATOM     27  C   UNL     1      34.246 -19.717 -21.200  0.00  0.00    -0.003 C 
ATOM     28  C   UNL     1      34.322 -21.302 -19.380  0.00  0.00    -0.004 C 
ATOM     29  C   UNL     1      33.591 -20.583 -20.324  0.00  0.00    -0.001 C 
ATOM     30  C   UNL     1      36.489 -21.927 -18.300  0.00  0.00    +0.031 C 
ENDBRANCH  23  24
ENDBRANCH  20  23
ENDBRANCH   4  21
TORSDOF 6
ENDMDL
MODEL 3
REMARK VINA RESULT:     -11.7      2.087      2.891
REMARK  Name = 5289109
REMARK  6 active torsions:
REMARK  status: ('A' for Active; 'I' for Inactive)
REMARK    1  A    between atoms: C_3  and  C_9
REMARK    2  A    between atoms: C_4  and  C_21
REMARK    3  A    between atoms: N_8  and  C_11
REMARK    4  A    between atoms: C_11  and  C_12
REMARK    5  A    between atoms: N_20  and  C_23
REMARK    6  A    between atoms: C_23  and  C_24
REMARK                            x       y       z     vdW  Elec       q    Type
REMARK                         _______ _______ _______ _____ _____    ______ ____
ROOT
ATOM      1  N   UNL     1      34.584 -16.232 -20.648  0.00  0.00    -0.244 NA
ATOM      2  N   UNL     1      33.873 -14.083 -21.472  0.00  0.00    -0.244 NA
ATOM      3  C   UNL     1      34.887 -16.577 -21.917  0.00  0.00    +0.115 C 
ATOM      4  C   UNL     1      34.202 -14.515 -22.691  0.00  0.00    +0.115 C 
ATOM      5  C   UNL     1      34.712 -15.741 -23.001  0.00  0.00    +0.100 C 
ATOM      6  C   UNL     1      34.089 -14.989 -20.500  0.00  0.00    +0.250 C 
ENDROOT
BRANCH   3   9
ATOM      7  O   UNL     1      35.756 -18.315 -23.229  0.00  0.00    -0.269 OA
ATOM      8  N   UNL     1      35.562 -18.706 -20.951  0.00  0.00    -0.296 N 
ATOM      9  C   UNL     1      35.423 -17.915 -22.099  0.00  0.00    +0.260 C 
ATOM     10  H   UNL     1      35.278 -18.329 -20.088  0.00  0.00    +0.150 HD
BRANCH   8  11
ATOM     11  C   UNL     1      36.101 -20.047 -20.965  0.00  0.00    +0.117 C 
BRANCH  11  12
ATOM     12  C   UNL     1      35.575 -20.876 -19.829  0.00  0.00    -0.003 C 
ATOM     13  C   UNL     1      36.431 -21.260 -18.805  0.00  0.00    -0.007 C 
ATOM     14  C   UNL     1      35.942 -22.028 -17.748  0.00  0.00    -0.022 C 
ATOM     15  C   UNL     1      34.236 -21.250 -19.813  0.00  0.00    -0.003 C 
ATOM     16  C   UNL     1      34.600 -22.408 -17.724  0.00  0.00    -0.004 C 
ATOM     17  C   UNL     1      33.747 -22.018 -18.757  0.00  0.00    -0.001 C 
ATOM     18  C   UNL     1      36.855 -22.446 -16.644  0.00  0.00    +0.031 C 
ENDBRANCH  11  12
ENDBRANCH   8  11
ENDBRANCH   3   9
BRANCH   4  21
ATOM     19  O   UNL     1      33.363 -13.881 -24.787  0.00  0.00    -0.269 OA
ATOM     20  N   UNL     1      34.452 -12.248 -23.551  0.00  0.00    -0.296 N 
ATOM     21  C   UNL     1      33.970 -13.530 -23.778  0.00  0.00    +0.260 C 
ATOM     22  H   UNL     1      34.927 -12.064 -22.709  0.00  0.00    +0.150 HD
BRANCH  20  23
ATOM     23  C   UNL     1      34.283 -11.177 -24.500  0.00  0.00    +0.117 C 
BRANCH  23  24
ATOM     24  C   UNL     1      34.257  -9.838 -23.844  0.00  0.00    -0.003 C 
ATOM     25  C   UNL     1      33.184  -9.484 -23.026  0.00  0.00    -0.007 C 
ATOM     26  C   UNL     1      33.158  -8.231 -22.411  0.00  0.00    -0.022 C 
ATOM     27  C   UNL     1      35.304  -8.939 -24.047  0.00  0.00    -0.003 C 
ATOM     28  C   UNL     1      34.206  -7.334 -22.615  0.00  0.00    -0.004 C 
ATOM     29  C   UNL     1      35.279  -7.688 -23.432  0.00  0.00    -0.001 C 
ATOM     30  C   UNL     1      32.011  -7.852 -21.537  0.00  0.00    +0.031 C 
ENDBRANCH  23  24
ENDBRANCH  20  23
ENDBRANCH   4  21
TORSDOF 6
ENDMDL
MODEL 4
REMARK VINA RESULT:     -11.7      2.080     10.364
REMARK  Name = 5289109
REMARK  6 active torsions:
REMARK  status: ('A' for Active; 'I' for Inactive)
REMARK    1  A    between atoms: C_3  and  C_9
REMARK    2  A    between atoms: C_4  and  C_21
REMARK    3  A    between atoms: N_8  and  C_11
REMARK    4  A    between atoms: C_11  and  C_12
REMARK    5  A    between atoms: N_20  and  C_23
REMARK    6  A    between atoms: C_23  and  C_24
REMARK                            x       y       z     vdW  Elec       q    Type
REMARK                         _______ _______ _______ _____ _____    ______ ____
ROOT
ATOM      1  N   UNL     1      33.957 -14.096 -21.473  0.00  0.00    -0.244 NA
ATOM      2  N   UNL     1      34.630 -16.262 -20.660  0.00  0.00    -0.244 NA
ATOM      3  C   UNL     1      34.244 -14.517 -22.723  0.00  0.00    +0.115 C 
ATOM      4  C   UNL     1      34.885 -16.586 -21.929  0.00  0.00    +0.115 C 
ATOM      5  C   UNL     1      34.722 -15.779 -23.016  0.00  0.00    +0.100 C 
ATOM      6  C   UNL     1      34.169 -15.006 -20.504  0.00  0.00    +0.250 C 
ENDROOT
BRANCH   3   9
ATOM      7  O   UNL     1      33.472 -13.892 -24.847  0.00  0.00    -0.269 OA
ATOM      8  N   UNL     1      34.430 -12.233 -23.540  0.00  0.00    -0.296 N 
ATOM      9  C   UNL     1      34.021 -13.550 -23.784  0.00  0.00    +0.260 C 
ATOM     10  H   UNL     1      34.859 -12.030 -22.678  0.00  0.00    +0.150 HD
BRANCH   8  11
ATOM     11  C   UNL     1      34.256 -11.154 -24.486  0.00  0.00    +0.117 C 
BRANCH  11  12
ATOM     12  C   UNL     1      34.247  -9.812 -23.812  0.00  0.00    -0.003 C 
ATOM     13  C   UNL     1      33.199  -9.476 -22.965  0.00  0.00    -0.007 C 
ATOM     14  C   UNL     1      33.191  -8.230 -22.337  0.00  0.00    -0.022 C 
ATOM     15  C   UNL     1      35.288  -8.920 -24.043  0.00  0.00    -0.003 C 
ATOM     16  C   UNL     1      34.232  -7.329 -22.563  0.00  0.00    -0.004 C 
ATOM     17  C   UNL     1      35.281  -7.674 -23.415  0.00  0.00    -0.001 C 
ATOM     18  C   UNL     1      32.069  -7.860 -21.427  0.00  0.00    +0.031 C 
ENDBRANCH  11  12
ENDBRANCH   8  11
ENDBRANCH   3   9
BRANCH   4  21
ATOM     19  O   UNL     1      35.702 -18.342 -23.252  0.00  0.00    -0.269 OA
ATOM     20  N   UNL     1      35.511 -18.740 -20.975  0.00  0.00    -0.296 N 
ATOM     21  C   UNL     1      35.395 -17.967 -22.123  0.00  0.00    +0.260 C 
ATOM     22  H   UNL     1      35.239 -18.350 -20.113  0.00  0.00    +0.150 HD
BRANCH  20  23
ATOM     23  C   UNL     1      36.013 -20.090 -20.996  0.00  0.00    +0.117 C 
BRANCH  23  24
ATOM     24  C   UNL     1      35.525 -20.895 -19.839  0.00  0.00    -0.003 C 
ATOM     25  C   UNL     1      36.410 -21.267 -18.827  0.00  0.00    -0.007 C 
ATOM     26  C   UNL     1      35.954 -22.019 -17.743  0.00  0.00    -0.022 C 
ATOM     27  C   UNL     1      34.185 -21.274 -19.767  0.00  0.00    -0.003 C 
ATOM     28  C   UNL     1      34.614 -22.397 -17.673  0.00  0.00    -0.004 C 
ATOM     29  C   UNL     1      33.729 -22.025 -18.684  0.00  0.00    -0.001 C 
ATOM     30  C   UNL     1      36.900 -22.418 -16.661  0.00  0.00    +0.031 C 
ENDBRANCH  23  24
ENDBRANCH  20  23
ENDBRANCH   4  21
TORSDOF 6
ENDMDL
MODEL 5
REMARK VINA RESULT:     -11.5      1.398     10.180
REMARK  Name = 5289109
REMARK  6 active torsions:
REMARK  status: ('A' for Active; 'I' for Inactive)
REMARK    1  A    between atoms: C_3  and  C_9
REMARK    2  A    between atoms: C_4  and  C_21
REMARK    3  A    between atoms: N_8  and  C_11
REMARK    4  A    between atoms: C_11  and  C_12
REMARK    5  A    between atoms: N_20  and  C_23
REMARK    6  A    between atoms: C_23  and  C_24
REMARK                            x       y       z     vdW  Elec       q    Type
REMARK                         _______ _______ _______ _____ _____    ______ ____
ROOT
ATOM      1  N   UNL     1      33.032 -13.598 -23.612  0.00  0.00    -0.244 NA
ATOM      2  N   UNL     1      34.311 -15.638 -23.709  0.00  0.00    -0.244 NA
ATOM      3  C   UNL     1      33.108 -13.659 -22.266  0.00  0.00    +0.115 C 
ATOM      4  C   UNL     1      34.332 -15.612 -22.375  0.00  0.00    +0.115 C 
ATOM      5  C   UNL     1      33.758 -14.665 -21.579  0.00  0.00    +0.100 C 
ATOM      6  C   UNL     1      33.647 -14.605 -24.261  0.00  0.00    +0.250 C 
ENDROOT
BRANCH   3   9
ATOM      7  O   UNL     1      32.049 -12.753 -20.380  0.00  0.00    -0.269 OA
ATOM      8  N   UNL     1      32.320 -11.357 -22.213  0.00  0.00    -0.296 N 
ATOM      9  C   UNL     1      32.451 -12.582 -21.545  0.00  0.00    +0.260 C 
ATOM     10  H   UNL     1      32.660 -11.290 -23.134  0.00  0.00    +0.150 HD
BRANCH   8  11
ATOM     11  C   UNL     1      31.713 -10.186 -21.622  0.00  0.00    +0.117 C 
BRANCH  11  12
ATOM     12  C   UNL     1      32.134  -8.924 -22.317  0.00  0.00    -0.003 C 
ATOM     13  C   UNL     1      33.484  -8.675 -22.530  0.00  0.00    -0.007 C 
ATOM     14  C   UNL     1      33.876  -7.503 -23.177  0.00  0.00    -0.022 C 
ATOM     15  C   UNL     1      31.170  -8.017 -22.740  0.00  0.00    -0.003 C 
ATOM     16  C   UNL     1      32.915  -6.587 -23.605  0.00  0.00    -0.004 C 
ATOM     17  C   UNL     1      31.561  -6.845 -23.387  0.00  0.00    -0.001 C 
ATOM     18  C   UNL     1      35.324  -7.227 -23.409  0.00  0.00    +0.031 C 
ENDBRANCH  11  12
ENDBRANCH   8  11
ENDBRANCH   3   9
BRANCH   4  21
ATOM     19  O   UNL     1      35.264 -16.727 -20.535  0.00  0.00    -0.269 OA
ATOM     20  N   UNL     1      35.438 -17.771 -22.598  0.00  0.00    -0.296 N 
ATOM     21  C   UNL     1      35.059 -16.744 -21.746  0.00  0.00    +0.260 C 
ATOM     22  H   UNL     1      35.228 -17.693 -23.557  0.00  0.00    +0.150 HD
BRANCH  20  23
ATOM     23  C   UNL     1      36.129 -18.949 -22.135  0.00  0.00    +0.117 C 
BRANCH  23  24
ATOM     24  C   UNL     1      35.301 -19.756 -21.192  0.00  0.00    -0.003 C 
ATOM     25  C   UNL     1      35.918 -20.502 -20.188  0.00  0.00    -0.007 C 
ATOM     26  C   UNL     1      35.144 -21.257 -19.305  0.00  0.00    -0.022 C 
ATOM     27  C   UNL     1      33.912 -19.765 -21.314  0.00  0.00    -0.003 C 
ATOM     28  C   UNL     1      33.755 -21.265 -19.428  0.00  0.00    -0.004 C 
ATOM     29  C   UNL     1      33.139 -20.519 -20.432  0.00  0.00    -0.001 C 
ATOM     30  C   UNL     1      35.803 -22.055 -18.231  0.00  0.00    +0.031 C 
ENDBRANCH  23  24
ENDBRANCH  20  23
ENDBRANCH   4  21
TORSDOF 6
ENDMDL
MODEL 6
REMARK VINA RESULT:     -11.4      3.215     10.195
REMARK  Name = 5289109
REMARK  6 active torsions:
REMARK  status: ('A' for Active; 'I' for Inactive)
REMARK    1  A    between atoms: C_3  and  C_9
REMARK    2  A    between atoms: C_4  and  C_21
REMARK    3  A    between atoms: N_8  and  C_11
REMARK    4  A    between atoms: C_11  and  C_12
REMARK    5  A    between atoms: N_20  and  C_23
REMARK    6  A    between atoms: C_23  and  C_24
REMARK                            x       y       z     vdW  Elec       q    Type
REMARK                         _______ _______ _______ _____ _____    ______ ____
ROOT
ATOM      1  N   UNL     1      36.810 -18.983 -21.190  0.00  0.00    -0.244 NA
ATOM      2  N   UNL     1      36.202 -20.665 -19.575  0.00  0.00    -0.244 NA
ATOM      3  C   UNL     1      35.536 -19.003 -21.634  0.00  0.00    +0.115 C 
ATOM      4  C   UNL     1      34.969 -20.613 -20.083  0.00  0.00    +0.115 C 
ATOM      5  C   UNL     1      34.552 -19.815 -21.108  0.00  0.00    +0.100 C 
ATOM      6  C   UNL     1      37.069 -19.826 -20.172  0.00  0.00    +0.250 C 
ENDROOT
BRANCH   3   9
ATOM      7  O   UNL     1      34.706 -18.525 -23.775  0.00  0.00    -0.269 OA
ATOM      8  N   UNL     1      35.545 -16.746 -22.546  0.00  0.00    -0.296 N 
ATOM      9  C   UNL     1      35.235 -18.100 -22.732  0.00  0.00    +0.260 C 
ATOM     10  H   UNL     1      35.963 -16.477 -21.696  0.00  0.00    +0.150 HD
BRANCH   8  11
ATOM     11  C   UNL     1      35.285 -15.723 -23.533  0.00  0.00    +0.117 C 
BRANCH  11  12
ATOM     12  C   UNL     1      34.379 -14.649 -23.004  0.00  0.00    -0.003 C 
ATOM     13  C   UNL     1      33.707 -14.846 -21.804  0.00  0.00    -0.007 C 
ATOM     14  C   UNL     1      32.868 -13.847 -21.311  0.00  0.00    -0.022 C 
ATOM     15  C   UNL     1      34.222 -13.467 -23.719  0.00  0.00    -0.003 C 
ATOM     16  C   UNL     1      32.704 -12.659 -22.023  0.00  0.00    -0.004 C 
ATOM     17  C   UNL     1      33.383 -12.469 -23.227  0.00  0.00    -0.001 C 
ATOM     18  C   UNL     1      32.141 -14.051 -20.024  0.00  0.00    +0.031 C 
ENDBRANCH  11  12
ENDBRANCH   8  11
ENDBRANCH   3   9
BRANCH   4  21
ATOM     19  O   UNL     1      32.814 -21.201 -19.368  0.00  0.00    -0.269 OA
ATOM     20  N   UNL     1      34.509 -22.734 -18.975  0.00  0.00    -0.296 N 
ATOM     21  C   UNL     1      33.996 -21.531 -19.438  0.00  0.00    +0.260 C 
ATOM     22  H   UNL     1      35.473 -22.908 -19.078  0.00  0.00    +0.150 HD
BRANCH  20  23
ATOM     23  C   UNL     1      33.687 -23.739 -18.349  0.00  0.00    +0.117 C 
BRANCH  23  24
ATOM     24  C   UNL     1      33.456 -23.461 -16.902  0.00  0.00    -0.003 C 
ATOM     25  C   UNL     1      32.157 -23.289 -16.425  0.00  0.00    -0.007 C 
ATOM     26  C   UNL     1      31.939 -23.029 -15.071  0.00  0.00    -0.022 C 
ATOM     27  C   UNL     1      34.538 -23.373 -16.026  0.00  0.00    -0.003 C 
ATOM     28  C   UNL     1      33.022 -22.942 -14.196  0.00  0.00    -0.004 C 
ATOM     29  C   UNL     1      34.321 -23.113 -14.673  0.00  0.00    -0.001 C 
ATOM     30  C   UNL     1      30.550 -22.845 -14.560  0.00  0.00    +0.031 C 
ENDBRANCH  23  24
ENDBRANCH  20  23
ENDBRANCH   4  21
TORSDOF 6
ENDMDL
MODEL 7
REMARK VINA RESULT:     -11.3      7.634     11.653
REMARK  Name = 5289109
REMARK  6 active torsions:
REMARK  status: ('A' for Active; 'I' for Inactive)
REMARK    1  A    between atoms: C_3  and  C_9
REMARK    2  A    between atoms: C_4  and  C_21
REMARK    3  A    between atoms: N_8  and  C_11
REMARK    4  A    between atoms: C_11  and  C_12
REMARK    5  A    between atoms: N_20  and  C_23
REMARK    6  A    between atoms: C_23  and  C_24
REMARK                            x       y       z     vdW  Elec       q    Type
REMARK                         _______ _______ _______ _____ _____    ______ ____
ROOT
ATOM      1  N   UNL     1      36.507 -24.578 -13.201  0.00  0.00    -0.244 NA
ATOM      2  N   UNL     1      37.971 -23.652 -14.876  0.00  0.00    -0.244 NA
ATOM      3  C   UNL     1      35.520 -23.793 -13.683  0.00  0.00    +0.115 C 
ATOM      4  C   UNL     1      36.934 -22.916 -15.281  0.00  0.00    +0.115 C 
ATOM      5  C   UNL     1      35.681 -22.924 -14.744  0.00  0.00    +0.100 C 
ATOM      6  C   UNL     1      37.688 -24.458 -13.836  0.00  0.00    +0.250 C 
ENDROOT
BRANCH   3   9
ATOM      7  O   UNL     1      34.111 -24.621 -12.002  0.00  0.00    -0.269 OA
ATOM      8  N   UNL     1      33.174 -23.162 -13.542  0.00  0.00    -0.296 N 
ATOM      9  C   UNL     1      34.236 -23.906 -13.012  0.00  0.00    +0.260 C 
ATOM     10  H   UNL     1      33.342 -22.617 -14.344  0.00  0.00    +0.150 HD
BRANCH   8  11
ATOM     11  C   UNL     1      31.845 -23.150 -12.975  0.00  0.00    +0.117 C 
BRANCH  11  12
ATOM     12  C   UNL     1      30.830 -23.742 -13.909  0.00  0.00    -0.003 C 
ATOM     13  C   UNL     1      29.968 -22.905 -14.606  0.00  0.00    -0.007 C 
ATOM     14  C   UNL     1      29.026 -23.455 -15.476  0.00  0.00    -0.022 C 
ATOM     15  C   UNL     1      30.764 -25.122 -14.068  0.00  0.00    -0.003 C 
ATOM     16  C   UNL     1      28.952 -24.838 -15.641  0.00  0.00    -0.004 C 
ATOM     17  C   UNL     1      29.822 -25.671 -14.937  0.00  0.00    -0.001 C 
ATOM     18  C   UNL     1      28.095 -22.564 -16.228  0.00  0.00    +0.031 C 
ENDBRANCH  11  12
ENDBRANCH   8  11
ENDBRANCH   3   9
BRANCH   4  21
ATOM     19  O   UNL     1      37.852 -20.980 -16.235  0.00  0.00    -0.269 OA
ATOM     20  N   UNL     1      36.771 -22.449 -17.668  0.00  0.00    -0.296 N 
ATOM     21  C   UNL     1      37.224 -22.019 -16.428  0.00  0.00    +0.260 C 
ATOM     22  H   UNL     1      36.275 -23.298 -17.721  0.00  0.00    +0.150 HD
BRANCH  20  23
ATOM     23  C   UNL     1      36.997 -21.701 -18.879  0.00  0.00    +0.117 C 
BRANCH  23  24
ATOM     24  C   UNL     1      35.727 -21.201 -19.481  0.00  0.00    -0.003 C 
ATOM     25  C   UNL     1      35.768 -20.303 -20.547  0.00  0.00    -0.007 C 
ATOM     26  C   UNL     1      34.580 -19.835 -21.112  0.00  0.00    -0.022 C 
ATOM     27  C   UNL     1      34.499 -21.630 -18.978  0.00  0.00    -0.003 C 
ATOM     28  C   UNL     1      33.353 -20.265 -20.608  0.00  0.00    -0.004 C 
ATOM     29  C   UNL     1      33.312 -21.163 -19.541  0.00  0.00    -0.001 C 
ATOM     30  C   UNL     1      34.624 -18.875 -22.252  0.00  0.00    +0.031 C 
ENDBRANCH  23  24
ENDBRANCH  20  23
ENDBRANCH   4  21
TORSDOF 6
ENDMDL
MODEL 8
REMARK VINA RESULT:     -11.3      7.601     12.207
REMARK  Name = 5289109
REMARK  6 active torsions:
REMARK  status: ('A' for Active; 'I' for Inactive)
REMARK    1  A    between atoms: C_3  and  C_9
REMARK    2  A    between atoms: C_4  and  C_21
REMARK    3  A    between atoms: N_8  and  C_11
REMARK    4  A    between atoms: C_11  and  C_12
REMARK    5  A    between atoms: N_20  and  C_23
REMARK    6  A    between atoms: C_23  and  C_24
REMARK                            x       y       z     vdW  Elec       q    Type
REMARK                         _______ _______ _______ _____ _____    ______ ____
ROOT
ATOM      1  N   UNL     1      37.990 -23.664 -14.907  0.00  0.00    -0.244 NA
ATOM      2  N   UNL     1      36.550 -24.606 -13.221  0.00  0.00    -0.244 NA
ATOM      3  C   UNL     1      36.955 -22.898 -15.310  0.00  0.00    +0.115 C 
ATOM      4  C   UNL     1      35.588 -23.809 -13.690  0.00  0.00    +0.115 C 
ATOM      5  C   UNL     1      35.704 -22.930 -14.726  0.00  0.00    +0.100 C 
ATOM      6  C   UNL     1      37.721 -24.482 -13.872  0.00  0.00    +0.250 C 
ENDROOT
BRANCH   3   9
ATOM      7  O   UNL     1      37.819 -20.929 -16.247  0.00  0.00    -0.269 OA
ATOM      8  N   UNL     1      36.803 -22.430 -17.693  0.00  0.00    -0.296 N 
ATOM      9  C   UNL     1      37.223 -22.007 -16.426  0.00  0.00    +0.260 C 
ATOM     10  H   UNL     1      36.336 -23.294 -17.765  0.00  0.00    +0.150 HD
BRANCH   8  11
ATOM     11  C   UNL     1      37.017 -21.669 -18.903  0.00  0.00    +0.117 C 
BRANCH  11  12
ATOM     12  C   UNL     1      35.727 -21.180 -19.495  0.00  0.00    -0.003 C 
ATOM     13  C   UNL     1      35.754 -20.267 -20.542  0.00  0.00    -0.007 C 
ATOM     14  C   UNL     1      34.556 -19.815 -21.095  0.00  0.00    -0.022 C 
ATOM     15  C   UNL     1      34.518 -21.646 -18.990  0.00  0.00    -0.003 C 
ATOM     16  C   UNL     1      33.338 -20.277 -20.594  0.00  0.00    -0.004 C 
ATOM     17  C   UNL     1      33.320 -21.193 -19.542  0.00  0.00    -0.001 C 
ATOM     18  C   UNL     1      34.575 -18.834 -22.219  0.00  0.00    +0.031 C 
ENDBRANCH  11  12
ENDBRANCH   8  11
ENDBRANCH   3   9
BRANCH   4  21
ATOM     19  O   UNL     1      34.211 -24.633 -11.980  0.00  0.00    -0.269 OA
ATOM     20  N   UNL     1      33.235 -23.198 -13.519  0.00  0.00    -0.296 N 
ATOM     21  C   UNL     1      34.287 -23.929 -12.985  0.00  0.00    +0.260 C 
ATOM     22  H   UNL     1      33.395 -22.662 -14.329  0.00  0.00    +0.150 HD
BRANCH  20  23
ATOM     23  C   UNL     1      31.918 -23.192 -12.933  0.00  0.00    +0.117 C 
BRANCH  23  24
ATOM     24  C   UNL     1      30.890 -23.769 -13.846  0.00  0.00    -0.003 C 
ATOM     25  C   UNL     1      30.091 -22.925 -14.618  0.00  0.00    -0.007 C 
ATOM     26  C   UNL     1      29.128 -23.465 -15.473  0.00  0.00    -0.022 C 
ATOM     27  C   UNL     1      30.727 -25.151 -13.930  0.00  0.00    -0.003 C 
ATOM     28  C   UNL     1      28.967 -24.847 -15.555  0.00  0.00    -0.004 C 
ATOM     29  C   UNL     1      29.765 -25.691 -14.784  0.00  0.00    -0.001 C 
ATOM     30  C   UNL     1      28.273 -22.563 -16.297  0.00  0.00    +0.031 C 
ENDBRANCH  23  24
ENDBRANCH  20  23
ENDBRANCH   4  21
TORSDOF 6
ENDMDL
MODEL 9
REMARK VINA RESULT:     -11.3      0.669      9.762
REMARK  Name = 5289109
REMARK  6 active torsions:
REMARK  status: ('A' for Active; 'I' for Inactive)
REMARK    1  A    between atoms: C_3  and  C_9
REMARK    2  A    between atoms: C_4  and  C_21
REMARK    3  A    between atoms: N_8  and  C_11
REMARK    4  A    between atoms: C_11  and  C_12
REMARK    5  A    between atoms: N_20  and  C_23
REMARK    6  A    between atoms: C_23  and  C_24
REMARK                            x       y       z     vdW  Elec       q    Type
REMARK                         _______ _______ _______ _____ _____    ______ ____
ROOT
ATOM      1  N   UNL     1      33.050 -13.813 -24.057  0.00  0.00    -0.244 NA
ATOM      2  N   UNL     1      34.173 -15.779 -24.880  0.00  0.00    -0.244 NA
ATOM      3  C   UNL     1      33.374 -14.197 -22.805  0.00  0.00    +0.115 C 
ATOM      4  C   UNL     1      34.445 -16.076 -23.607  0.00  0.00    +0.115 C 
ATOM      5  C   UNL     1      34.084 -15.344 -22.514  0.00  0.00    +0.100 C 
ATOM      6  C   UNL     1      33.476 -14.638 -25.032  0.00  0.00    +0.250 C 
ENDROOT
BRANCH   3   9
ATOM      7  O   UNL     1      33.377 -13.442 -20.585  0.00  0.00    -0.269 OA
ATOM      8  N   UNL     1      31.988 -12.334 -22.076  0.00  0.00    -0.296 N 
ATOM      9  C   UNL     1      32.924 -13.320 -21.737  0.00  0.00    +0.260 C 
ATOM     10  H   UNL     1      31.670 -12.293 -23.006  0.00  0.00    +0.150 HD
BRANCH   8  11
ATOM     11  C   UNL     1      31.463 -11.373 -21.132  0.00  0.00    +0.117 C 
BRANCH  11  12
ATOM     12  C   UNL     1      31.956  -9.983 -21.414  0.00  0.00    -0.003 C 
ATOM     13  C   UNL     1      32.043  -9.062 -20.378  0.00  0.00    -0.007 C 
ATOM     14  C   UNL     1      32.503  -7.771 -20.639  0.00  0.00    -0.022 C 
ATOM     15  C   UNL     1      32.320  -9.632 -22.709  0.00  0.00    -0.003 C 
ATOM     16  C   UNL     1      32.870  -7.410 -21.935  0.00  0.00    -0.004 C 
ATOM     17  C   UNL     1      32.779  -8.341 -22.970  0.00  0.00    -0.001 C 
ATOM     18  C   UNL     1      32.599  -6.775 -19.533  0.00  0.00    +0.031 C 
ENDBRANCH  11  12
ENDBRANCH   8  11
ENDBRANCH   3   9
BRANCH   4  21
ATOM     19  O   UNL     1      35.131 -18.221 -24.261  0.00  0.00    -0.269 OA
ATOM     20  N   UNL     1      36.005 -17.395 -22.278  0.00  0.00    -0.296 N 
ATOM     21  C   UNL     1      35.213 -17.332 -23.416  0.00  0.00    +0.260 C 
ATOM     22  H   UNL     1      36.005 -16.629 -21.659  0.00  0.00    +0.150 HD
BRANCH  20  23
ATOM     23  C   UNL     1      36.828 -18.536 -21.967  0.00  0.00    +0.117 C 
BRANCH  23  24
ATOM     24  C   UNL     1      36.138 -19.503 -21.064  0.00  0.00    -0.003 C 
ATOM     25  C   UNL     1      34.744 -19.543 -21.021  0.00  0.00    -0.007 C 
ATOM     26  C   UNL     1      34.098 -20.448 -20.177  0.00  0.00    -0.022 C 
ATOM     27  C   UNL     1      36.885 -20.366 -20.263  0.00  0.00    -0.003 C 
ATOM     28  C   UNL     1      34.846 -21.310 -19.377  0.00  0.00    -0.004 C 
ATOM     29  C   UNL     1      36.240 -21.270 -19.420  0.00  0.00    -0.001 C 
ATOM     30  C   UNL     1      32.608 -20.491 -20.131  0.00  0.00    +0.031 C 
ENDBRANCH  23  24
ENDBRANCH  20  23
ENDBRANCH   4  21
TORSDOF 6
ENDMDL
