MODEL 1
REMARK VINA RESULT:     -10.8      0.000      0.000
REMARK  Name = 445841
REMARK  2 active torsions:
REMARK  status: ('A' for Active; 'I' for Inactive)
REMARK    1  A    between atoms: N_2  and  C_22
REMARK    2  A    between atoms: C_6  and  C_27
REMARK                            x       y       z     vdW  Elec       q    Type
REMARK                         _______ _______ _______ _____ _____    ______ ____
ROOT
ATOM      1  O   UNL     1      32.311 -10.238 -20.458  0.00  0.00    -0.252 OA
ATOM      2  N   UNL     1      32.255 -11.707 -22.280  0.00  0.00    -0.268 N 
ATOM      3  N   UNL     1      31.302  -6.278 -21.417  0.00  0.00    -0.241 N 
ATOM      4  N   UNL     1      31.729  -9.480 -22.593  0.00  0.00    -0.252 N 
ATOM      5  N   UNL     1      31.615  -7.562 -21.174  0.00  0.00    -0.166 NA
ATOM      6  C   UNL     1      30.988  -6.024 -22.719  0.00  0.00    +0.026 C 
ATOM      7  C   UNL     1      31.105  -7.226 -23.375  0.00  0.00    +0.046 C 
ATOM      8  C   UNL     1      31.490  -8.118 -22.371  0.00  0.00    +0.154 C 
ATOM      9  C   UNL     1      32.117 -10.445 -21.651  0.00  0.00    +0.309 C 
ATOM     10  H   UNL     1      32.066 -11.724 -23.247  0.00  0.00    +0.156 HD
ATOM     11  H   UNL     1      31.298  -5.584 -20.718  0.00  0.00    +0.174 HD
ATOM     12  H   UNL     1      31.610  -9.797 -23.518  0.00  0.00    +0.158 HD
ENDROOT
BRANCH   2  22
ATOM     13  O   UNL     1      34.740 -17.060 -22.665  0.00  0.00    -0.270 OA
ATOM     14  N   UNL     1      34.459 -15.121 -23.976  0.00  0.00    -0.274 N 
ATOM     15  C   UNL     1      33.871 -13.802 -23.815  0.00  0.00    +0.100 C 
ATOM     16  C   UNL     1      32.918 -13.734 -25.000  0.00  0.00    +0.026 C 
ATOM     17  C   UNL     1      33.721 -14.457 -26.093  0.00  0.00    +0.024 C 
ATOM     18  C   UNL     1      34.445 -15.583 -25.349  0.00  0.00    +0.094 C 
ATOM     19  C   UNL     1      33.339 -13.868 -22.429  0.00  0.00    +0.014 C 
ATOM     20  C   UNL     1      33.711 -15.079 -21.830  0.00  0.00    +0.052 C 
ATOM     21  C   UNL     1      34.401 -15.903 -22.835  0.00  0.00    +0.249 C 
ATOM     22  C   UNL     1      32.621 -12.927 -21.715  0.00  0.00    +0.049 C 
ATOM     23  C   UNL     1      33.378 -15.398 -20.529  0.00  0.00    +0.004 C 
ATOM     24  C   UNL     1      32.277 -13.227 -20.393  0.00  0.00    +0.014 C 
ATOM     25  C   UNL     1      32.653 -14.451 -19.805  0.00  0.00    +0.001 C 
ENDBRANCH   2  22
BRANCH   6  27
ATOM     26  N   UNL     1      30.304  -3.737 -22.083  0.00  0.00    +0.388 N 
ATOM     27  C   UNL     1      30.604  -4.644 -23.202  0.00  0.00    -0.023 C 
ATOM     28  C   UNL     1      31.714  -3.952 -24.004  0.00  0.00    -0.018 C 
ATOM     29  C   UNL     1      31.946  -2.628 -23.291  0.00  0.00    -0.025 C 
ATOM     30  C   UNL     1      30.653  -2.395 -22.538  0.00  0.00    -0.081 C 
ATOM     31  H   UNL     1      30.861  -3.987 -21.265  0.00  0.00    -0.084 HD
ATOM     32  H   UNL     1      29.322  -3.793 -21.811  0.00  0.00    -0.084 HD
ENDBRANCH   6  27
TORSDOF 2
ENDMDL
MODEL 2
REMARK VINA RESULT:     -10.7      6.812     13.404
REMARK  Name = 445841
REMARK  2 active torsions:
REMARK  status: ('A' for Active; 'I' for Inactive)
REMARK    1  A    between atoms: N_2  and  C_22
REMARK    2  A    between atoms: C_6  and  C_27
REMARK                            x       y       z     vdW  Elec       q    Type
REMARK                         _______ _______ _______ _____ _____    ______ ____
ROOT
ATOM      1  O   UNL     1      34.039 -20.852 -20.737  0.00  0.00    -0.252 OA
ATOM      2  N   UNL     1      35.799 -19.426 -21.329  0.00  0.00    -0.268 N 
ATOM      3  N   UNL     1      34.677 -22.977 -17.174  0.00  0.00    -0.241 N 
ATOM      4  N   UNL     1      35.950 -20.685 -19.398  0.00  0.00    -0.252 N 
ATOM      5  N   UNL     1      34.532 -22.268 -18.307  0.00  0.00    -0.166 NA
ATOM      6  C   UNL     1      35.855 -22.748 -16.526  0.00  0.00    +0.026 C 
ATOM      7  C   UNL     1      36.528 -21.824 -17.288  0.00  0.00    +0.046 C 
ATOM      8  C   UNL     1      35.663 -21.577 -18.358  0.00  0.00    +0.154 C 
ATOM      9  C   UNL     1      35.145 -20.376 -20.505  0.00  0.00    +0.309 C 
ATOM     10  H   UNL     1      36.686 -19.132 -21.017  0.00  0.00    +0.156 HD
ATOM     11  H   UNL     1      33.995 -23.605 -16.842  0.00  0.00    +0.174 HD
ATOM     12  H   UNL     1      36.816 -20.221 -19.346  0.00  0.00    +0.158 HD
ENDROOT
BRANCH   2  22
ATOM     13  O   UNL     1      33.968 -14.757 -24.464  0.00  0.00    -0.270 OA
ATOM     14  N   UNL     1      34.814 -15.250 -22.320  0.00  0.00    -0.274 N 
ATOM     15  C   UNL     1      35.296 -16.422 -21.607  0.00  0.00    +0.100 C 
ATOM     16  C   UNL     1      34.435 -16.404 -20.353  0.00  0.00    +0.026 C 
ATOM     17  C   UNL     1      34.336 -14.899 -20.058  0.00  0.00    +0.024 C 
ATOM     18  C   UNL     1      34.246 -14.247 -21.442  0.00  0.00    +0.094 C 
ATOM     19  C   UNL     1      35.119 -17.494 -22.621  0.00  0.00    +0.014 C 
ATOM     20  C   UNL     1      34.693 -16.939 -23.835  0.00  0.00    +0.052 C 
ATOM     21  C   UNL     1      34.461 -15.500 -23.635  0.00  0.00    +0.249 C 
ATOM     22  C   UNL     1      35.356 -18.851 -22.518  0.00  0.00    +0.049 C 
ATOM     23  C   UNL     1      34.477 -17.702 -24.966  0.00  0.00    +0.004 C 
ATOM     24  C   UNL     1      35.148 -19.643 -23.653  0.00  0.00    +0.014 C 
ATOM     25  C   UNL     1      34.714 -19.073 -24.866  0.00  0.00    +0.001 C 
ENDBRANCH   2  22
BRANCH   6  27
ATOM     26  N   UNL     1      36.031 -24.900 -15.327  0.00  0.00    +0.388 N 
ATOM     27  C   UNL     1      36.212 -23.443 -15.233  0.00  0.00    -0.023 C 
ATOM     28  C   UNL     1      37.675 -23.237 -14.818  0.00  0.00    -0.018 C 
ATOM     29  C   UNL     1      38.236 -24.641 -14.651  0.00  0.00    -0.025 C 
ATOM     30  C   UNL     1      37.006 -25.493 -14.418  0.00  0.00    -0.081 C 
ATOM     31  H   UNL     1      36.202 -25.217 -16.282  0.00  0.00    -0.084 HD
ATOM     32  H   UNL     1      35.080 -25.174 -15.081  0.00  0.00    -0.084 HD
ENDBRANCH   6  27
TORSDOF 2
ENDMDL
MODEL 3
REMARK VINA RESULT:     -10.6      9.189     13.774
REMARK  Name = 445841
REMARK  2 active torsions:
REMARK  status: ('A' for Active; 'I' for Inactive)
REMARK    1  A    between atoms: N_2  and  C_22
REMARK    2  A    between atoms: C_6  and  C_27
REMARK                            x       y       z     vdW  Elec       q    Type
REMARK                         _______ _______ _______ _____ _____    ______ ____
ROOT
ATOM      1  O   UNL     1      32.552 -21.932 -17.887  0.00  0.00    -0.252 OA
ATOM      2  N   UNL     1      34.375 -22.811 -16.708  0.00  0.00    -0.268 N 
ATOM      3  N   UNL     1      33.609 -19.841 -21.369  0.00  0.00    -0.241 N 
ATOM      4  N   UNL     1      34.739 -21.626 -18.657  0.00  0.00    -0.252 N 
ATOM      5  N   UNL     1      33.335 -20.522 -20.244  0.00  0.00    -0.166 NA
ATOM      6  C   UNL     1      34.939 -19.768 -21.660  0.00  0.00    +0.026 C 
ATOM      7  C   UNL     1      35.581 -20.449 -20.655  0.00  0.00    +0.046 C 
ATOM      8  C   UNL     1      34.542 -20.882 -19.827  0.00  0.00    +0.154 C 
ATOM      9  C   UNL     1      33.761 -22.101 -17.771  0.00  0.00    +0.309 C 
ATOM     10  H   UNL     1      35.357 -22.866 -16.745  0.00  0.00    +0.156 HD
ATOM     11  H   UNL     1      32.913 -19.432 -21.933  0.00  0.00    +0.174 HD
ATOM     12  H   UNL     1      35.673 -21.842 -18.432  0.00  0.00    +0.158 HD
ENDROOT
BRANCH   2  22
ATOM     13  O   UNL     1      34.641 -25.173 -11.293  0.00  0.00    -0.270 OA
ATOM     14  N   UNL     1      36.020 -23.999 -12.801  0.00  0.00    -0.274 N 
ATOM     15  C   UNL     1      35.890 -23.396 -14.117  0.00  0.00    +0.100 C 
ATOM     16  C   UNL     1      37.031 -24.053 -14.880  0.00  0.00    +0.026 C 
ATOM     17  C   UNL     1      38.128 -24.128 -13.806  0.00  0.00    +0.024 C 
ATOM     18  C   UNL     1      37.370 -24.440 -12.512  0.00  0.00    +0.094 C 
ATOM     19  C   UNL     1      34.479 -23.710 -14.462  0.00  0.00    +0.014 C 
ATOM     20  C   UNL     1      33.846 -24.327 -13.375  0.00  0.00    +0.052 C 
ATOM     21  C   UNL     1      34.845 -24.547 -12.317  0.00  0.00    +0.249 C 
ATOM     22  C   UNL     1      33.775 -23.440 -15.620  0.00  0.00    +0.049 C 
ATOM     23  C   UNL     1      32.518 -24.704 -13.404  0.00  0.00    +0.004 C 
ATOM     24  C   UNL     1      32.426 -23.808 -15.670  0.00  0.00    +0.014 C 
ATOM     25  C   UNL     1      31.803 -24.433 -14.571  0.00  0.00    +0.001 C 
ENDBRANCH   2  22
BRANCH   6  27
ATOM     26  N   UNL     1      34.475 -19.050 -23.979  0.00  0.00    +0.388 N 
ATOM     27  C   UNL     1      35.458 -19.048 -22.884  0.00  0.00    -0.023 C 
ATOM     28  C   UNL     1      35.783 -17.571 -22.626  0.00  0.00    -0.018 C 
ATOM     29  C   UNL     1      34.971 -16.805 -23.659  0.00  0.00    -0.025 C 
ATOM     30  C   UNL     1      34.713 -17.830 -24.744  0.00  0.00    -0.081 C 
ATOM     31  H   UNL     1      33.527 -19.051 -23.602  0.00  0.00    -0.084 HD
ATOM     32  H   UNL     1      34.571 -19.880 -24.563  0.00  0.00    -0.084 HD
ENDBRANCH   6  27
TORSDOF 2
ENDMDL
MODEL 4
REMARK VINA RESULT:     -10.6      6.241     12.803
REMARK  Name = 445841
REMARK  2 active torsions:
REMARK  status: ('A' for Active; 'I' for Inactive)
REMARK    1  A    between atoms: N_2  and  C_22
REMARK    2  A    between atoms: C_6  and  C_27
REMARK                            x       y       z     vdW  Elec       q    Type
REMARK                         _______ _______ _______ _____ _____    ______ ____
ROOT
ATOM      1  O   UNL     1      33.213 -20.046 -21.441  0.00  0.00    -0.252 OA
ATOM      2  N   UNL     1      35.256 -18.909 -21.572  0.00  0.00    -0.268 N 
ATOM      3  N   UNL     1      32.984 -22.801 -18.283  0.00  0.00    -0.241 N 
ATOM      4  N   UNL     1      34.923 -20.469 -19.902  0.00  0.00    -0.252 N 
ATOM      5  N   UNL     1      33.119 -21.904 -19.274  0.00  0.00    -0.166 NA
ATOM      6  C   UNL     1      34.083 -22.910 -17.484  0.00  0.00    +0.026 C 
ATOM      7  C   UNL     1      35.003 -22.024 -17.988  0.00  0.00    +0.046 C 
ATOM      8  C   UNL     1      34.348 -21.445 -19.079  0.00  0.00    +0.154 C 
ATOM      9  C   UNL     1      34.342 -19.836 -21.011  0.00  0.00    +0.309 C 
ATOM     10  H   UNL     1      36.130 -18.846 -21.121  0.00  0.00    +0.156 HD
ATOM     11  H   UNL     1      32.165 -23.330 -18.145  0.00  0.00    +0.174 HD
ATOM     12  H   UNL     1      35.841 -20.195 -19.674  0.00  0.00    +0.158 HD
ENDROOT
BRANCH   2  22
ATOM     13  O   UNL     1      34.091 -13.616 -23.939  0.00  0.00    -0.270 OA
ATOM     14  N   UNL     1      34.433 -14.591 -21.820  0.00  0.00    -0.274 N 
ATOM     15  C   UNL     1      34.764 -15.903 -21.292  0.00  0.00    +0.100 C 
ATOM     16  C   UNL     1      33.638 -16.135 -20.295  0.00  0.00    +0.026 C 
ATOM     17  C   UNL     1      33.441 -14.729 -19.707  0.00  0.00    +0.024 C 
ATOM     18  C   UNL     1      33.657 -13.788 -20.897  0.00  0.00    +0.094 C 
ATOM     19  C   UNL     1      34.849 -16.722 -22.529  0.00  0.00    +0.014 C 
ATOM     20  C   UNL     1      34.700 -15.903 -23.656  0.00  0.00    +0.052 C 
ATOM     21  C   UNL     1      34.397 -14.536 -23.203  0.00  0.00    +0.249 C 
ATOM     22  C   UNL     1      35.085 -18.075 -22.676  0.00  0.00    +0.049 C 
ATOM     23  C   UNL     1      34.766 -16.393 -24.945  0.00  0.00    +0.004 C 
ATOM     24  C   UNL     1      35.161 -18.593 -23.973  0.00  0.00    +0.014 C 
ATOM     25  C   UNL     1      35.004 -17.759 -25.097  0.00  0.00    +0.001 C 
ENDBRANCH   2  22
BRANCH   6  27
ATOM     26  N   UNL     1      35.517 -24.111 -15.870  0.00  0.00    +0.388 N 
ATOM     27  C   UNL     1      34.136 -23.862 -16.311  0.00  0.00    -0.023 C 
ATOM     28  C   UNL     1      33.398 -23.337 -15.072  0.00  0.00    -0.018 C 
ATOM     29  C   UNL     1      34.432 -23.370 -13.957  0.00  0.00    -0.025 C 
ATOM     30  C   UNL     1      35.446 -24.386 -14.438  0.00  0.00    -0.081 C 
ATOM     31  H   UNL     1      36.097 -23.290 -16.043  0.00  0.00    -0.084 HD
ATOM     32  H   UNL     1      35.935 -24.891 -16.378  0.00  0.00    -0.084 HD
ENDBRANCH   6  27
TORSDOF 2
ENDMDL
MODEL 5
REMARK VINA RESULT:     -10.3      9.077     13.452
REMARK  Name = 445841
REMARK  2 active torsions:
REMARK  status: ('A' for Active; 'I' for Inactive)
REMARK    1  A    between atoms: N_2  and  C_22
REMARK    2  A    between atoms: C_6  and  C_27
REMARK                            x       y       z     vdW  Elec       q    Type
REMARK                         _______ _______ _______ _____ _____    ______ ____
ROOT
ATOM      1  O   UNL     1      36.170 -21.819 -17.300  0.00  0.00    -0.252 OA
ATOM      2  N   UNL     1      34.036 -22.773 -17.167  0.00  0.00    -0.268 N 
ATOM      3  N   UNL     1      36.818 -19.546 -20.769  0.00  0.00    -0.241 N 
ATOM      4  N   UNL     1      34.596 -21.481 -18.997  0.00  0.00    -0.252 N 
ATOM      5  N   UNL     1      36.549 -20.286 -19.680  0.00  0.00    -0.166 NA
ATOM      6  C   UNL     1      35.779 -19.460 -21.648  0.00  0.00    +0.026 C 
ATOM      7  C   UNL     1      34.759 -20.196 -21.096  0.00  0.00    +0.046 C 
ATOM      8  C   UNL     1      35.298 -20.670 -19.897  0.00  0.00    +0.154 C 
ATOM      9  C   UNL     1      35.055 -22.000 -17.777  0.00  0.00    +0.309 C 
ATOM     10  H   UNL     1      33.189 -22.832 -17.666  0.00  0.00    +0.156 HD
ATOM     11  H   UNL     1      37.685 -19.106 -20.918  0.00  0.00    +0.174 HD
ATOM     12  H   UNL     1      33.673 -21.712 -19.250  0.00  0.00    +0.158 HD
ENDROOT
BRANCH   2  22
ATOM     13  O   UNL     1      31.324 -25.452 -12.645  0.00  0.00    -0.270 OA
ATOM     14  N   UNL     1      30.791 -24.466 -14.719  0.00  0.00    -0.274 N 
ATOM     15  C   UNL     1      31.509 -23.855 -15.825  0.00  0.00    +0.100 C 
ATOM     16  C   UNL     1      30.813 -22.508 -15.947  0.00  0.00    +0.026 C 
ATOM     17  C   UNL     1      29.351 -22.879 -15.654  0.00  0.00    +0.024 C 
ATOM     18  C   UNL     1      29.444 -23.955 -14.568  0.00  0.00    +0.094 C 
ATOM     19  C   UNL     1      32.918 -23.931 -15.356  0.00  0.00    +0.014 C 
ATOM     20  C   UNL     1      32.984 -24.637 -14.149  0.00  0.00    +0.052 C 
ATOM     21  C   UNL     1      31.613 -24.952 -13.716  0.00  0.00    +0.249 C 
ATOM     22  C   UNL     1      34.072 -23.462 -15.956  0.00  0.00    +0.049 C 
ATOM     23  C   UNL     1      34.176 -24.887 -13.497  0.00  0.00    +0.004 C 
ATOM     24  C   UNL     1      35.291 -23.708 -15.317  0.00  0.00    +0.014 C 
ATOM     25  C   UNL     1      35.343 -24.415 -14.099  0.00  0.00    +0.001 C 
ENDBRANCH   2  22
BRANCH   6  27
ATOM     26  N   UNL     1      34.730 -18.933 -23.822  0.00  0.00    +0.388 N 
ATOM     27  C   UNL     1      35.875 -18.673 -22.935  0.00  0.00    -0.023 C 
ATOM     28  C   UNL     1      35.888 -17.154 -22.717  0.00  0.00    -0.018 C 
ATOM     29  C   UNL     1      34.739 -16.627 -23.564  0.00  0.00    -0.025 C 
ATOM     30  C   UNL     1      34.527 -17.714 -24.597  0.00  0.00    -0.081 C 
ATOM     31  H   UNL     1      33.897 -19.144 -23.272  0.00  0.00    -0.084 HD
ATOM     32  H   UNL     1      34.905 -19.735 -24.429  0.00  0.00    -0.084 HD
ENDBRANCH   6  27
TORSDOF 2
ENDMDL
MODEL 6
REMARK VINA RESULT:     -10.2      9.184     13.710
REMARK  Name = 445841
REMARK  2 active torsions:
REMARK  status: ('A' for Active; 'I' for Inactive)
REMARK    1  A    between atoms: N_2  and  C_22
REMARK    2  A    between atoms: C_6  and  C_27
REMARK                            x       y       z     vdW  Elec       q    Type
REMARK                         _______ _______ _______ _____ _____    ______ ____
ROOT
ATOM      1  O   UNL     1      37.659 -20.996 -16.965  0.00  0.00    -0.252 OA
ATOM      2  N   UNL     1      36.140 -22.770 -16.793  0.00  0.00    -0.268 N 
ATOM      3  N   UNL     1      37.381 -18.844 -20.557  0.00  0.00    -0.241 N 
ATOM      4  N   UNL     1      36.150 -21.456 -18.692  0.00  0.00    -0.252 N 
ATOM      5  N   UNL     1      37.421 -19.572 -19.428  0.00  0.00    -0.166 NA
ATOM      6  C   UNL     1      36.437 -19.259 -21.449  0.00  0.00    +0.026 C 
ATOM      7  C   UNL     1      35.815 -20.334 -20.863  0.00  0.00    +0.046 C 
ATOM      8  C   UNL     1      36.465 -20.468 -19.633  0.00  0.00    +0.154 C 
ATOM      9  C   UNL     1      36.747 -21.664 -17.439  0.00  0.00    +0.309 C 
ATOM     10  H   UNL     1      35.418 -23.214 -17.295  0.00  0.00    +0.156 HD
ATOM     11  H   UNL     1      37.979 -18.080 -20.725  0.00  0.00    +0.174 HD
ATOM     12  H   UNL     1      35.425 -22.076 -18.938  0.00  0.00    +0.158 HD
ENDROOT
BRANCH   2  22
ATOM     13  O   UNL     1      34.425 -25.032 -11.604  0.00  0.00    -0.270 OA
ATOM     14  N   UNL     1      33.481 -24.314 -13.641  0.00  0.00    -0.274 N 
ATOM     15  C   UNL     1      33.957 -23.802 -14.915  0.00  0.00    +0.100 C 
ATOM     16  C   UNL     1      33.166 -22.509 -15.051  0.00  0.00    +0.026 C 
ATOM     17  C   UNL     1      31.803 -22.908 -14.465  0.00  0.00    +0.024 C 
ATOM     18  C   UNL     1      32.150 -23.848 -13.306  0.00  0.00    +0.094 C 
ATOM     19  C   UNL     1      35.427 -23.762 -14.701  0.00  0.00    +0.014 C 
ATOM     20  C   UNL     1      35.746 -24.322 -13.457  0.00  0.00    +0.052 C 
ATOM     21  C   UNL     1      34.493 -24.646 -12.757  0.00  0.00    +0.249 C 
ATOM     22  C   UNL     1      36.428 -23.314 -15.542  0.00  0.00    +0.049 C 
ATOM     23  C   UNL     1      37.045 -24.444 -13.007  0.00  0.00    +0.004 C 
ATOM     24  C   UNL     1      37.753 -23.432 -15.109  0.00  0.00    +0.014 C 
ATOM     25  C   UNL     1      38.058 -23.993 -13.853  0.00  0.00    +0.001 C 
ENDBRANCH   2  22
BRANCH   6  27
ATOM     26  N   UNL     1      35.039 -19.086 -23.479  0.00  0.00    +0.388 N 
ATOM     27  C   UNL     1      36.228 -18.573 -22.780  0.00  0.00    -0.023 C 
ATOM     28  C   UNL     1      36.009 -17.060 -22.654  0.00  0.00    -0.018 C 
ATOM     29  C   UNL     1      34.686 -16.796 -23.358  0.00  0.00    -0.025 C 
ATOM     30  C   UNL     1      34.531 -17.982 -24.286  0.00  0.00    -0.081 C 
ATOM     31  H   UNL     1      34.334 -19.385 -22.805  0.00  0.00    -0.084 HD
ATOM     32  H   UNL     1      35.268 -19.895 -24.057  0.00  0.00    -0.084 HD
ENDBRANCH   6  27
TORSDOF 2
ENDMDL
MODEL 7
REMARK VINA RESULT:     -10.0      2.916      9.587
REMARK  Name = 445841
REMARK  2 active torsions:
REMARK  status: ('A' for Active; 'I' for Inactive)
REMARK    1  A    between atoms: N_2  and  C_22
REMARK    2  A    between atoms: C_6  and  C_27
REMARK                            x       y       z     vdW  Elec       q    Type
REMARK                         _______ _______ _______ _____ _____    ______ ____
ROOT
ATOM      1  O   UNL     1      31.120  -8.283 -21.946  0.00  0.00    -0.252 OA
ATOM      2  N   UNL     1      32.559  -7.285 -23.501  0.00  0.00    -0.268 N 
ATOM      3  N   UNL     1      31.744 -12.402 -21.430  0.00  0.00    -0.241 N 
ATOM      4  N   UNL     1      32.738  -9.547 -23.067  0.00  0.00    -0.252 N 
ATOM      5  N   UNL     1      31.594 -11.083 -21.640  0.00  0.00    -0.166 NA
ATOM      6  C   UNL     1      32.739 -12.968 -22.171  0.00  0.00    +0.026 C 
ATOM      7  C   UNL     1      33.277 -11.949 -22.919  0.00  0.00    +0.046 C 
ATOM      8  C   UNL     1      32.531 -10.828 -22.544  0.00  0.00    +0.154 C 
ATOM      9  C   UNL     1      32.042  -8.371 -22.750  0.00  0.00    +0.309 C 
ATOM     10  H   UNL     1      33.301  -7.504 -24.110  0.00  0.00    +0.156 HD
ATOM     11  H   UNL     1      31.188 -12.912 -20.799  0.00  0.00    +0.174 HD
ATOM     12  H   UNL     1      33.458  -9.461 -23.734  0.00  0.00    +0.158 HD
ENDROOT
BRANCH   2  22
ATOM     13  O   UNL     1      32.796  -1.788 -25.669  0.00  0.00    -0.270 OA
ATOM     14  N   UNL     1      33.635  -3.937 -26.150  0.00  0.00    -0.274 N 
ATOM     15  C   UNL     1      33.509  -5.278 -25.604  0.00  0.00    +0.100 C 
ATOM     16  C   UNL     1      34.963  -5.668 -25.384  0.00  0.00    +0.026 C 
ATOM     17  C   UNL     1      35.649  -5.036 -26.606  0.00  0.00    +0.024 C 
ATOM     18  C   UNL     1      34.902  -3.715 -26.819  0.00  0.00    +0.094 C 
ATOM     19  C   UNL     1      32.610  -5.054 -24.443  0.00  0.00    +0.014 C 
ATOM     20  C   UNL     1      32.175  -3.722 -24.423  0.00  0.00    +0.052 C 
ATOM     21  C   UNL     1      32.862  -2.991 -25.499  0.00  0.00    +0.249 C 
ATOM     22  C   UNL     1      32.158  -5.950 -23.493  0.00  0.00    +0.049 C 
ATOM     23  C   UNL     1      31.304  -3.238 -23.467  0.00  0.00    +0.004 C 
ATOM     24  C   UNL     1      31.270  -5.484 -22.518  0.00  0.00    +0.014 C 
ATOM     25  C   UNL     1      30.846  -4.140 -22.506  0.00  0.00    +0.001 C 
ENDBRANCH   2  22
BRANCH   6  27
ATOM     26  N   UNL     1      34.398 -14.736 -22.647  0.00  0.00    +0.388 N 
ATOM     27  C   UNL     1      33.072 -14.440 -22.082  0.00  0.00    -0.023 C 
ATOM     28  C   UNL     1      33.113 -14.966 -20.642  0.00  0.00    -0.018 C 
ATOM     29  C   UNL     1      34.491 -15.593 -20.493  0.00  0.00    -0.025 C 
ATOM     30  C   UNL     1      34.904 -15.894 -21.918  0.00  0.00    -0.081 C 
ATOM     31  H   UNL     1      35.022 -13.939 -22.521  0.00  0.00    -0.084 HD
ATOM     32  H   UNL     1      34.342 -14.923 -23.649  0.00  0.00    -0.084 HD
ENDBRANCH   6  27
TORSDOF 2
ENDMDL
MODEL 8
REMARK VINA RESULT:      -9.7      9.155     13.655
REMARK  Name = 445841
REMARK  2 active torsions:
REMARK  status: ('A' for Active; 'I' for Inactive)
REMARK    1  A    between atoms: N_2  and  C_22
REMARK    2  A    between atoms: C_6  and  C_27
REMARK                            x       y       z     vdW  Elec       q    Type
REMARK                         _______ _______ _______ _____ _____    ______ ____
ROOT
ATOM      1  O   UNL     1      33.269 -23.399 -17.969  0.00  0.00    -0.252 OA
ATOM      2  N   UNL     1      31.361 -22.331 -17.132  0.00  0.00    -0.268 N 
ATOM      3  N   UNL     1      35.406 -21.133 -20.783  0.00  0.00    -0.241 N 
ATOM      4  N   UNL     1      32.680 -21.253 -18.692  0.00  0.00    -0.252 N 
ATOM      5  N   UNL     1      34.679 -21.808 -19.877  0.00  0.00    -0.166 NA
ATOM      6  C   UNL     1      34.910 -19.898 -21.080  0.00  0.00    +0.026 C 
ATOM      7  C   UNL     1      33.778 -19.755 -20.315  0.00  0.00    +0.046 C 
ATOM      8  C   UNL     1      33.698 -20.957 -19.607  0.00  0.00    +0.154 C 
ATOM      9  C   UNL     1      32.522 -22.427 -17.940  0.00  0.00    +0.309 C 
ATOM     10  H   UNL     1      30.855 -21.489 -17.213  0.00  0.00    +0.156 HD
ATOM     11  H   UNL     1      36.223 -21.497 -21.195  0.00  0.00    +0.174 HD
ATOM     12  H   UNL     1      31.997 -20.556 -18.561  0.00  0.00    +0.158 HD
ENDROOT
BRANCH   2  22
ATOM     13  O   UNL     1      31.803 -25.659 -12.264  0.00  0.00    -0.270 OA
ATOM     14  N   UNL     1      33.004 -23.974 -13.393  0.00  0.00    -0.274 N 
ATOM     15  C   UNL     1      32.827 -23.149 -14.576  0.00  0.00    +0.100 C 
ATOM     16  C   UNL     1      34.110 -23.422 -15.347  0.00  0.00    +0.026 C 
ATOM     17  C   UNL     1      35.146 -23.516 -14.214  0.00  0.00    +0.024 C 
ATOM     18  C   UNL     1      34.397 -24.215 -13.075  0.00  0.00    +0.094 C 
ATOM     19  C   UNL     1      31.523 -23.635 -15.098  0.00  0.00    +0.014 C 
ATOM     20  C   UNL     1      30.966 -24.563 -14.208  0.00  0.00    +0.052 C 
ATOM     21  C   UNL     1      31.934 -24.811 -13.128  0.00  0.00    +0.249 C 
ATOM     22  C   UNL     1      30.839 -23.266 -16.241  0.00  0.00    +0.049 C 
ATOM     23  C   UNL     1      29.740 -25.158 -14.425  0.00  0.00    +0.004 C 
ATOM     24  C   UNL     1      29.591 -23.852 -16.479  0.00  0.00    +0.014 C 
ATOM     25  C   UNL     1      29.046 -24.788 -15.578  0.00  0.00    +0.001 C 
ENDBRANCH   2  22
BRANCH   6  27
ATOM     26  N   UNL     1      34.795 -18.841 -23.310  0.00  0.00    +0.388 N 
ATOM     27  C   UNL     1      35.580 -18.978 -22.074  0.00  0.00    -0.023 C 
ATOM     28  C   UNL     1      35.767 -17.549 -21.546  0.00  0.00    -0.018 C 
ATOM     29  C   UNL     1      35.092 -16.659 -22.579  0.00  0.00    -0.025 C 
ATOM     30  C   UNL     1      35.081 -17.509 -23.832  0.00  0.00    -0.081 C 
ATOM     31  H   UNL     1      33.799 -18.934 -23.108  0.00  0.00    -0.084 HD
ATOM     32  H   UNL     1      35.037 -19.566 -23.987  0.00  0.00    -0.084 HD
ENDBRANCH   6  27
TORSDOF 2
ENDMDL
MODEL 9
REMARK VINA RESULT:      -9.5      2.580      9.601
REMARK  Name = 445841
REMARK  2 active torsions:
REMARK  status: ('A' for Active; 'I' for Inactive)
REMARK    1  A    between atoms: N_2  and  C_22
REMARK    2  A    between atoms: C_6  and  C_27
REMARK                            x       y       z     vdW  Elec       q    Type
REMARK                         _______ _______ _______ _____ _____    ______ ____
ROOT
ATOM      1  O   UNL     1      31.790 -10.047 -22.016  0.00  0.00    -0.252 OA
ATOM      2  N   UNL     1      32.921  -8.398 -23.235  0.00  0.00    -0.268 N 
ATOM      3  N   UNL     1      33.391 -13.902 -22.453  0.00  0.00    -0.241 N 
ATOM      4  N   UNL     1      33.644 -10.589 -23.335  0.00  0.00    -0.252 N 
ATOM      5  N   UNL     1      32.925 -12.645 -22.354  0.00  0.00    -0.166 NA
ATOM      6  C   UNL     1      34.479 -14.025 -23.265  0.00  0.00    +0.026 C 
ATOM      7  C   UNL     1      34.744 -12.761 -23.731  0.00  0.00    +0.046 C 
ATOM      8  C   UNL     1      33.758 -11.970 -23.135  0.00  0.00    +0.154 C 
ATOM      9  C   UNL     1      32.692  -9.721 -22.781  0.00  0.00    +0.309 C 
ATOM     10  H   UNL     1      33.683  -8.284 -23.848  0.00  0.00    +0.156 HD
ATOM     11  H   UNL     1      32.983 -14.665 -21.982  0.00  0.00    +0.174 HD
ATOM     12  H   UNL     1      34.311 -10.180 -23.934  0.00  0.00    +0.158 HD
ENDROOT
BRANCH   2  22
ATOM     13  O   UNL     1      31.488  -2.764 -24.324  0.00  0.00    -0.270 OA
ATOM     14  N   UNL     1      32.746  -4.508 -25.290  0.00  0.00    -0.274 N 
ATOM     15  C   UNL     1      33.032  -5.903 -25.001  0.00  0.00    +0.100 C 
ATOM     16  C   UNL     1      34.554  -5.921 -25.008  0.00  0.00    +0.026 C 
ATOM     17  C   UNL     1      34.877  -4.944 -26.150  0.00  0.00    +0.024 C 
ATOM     18  C   UNL     1      33.808  -3.854 -26.029  0.00  0.00    +0.094 C 
ATOM     19  C   UNL     1      32.287  -6.114 -23.733  0.00  0.00    +0.014 C 
ATOM     20  C   UNL     1      31.549  -4.967 -23.414  0.00  0.00    +0.052 C 
ATOM     21  C   UNL     1      31.870  -3.918 -24.395  0.00  0.00    +0.249 C 
ATOM     22  C   UNL     1      32.212  -7.237 -22.931  0.00  0.00    +0.049 C 
ATOM     23  C   UNL     1      30.736  -4.890 -22.301  0.00  0.00    +0.004 C 
ATOM     24  C   UNL     1      31.391  -7.184 -21.800  0.00  0.00    +0.014 C 
ATOM     25  C   UNL     1      30.659  -6.022 -21.488  0.00  0.00    +0.001 C 
ENDBRANCH   2  22
BRANCH   6  27
ATOM     26  N   UNL     1      34.665 -16.396 -22.594  0.00  0.00    +0.388 N 
ATOM     27  C   UNL     1      35.156 -15.354 -23.510  0.00  0.00    -0.023 C 
ATOM     28  C   UNL     1      34.919 -15.905 -24.923  0.00  0.00    -0.018 C 
ATOM     29  C   UNL     1      34.332 -17.292 -24.709  0.00  0.00    -0.025 C 
ATOM     30  C   UNL     1      34.784 -17.661 -23.311  0.00  0.00    -0.081 C 
ATOM     31  H   UNL     1      33.691 -16.220 -22.348  0.00  0.00    -0.084 HD
ATOM     32  H   UNL     1      35.200 -16.409 -21.725  0.00  0.00    -0.084 HD
ENDBRANCH   6  27
TORSDOF 2
ENDMDL
