MODEL 1
REMARK VINA RESULT:     -12.0      0.000      0.000
REMARK  Name = 447731
REMARK  4 active torsions:
REMARK  status: ('A' for Active; 'I' for Inactive)
REMARK    1  A    between atoms: N_2  and  C_13
REMARK    2  A    between atoms: C_3  and  C_19
REMARK    3  A    between atoms: C_6  and  C_17
REMARK    4  A    between atoms: C_27  and  C_31
REMARK                            x       y       z     vdW  Elec       q    Type
REMARK                         _______ _______ _______ _____ _____    ______ ____
ROOT
ATOM      1  O   UNL     1      32.967 -20.952 -20.342  0.00  0.00    -0.270 OA
ATOM      2  N   UNL     1      35.122 -20.011 -20.382  0.00  0.00    -0.280 N 
ATOM      3  C   UNL     1      34.104 -20.840 -19.894  0.00  0.00    +0.249 C 
ATOM      4  H   UNL     1      35.978 -20.046 -19.898  0.00  0.00    +0.155 HD
ENDROOT
BRANCH   2  13
ATOM      5  N   UNL     1      34.034 -15.306 -24.652  0.00  0.00    +0.387 N 
ATOM      6  C   UNL     1      34.088 -15.501 -22.190  0.00  0.00    +0.001 C 
ATOM      7  C   UNL     1      34.590 -16.926 -22.370  0.00  0.00    -0.029 C 
ATOM      8  C   UNL     1      34.401 -14.619 -23.416  0.00  0.00    -0.077 C 
ATOM      9  C   UNL     1      34.941 -17.392 -23.653  0.00  0.00    -0.048 C 
ATOM     10  C   UNL     1      34.896 -16.475 -24.849  0.00  0.00    -0.055 C 
ATOM     11  C   UNL     1      34.638 -17.824 -21.291  0.00  0.00    +0.010 C 
ATOM     12  C   UNL     1      35.387 -18.711 -23.821  0.00  0.00    -0.005 C 
ATOM     13  C   UNL     1      35.072 -19.139 -21.472  0.00  0.00    +0.050 C 
ATOM     14  C   UNL     1      35.451 -19.580 -22.735  0.00  0.00    +0.014 C 
ATOM     15  H   UNL     1      34.145 -14.668 -25.440  0.00  0.00    -0.084 HD
ATOM     16  H   UNL     1      33.063 -15.613 -24.590  0.00  0.00    -0.084 HD
BRANCH   6  17
ATOM     17  C   UNL     1      34.637 -14.808 -20.938  0.00  0.00    +0.002 C 
ATOM     18  C   UNL     1      33.612 -13.869 -20.339  0.00  0.00    +0.000 C 
ENDBRANCH   6  17
ENDBRANCH   2  13
BRANCH   3  19
ATOM     19  C   UNL     1      34.455 -21.638 -18.691  0.00  0.00    +0.054 C 
ATOM     20  C   UNL     1      36.093 -22.333 -17.072  0.00  0.00    +0.000 C 
ATOM     21  C   UNL     1      35.108 -23.131 -16.442  0.00  0.00    +0.000 C 
ATOM     22  C   UNL     1      35.746 -21.583 -18.209  0.00  0.00    +0.005 C 
ATOM     23  C   UNL     1      33.479 -22.406 -18.097  0.00  0.00    +0.005 C 
ATOM     24  C   UNL     1      33.806 -23.157 -16.968  0.00  0.00    +0.000 C 
ATOM     25  C   UNL     1      35.455 -23.881 -15.307  0.00  0.00    +0.003 C 
ATOM     26  C   UNL     1      37.395 -22.308 -16.548  0.00  0.00    +0.000 C 
ATOM     27  C   UNL     1      36.754 -23.844 -14.799  0.00  0.00    +0.031 C 
ATOM     28  C   UNL     1      37.722 -23.058 -15.419  0.00  0.00    +0.003 C 
BRANCH  27  31
ATOM     29  N   UNL     1      36.273 -25.655 -13.171  0.00  0.00    -0.343 N 
ATOM     30  N   UNL     1      38.206 -24.362 -12.957  0.00  0.00    -0.285 NA
ATOM     31  C   UNL     1      37.097 -24.626 -13.622  0.00  0.00    +0.117 C 
ATOM     32  H   UNL     1      36.524 -26.172 -12.371  0.00  0.00    +0.144 HD
ATOM     33  H   UNL     1      35.440 -25.866 -13.651  0.00  0.00    +0.144 HD
ATOM     34  H   UNL     1      38.440 -24.890 -12.159  0.00  0.00    +0.188 HD
ENDBRANCH  27  31
ENDBRANCH   3  19
TORSDOF 4
ENDMDL
MODEL 2
REMARK VINA RESULT:     -11.4      2.203     10.212
REMARK  Name = 447731
REMARK  4 active torsions:
REMARK  status: ('A' for Active; 'I' for Inactive)
REMARK    1  A    between atoms: N_2  and  C_13
REMARK    2  A    between atoms: C_3  and  C_19
REMARK    3  A    between atoms: C_6  and  C_17
REMARK    4  A    between atoms: C_27  and  C_31
REMARK                            x       y       z     vdW  Elec       q    Type
REMARK                         _______ _______ _______ _____ _____    ______ ____
ROOT
ATOM      1  O   UNL     1      33.783 -23.830 -17.785  0.00  0.00    -0.270 OA
ATOM      2  N   UNL     1      35.235 -22.441 -16.564  0.00  0.00    -0.280 N 
ATOM      3  C   UNL     1      34.423 -22.793 -17.650  0.00  0.00    +0.249 C 
ATOM      4  H   UNL     1      35.678 -21.563 -16.623  0.00  0.00    +0.155 HD
ENDROOT
BRANCH   2  13
ATOM      5  N   UNL     1      37.197 -26.585 -12.035  0.00  0.00    +0.387 N 
ATOM      6  C   UNL     1      38.150 -25.619 -14.099  0.00  0.00    +0.001 C 
ATOM      7  C   UNL     1      36.923 -24.722 -14.178  0.00  0.00    -0.029 C 
ATOM      8  C   UNL     1      38.425 -26.095 -12.659  0.00  0.00    -0.077 C 
ATOM      9  C   UNL     1      36.005 -24.689 -13.109  0.00  0.00    -0.048 C 
ATOM     10  C   UNL     1      36.256 -25.478 -11.849  0.00  0.00    -0.055 C 
ATOM     11  C   UNL     1      36.638 -23.977 -15.335  0.00  0.00    +0.010 C 
ATOM     12  C   UNL     1      34.866 -23.875 -13.190  0.00  0.00    -0.005 C 
ATOM     13  C   UNL     1      35.493 -23.181 -15.409  0.00  0.00    +0.050 C 
ATOM     14  C   UNL     1      34.611 -23.125 -14.335  0.00  0.00    +0.014 C 
ATOM     15  H   UNL     1      37.420 -26.996 -11.128  0.00  0.00    -0.084 HD
ATOM     16  H   UNL     1      36.772 -27.290 -12.638  0.00  0.00    -0.084 HD
BRANCH   6  17
ATOM     17  C   UNL     1      39.424 -24.969 -14.650  0.00  0.00    +0.002 C 
ATOM     18  C   UNL     1      40.657 -25.741 -14.231  0.00  0.00    +0.000 C 
ENDBRANCH   6  17
ENDBRANCH   2  13
BRANCH   3  19
ATOM     19  C   UNL     1      34.370 -21.799 -18.754  0.00  0.00    +0.054 C 
ATOM     20  C   UNL     1      35.515 -20.318 -20.264  0.00  0.00    +0.000 C 
ATOM     21  C   UNL     1      34.267 -19.943 -20.817  0.00  0.00    +0.000 C 
ATOM     22  C   UNL     1      35.550 -21.259 -19.221  0.00  0.00    +0.005 C 
ATOM     23  C   UNL     1      33.144 -21.452 -19.275  0.00  0.00    +0.005 C 
ATOM     24  C   UNL     1      33.091 -20.519 -20.310  0.00  0.00    +0.000 C 
ATOM     25  C   UNL     1      34.232 -19.002 -21.859  0.00  0.00    +0.003 C 
ATOM     26  C   UNL     1      36.691 -19.741 -20.770  0.00  0.00    +0.000 C 
ATOM     27  C   UNL     1      35.411 -18.439 -22.349  0.00  0.00    +0.031 C 
ATOM     28  C   UNL     1      36.638 -18.809 -21.805  0.00  0.00    +0.003 C 
BRANCH  27  31
ATOM     29  N   UNL     1      34.826 -17.795 -24.674  0.00  0.00    -0.343 N 
ATOM     30  N   UNL     1      35.824 -16.246 -23.239  0.00  0.00    -0.285 NA
ATOM     31  C   UNL     1      35.358 -17.467 -23.429  0.00  0.00    +0.117 C 
ATOM     32  H   UNL     1      34.799 -17.121 -25.392  0.00  0.00    +0.144 HD
ATOM     33  H   UNL     1      34.475 -18.701 -24.837  0.00  0.00    +0.144 HD
ATOM     34  H   UNL     1      35.789 -15.586 -23.969  0.00  0.00    +0.188 HD
ENDBRANCH  27  31
ENDBRANCH   3  19
TORSDOF 4
ENDMDL
MODEL 3
REMARK VINA RESULT:     -11.4      0.866      1.697
REMARK  Name = 447731
REMARK  4 active torsions:
REMARK  status: ('A' for Active; 'I' for Inactive)
REMARK    1  A    between atoms: N_2  and  C_13
REMARK    2  A    between atoms: C_3  and  C_19
REMARK    3  A    between atoms: C_6  and  C_17
REMARK    4  A    between atoms: C_27  and  C_31
REMARK                            x       y       z     vdW  Elec       q    Type
REMARK                         _______ _______ _______ _____ _____    ______ ____
ROOT
ATOM      1  O   UNL     1      33.214 -20.803 -20.558  0.00  0.00    -0.270 OA
ATOM      2  N   UNL     1      35.279 -19.680 -20.603  0.00  0.00    -0.280 N 
ATOM      3  C   UNL     1      34.339 -20.596 -20.115  0.00  0.00    +0.249 C 
ATOM      4  H   UNL     1      36.138 -19.645 -20.123  0.00  0.00    +0.155 HD
ENDROOT
BRANCH   2  13
ATOM      5  N   UNL     1      33.833 -15.015 -24.809  0.00  0.00    +0.387 N 
ATOM      6  C   UNL     1      34.004 -15.209 -22.352  0.00  0.00    +0.001 C 
ATOM      7  C   UNL     1      34.549 -16.615 -22.557  0.00  0.00    -0.029 C 
ATOM      8  C   UNL     1      34.230 -14.316 -23.589  0.00  0.00    -0.077 C 
ATOM      9  C   UNL     1      34.858 -17.067 -23.856  0.00  0.00    -0.048 C 
ATOM     10  C   UNL     1      34.727 -16.151 -25.047  0.00  0.00    -0.055 C 
ATOM     11  C   UNL     1      34.677 -17.511 -21.484  0.00  0.00    +0.010 C 
ATOM     12  C   UNL     1      35.344 -18.370 -24.047  0.00  0.00    -0.005 C 
ATOM     13  C   UNL     1      35.149 -18.810 -21.688  0.00  0.00    +0.050 C 
ATOM     14  C   UNL     1      35.487 -19.236 -22.967  0.00  0.00    +0.014 C 
ATOM     15  H   UNL     1      33.885 -14.372 -25.600  0.00  0.00    -0.084 HD
ATOM     16  H   UNL     1      32.877 -15.356 -24.705  0.00  0.00    -0.084 HD
BRANCH   6  17
ATOM     17  C   UNL     1      34.583 -14.498 -21.124  0.00  0.00    +0.002 C 
ATOM     18  C   UNL     1      33.484 -13.943 -20.244  0.00  0.00    +0.000 C 
ENDBRANCH   6  17
ENDBRANCH   2  13
BRANCH   3  19
ATOM     19  C   UNL     1      34.763 -21.368 -18.918  0.00  0.00    +0.054 C 
ATOM     20  C   UNL     1      34.188 -22.755 -17.038  0.00  0.00    +0.000 C 
ATOM     21  C   UNL     1      35.557 -22.810 -16.682  0.00  0.00    +0.000 C 
ATOM     22  C   UNL     1      33.803 -22.021 -18.173  0.00  0.00    +0.005 C 
ATOM     23  C   UNL     1      36.099 -21.405 -18.592  0.00  0.00    +0.005 C 
ATOM     24  C   UNL     1      36.500 -22.129 -17.469  0.00  0.00    +0.000 C 
ATOM     25  C   UNL     1      35.942 -23.543 -15.547  0.00  0.00    +0.003 C 
ATOM     26  C   UNL     1      33.246 -23.435 -16.251  0.00  0.00    +0.000 C 
ATOM     27  C   UNL     1      34.992 -24.212 -14.776  0.00  0.00    +0.031 C 
ATOM     28  C   UNL     1      33.646 -24.158 -15.128  0.00  0.00    +0.003 C 
BRANCH  27  31
ATOM     29  N   UNL     1      34.907 -24.672 -12.338  0.00  0.00    -0.343 N 
ATOM     30  N   UNL     1      36.279 -25.951 -13.731  0.00  0.00    -0.285 NA
ATOM     31  C   UNL     1      35.407 -24.967 -13.605  0.00  0.00    +0.117 C 
ATOM     32  H   UNL     1      35.201 -25.196 -11.558  0.00  0.00    +0.144 HD
ATOM     33  H   UNL     1      34.258 -23.941 -12.223  0.00  0.00    +0.144 HD
ATOM     34  H   UNL     1      36.562 -26.463 -12.939  0.00  0.00    +0.188 HD
ENDBRANCH  27  31
ENDBRANCH   3  19
TORSDOF 4
ENDMDL
MODEL 4
REMARK VINA RESULT:     -11.3      1.497      2.350
REMARK  Name = 447731
REMARK  4 active torsions:
REMARK  status: ('A' for Active; 'I' for Inactive)
REMARK    1  A    between atoms: N_2  and  C_13
REMARK    2  A    between atoms: C_3  and  C_19
REMARK    3  A    between atoms: C_6  and  C_17
REMARK    4  A    between atoms: C_27  and  C_31
REMARK                            x       y       z     vdW  Elec       q    Type
REMARK                         _______ _______ _______ _____ _____    ______ ____
ROOT
ATOM      1  O   UNL     1      36.807 -21.294 -20.612  0.00  0.00    -0.270 OA
ATOM      2  N   UNL     1      35.000 -19.836 -20.237  0.00  0.00    -0.280 N 
ATOM      3  C   UNL     1      35.873 -20.888 -19.929  0.00  0.00    +0.249 C 
ATOM      4  H   UNL     1      34.302 -19.644 -19.570  0.00  0.00    +0.155 HD
ENDROOT
BRANCH   2  13
ATOM      5  N   UNL     1      34.133 -15.359 -24.792  0.00  0.00    +0.387 N 
ATOM      6  C   UNL     1      34.114 -15.416 -22.323  0.00  0.00    +0.001 C 
ATOM      7  C   UNL     1      34.590 -16.859 -22.408  0.00  0.00    -0.029 C 
ATOM      8  C   UNL     1      34.480 -14.611 -23.586  0.00  0.00    -0.077 C 
ATOM      9  C   UNL     1      34.967 -17.403 -23.652  0.00  0.00    -0.048 C 
ATOM     10  C   UNL     1      34.975 -16.553 -24.899  0.00  0.00    -0.055 C 
ATOM     11  C   UNL     1      34.589 -17.695 -21.279  0.00  0.00    +0.010 C 
ATOM     12  C   UNL     1      35.390 -18.738 -23.733  0.00  0.00    -0.005 C 
ATOM     13  C   UNL     1      34.999 -19.026 -21.375  0.00  0.00    +0.050 C 
ATOM     14  C   UNL     1      35.404 -19.546 -22.599  0.00  0.00    +0.014 C 
ATOM     15  H   UNL     1      34.280 -14.768 -25.611  0.00  0.00    -0.084 HD
ATOM     16  H   UNL     1      33.154 -15.642 -24.742  0.00  0.00    -0.084 HD
BRANCH   6  17
ATOM     17  C   UNL     1      34.642 -14.665 -21.095  0.00  0.00    +0.002 C 
ATOM     18  C   UNL     1      33.506 -14.161 -20.231  0.00  0.00    +0.000 C 
ENDBRANCH   6  17
ENDBRANCH   2  13
BRANCH   3  19
ATOM     19  C   UNL     1      35.600 -21.586 -18.646  0.00  0.00    +0.054 C 
ATOM     20  C   UNL     1      34.041 -22.668 -17.167  0.00  0.00    +0.000 C 
ATOM     21  C   UNL     1      35.094 -22.890 -16.247  0.00  0.00    +0.000 C 
ATOM     22  C   UNL     1      34.315 -22.007 -18.377  0.00  0.00    +0.005 C 
ATOM     23  C   UNL     1      36.641 -21.790 -17.768  0.00  0.00    +0.005 C 
ATOM     24  C   UNL     1      36.388 -22.444 -16.563  0.00  0.00    +0.000 C 
ATOM     25  C   UNL     1      34.821 -23.550 -15.037  0.00  0.00    +0.003 C 
ATOM     26  C   UNL     1      32.748 -23.113 -16.851  0.00  0.00    +0.000 C 
ATOM     27  C   UNL     1      33.530 -23.986 -14.740  0.00  0.00    +0.031 C 
ATOM     28  C   UNL     1      32.495 -23.768 -15.646  0.00  0.00    +0.003 C 
BRANCH  27  31
ATOM     29  N   UNL     1      32.073 -25.360 -13.273  0.00  0.00    -0.343 N 
ATOM     30  N   UNL     1      34.160 -24.636 -12.515  0.00  0.00    -0.285 NA
ATOM     31  C   UNL     1      33.264 -24.668 -13.484  0.00  0.00    +0.117 C 
ATOM     32  H   UNL     1      31.913 -25.815 -12.415  0.00  0.00    +0.144 HD
ATOM     33  H   UNL     1      31.390 -25.394 -13.982  0.00  0.00    +0.144 HD
ATOM     34  H   UNL     1      33.982 -25.097 -11.663  0.00  0.00    +0.188 HD
ENDBRANCH  27  31
ENDBRANCH   3  19
TORSDOF 4
ENDMDL
MODEL 5
REMARK VINA RESULT:     -11.3      5.526      9.572
REMARK  Name = 447731
REMARK  4 active torsions:
REMARK  status: ('A' for Active; 'I' for Inactive)
REMARK    1  A    between atoms: N_2  and  C_13
REMARK    2  A    between atoms: C_3  and  C_19
REMARK    3  A    between atoms: C_6  and  C_17
REMARK    4  A    between atoms: C_27  and  C_31
REMARK                            x       y       z     vdW  Elec       q    Type
REMARK                         _______ _______ _______ _____ _____    ______ ____
ROOT
ATOM      1  O   UNL     1      33.825 -12.125 -24.956  0.00  0.00    -0.270 OA
ATOM      2  N   UNL     1      34.375 -10.918 -23.014  0.00  0.00    -0.280 N 
ATOM      3  C   UNL     1      34.150 -12.073 -23.774  0.00  0.00    +0.249 C 
ATOM      4  H   UNL     1      34.631 -11.063 -22.074  0.00  0.00    +0.155 HD
ENDROOT
BRANCH   2  13
ATOM      5  N   UNL     1      32.631  -4.964 -24.761  0.00  0.00    +0.387 N 
ATOM      6  C   UNL     1      31.766  -6.696 -23.227  0.00  0.00    +0.001 C 
ATOM      7  C   UNL     1      33.023  -7.503 -23.518  0.00  0.00    -0.029 C 
ATOM      8  C   UNL     1      31.977  -5.189 -23.473  0.00  0.00    -0.077 C 
ATOM      9  C   UNL     1      34.070  -6.927 -24.267  0.00  0.00    -0.048 C 
ATOM     10  C   UNL     1      33.997  -5.493 -24.726  0.00  0.00    -0.055 C 
ATOM     11  C   UNL     1      33.136  -8.846 -23.125  0.00  0.00    +0.010 C 
ATOM     12  C   UNL     1      35.222  -7.678 -24.551  0.00  0.00    -0.005 C 
ATOM     13  C   UNL     1      34.281  -9.587 -23.425  0.00  0.00    +0.050 C 
ATOM     14  C   UNL     1      35.325  -9.001 -24.132  0.00  0.00    +0.014 C 
ATOM     15  H   UNL     1      32.662  -3.962 -24.954  0.00  0.00    -0.084 HD
ATOM     16  H   UNL     1      32.105  -5.442 -25.493  0.00  0.00    -0.084 HD
BRANCH   6  17
ATOM     17  C   UNL     1      31.229  -6.887 -21.803  0.00  0.00    +0.002 C 
ATOM     18  C   UNL     1      32.154  -6.262 -20.782  0.00  0.00    +0.000 C 
ENDBRANCH   6  17
ENDBRANCH   2  13
BRANCH   3  19
ATOM     19  C   UNL     1      34.302 -13.357 -23.042  0.00  0.00    +0.054 C 
ATOM     20  C   UNL     1      34.718 -15.727 -23.083  0.00  0.00    +0.000 C 
ATOM     21  C   UNL     1      34.587 -15.757 -21.673  0.00  0.00    +0.000 C 
ATOM     22  C   UNL     1      34.571 -14.504 -23.760  0.00  0.00    +0.005 C 
ATOM     23  C   UNL     1      34.170 -13.360 -21.673  0.00  0.00    +0.005 C 
ATOM     24  C   UNL     1      34.312 -14.564 -20.984  0.00  0.00    +0.000 C 
ATOM     25  C   UNL     1      34.733 -16.978 -20.996  0.00  0.00    +0.003 C 
ATOM     26  C   UNL     1      34.992 -16.918 -23.772  0.00  0.00    +0.000 C 
ATOM     27  C   UNL     1      35.005 -18.153 -21.697  0.00  0.00    +0.031 C 
ATOM     28  C   UNL     1      35.134 -18.122 -23.083  0.00  0.00    +0.003 C 
BRANCH  27  31
ATOM     29  N   UNL     1      34.056 -20.226 -20.715  0.00  0.00    -0.343 N 
ATOM     30  N   UNL     1      36.346 -19.793 -20.565  0.00  0.00    -0.285 NA
ATOM     31  C   UNL     1      35.153 -19.409 -20.981  0.00  0.00    +0.117 C 
ATOM     32  H   UNL     1      34.178 -21.073 -20.229  0.00  0.00    +0.144 HD
ATOM     33  H   UNL     1      33.157 -19.957 -21.014  0.00  0.00    +0.144 HD
ATOM     34  H   UNL     1      36.449 -20.643 -20.080  0.00  0.00    +0.188 HD
ENDBRANCH  27  31
ENDBRANCH   3  19
TORSDOF 4
ENDMDL
MODEL 6
REMARK VINA RESULT:     -11.2      6.128     10.396
REMARK  Name = 447731
REMARK  4 active torsions:
REMARK  status: ('A' for Active; 'I' for Inactive)
REMARK    1  A    between atoms: N_2  and  C_13
REMARK    2  A    between atoms: C_3  and  C_19
REMARK    3  A    between atoms: C_6  and  C_17
REMARK    4  A    between atoms: C_27  and  C_31
REMARK                            x       y       z     vdW  Elec       q    Type
REMARK                         _______ _______ _______ _____ _____    ______ ____
ROOT
ATOM      1  O   UNL     1      30.864 -11.342 -21.192  0.00  0.00    -0.270 OA
ATOM      2  N   UNL     1      32.650 -10.495 -22.466  0.00  0.00    -0.280 N 
ATOM      3  C   UNL     1      31.953 -11.470 -21.741  0.00  0.00    +0.249 C 
ATOM      4  H   UNL     1      33.517 -10.773 -22.841  0.00  0.00    +0.155 HD
ENDROOT
BRANCH   2  13
ATOM      5  N   UNL     1      32.179  -4.154 -23.524  0.00  0.00    +0.387 N 
ATOM      6  C   UNL     1      33.867  -5.910 -23.940  0.00  0.00    +0.001 C 
ATOM      7  C   UNL     1      32.842  -6.929 -23.464  0.00  0.00    -0.029 C 
ATOM      8  C   UNL     1      33.200  -4.621 -24.460  0.00  0.00    -0.077 C 
ATOM      9  C   UNL     1      31.515  -6.528 -23.212  0.00  0.00    -0.048 C 
ATOM     10  C   UNL     1      31.070  -5.111 -23.477  0.00  0.00    -0.055 C 
ATOM     11  C   UNL     1      33.208  -8.257 -23.189  0.00  0.00    +0.010 C 
ATOM     12  C   UNL     1      30.575  -7.464 -22.755  0.00  0.00    -0.005 C 
ATOM     13  C   UNL     1      32.266  -9.177 -22.722  0.00  0.00    +0.050 C 
ATOM     14  C   UNL     1      30.950  -8.782 -22.511  0.00  0.00    +0.014 C 
ATOM     15  H   UNL     1      31.829  -3.246 -23.830  0.00  0.00    -0.084 HD
ATOM     16  H   UNL     1      32.590  -4.071 -22.594  0.00  0.00    -0.084 HD
BRANCH   6  17
ATOM     17  C   UNL     1      34.808  -6.445 -25.026  0.00  0.00    +0.002 C 
ATOM     18  C   UNL     1      35.280  -5.332 -25.936  0.00  0.00    +0.000 C 
ENDBRANCH   6  17
ENDBRANCH   2  13
BRANCH   3  19
ATOM     19  C   UNL     1      32.639 -12.783 -21.618  0.00  0.00    +0.054 C 
ATOM     20  C   UNL     1      33.846 -14.594 -22.644  0.00  0.00    +0.000 C 
ATOM     21  C   UNL     1      33.920 -15.236 -21.385  0.00  0.00    +0.000 C 
ATOM     22  C   UNL     1      33.194 -13.353 -22.744  0.00  0.00    +0.005 C 
ATOM     23  C   UNL     1      32.697 -13.387 -20.382  0.00  0.00    +0.005 C 
ATOM     24  C   UNL     1      33.340 -14.619 -20.264  0.00  0.00    +0.000 C 
ATOM     25  C   UNL     1      34.570 -16.477 -21.283  0.00  0.00    +0.003 C 
ATOM     26  C   UNL     1      34.424 -15.211 -23.764  0.00  0.00    +0.000 C 
ATOM     27  C   UNL     1      35.140 -17.076 -22.408  0.00  0.00    +0.031 C 
ATOM     28  C   UNL     1      35.067 -16.443 -23.646  0.00  0.00    +0.003 C 
BRANCH  27  31
ATOM     29  N   UNL     1      37.194 -18.445 -22.145  0.00  0.00    -0.343 N 
ATOM     30  N   UNL     1      35.104 -19.476 -22.313  0.00  0.00    -0.285 NA
ATOM     31  C   UNL     1      35.810 -18.360 -22.286  0.00  0.00    +0.117 C 
ATOM     32  H   UNL     1      37.627 -19.325 -22.064  0.00  0.00    +0.144 HD
ATOM     33  H   UNL     1      37.738 -17.625 -22.125  0.00  0.00    +0.144 HD
ATOM     34  H   UNL     1      35.556 -20.347 -22.232  0.00  0.00    +0.188 HD
ENDBRANCH  27  31
ENDBRANCH   3  19
TORSDOF 4
ENDMDL
MODEL 7
REMARK VINA RESULT:     -10.7      6.482     10.979
REMARK  Name = 447731
REMARK  4 active torsions:
REMARK  status: ('A' for Active; 'I' for Inactive)
REMARK    1  A    between atoms: N_2  and  C_13
REMARK    2  A    between atoms: C_3  and  C_19
REMARK    3  A    between atoms: C_6  and  C_17
REMARK    4  A    between atoms: C_27  and  C_31
REMARK                            x       y       z     vdW  Elec       q    Type
REMARK                         _______ _______ _______ _____ _____    ______ ____
ROOT
ATOM      1  O   UNL     1      31.505 -10.922 -21.227  0.00  0.00    -0.270 OA
ATOM      2  N   UNL     1      32.754  -9.840 -22.901  0.00  0.00    -0.280 N 
ATOM      3  C   UNL     1      32.346 -10.929 -22.120  0.00  0.00    +0.249 C 
ATOM      4  H   UNL     1      33.445 -10.027 -23.576  0.00  0.00    +0.155 HD
ENDROOT
BRANCH   2  13
ATOM      5  N   UNL     1      31.875  -3.457 -23.073  0.00  0.00    +0.387 N 
ATOM      6  C   UNL     1      33.179  -5.112 -24.363  0.00  0.00    +0.001 C 
ATOM      7  C   UNL     1      32.482  -6.202 -23.562  0.00  0.00    -0.029 C 
ATOM      8  C   UNL     1      32.352  -3.811 -24.408  0.00  0.00    -0.077 C 
ATOM      9  C   UNL     1      31.418  -5.870 -22.699  0.00  0.00    -0.048 C 
ATOM     10  C   UNL     1      30.907  -4.454 -22.609  0.00  0.00    -0.055 C 
ATOM     11  C   UNL     1      32.928  -7.534 -23.601  0.00  0.00    +0.010 C 
ATOM     12  C   UNL     1      30.787  -6.873 -21.948  0.00  0.00    -0.005 C 
ATOM     13  C   UNL     1      32.300  -8.521 -22.838  0.00  0.00    +0.050 C 
ATOM     14  C   UNL     1      31.228  -8.192 -22.017  0.00  0.00    +0.014 C 
ATOM     15  H   UNL     1      31.427  -2.541 -23.106  0.00  0.00    -0.084 HD
ATOM     16  H   UNL     1      32.666  -3.433 -22.429  0.00  0.00    -0.084 HD
BRANCH   6  17
ATOM     17  C   UNL     1      33.517  -5.525 -25.800  0.00  0.00    +0.002 C 
ATOM     18  C   UNL     1      34.913  -5.084 -26.181  0.00  0.00    +0.000 C 
ENDBRANCH   6  17
ENDBRANCH   2  13
BRANCH   3  19
ATOM     19  C   UNL     1      33.040 -12.213 -22.406  0.00  0.00    +0.054 C 
ATOM     20  C   UNL     1      33.810 -14.363 -21.650  0.00  0.00    +0.000 C 
ATOM     21  C   UNL     1      34.335 -14.610 -22.942  0.00  0.00    +0.000 C 
ATOM     22  C   UNL     1      33.157 -13.145 -21.396  0.00  0.00    +0.005 C 
ATOM     23  C   UNL     1      33.541 -12.428 -23.669  0.00  0.00    +0.005 C 
ATOM     24  C   UNL     1      34.192 -13.632 -23.940  0.00  0.00    +0.000 C 
ATOM     25  C   UNL     1      34.988 -15.827 -23.196  0.00  0.00    +0.003 C 
ATOM     26  C   UNL     1      33.953 -15.340 -20.653  0.00  0.00    +0.000 C 
ATOM     27  C   UNL     1      35.121 -16.787 -22.193  0.00  0.00    +0.031 C 
ATOM     28  C   UNL     1      34.604 -16.543 -20.923  0.00  0.00    +0.003 C 
BRANCH  27  31
ATOM     29  N   UNL     1      37.114 -18.262 -22.065  0.00  0.00    -0.343 N 
ATOM     30  N   UNL     1      35.170 -18.998 -23.129  0.00  0.00    -0.285 NA
ATOM     31  C   UNL     1      35.800 -18.042 -22.473  0.00  0.00    +0.117 C 
ATOM     32  H   UNL     1      37.555 -19.119 -22.265  0.00  0.00    +0.144 HD
ATOM     33  H   UNL     1      37.602 -17.560 -21.576  0.00  0.00    +0.144 HD
ATOM     34  H   UNL     1      35.628 -19.849 -23.320  0.00  0.00    +0.188 HD
ENDBRANCH  27  31
ENDBRANCH   3  19
TORSDOF 4
ENDMDL
MODEL 8
REMARK VINA RESULT:     -10.7      6.927     14.224
REMARK  Name = 447731
REMARK  4 active torsions:
REMARK  status: ('A' for Active; 'I' for Inactive)
REMARK    1  A    between atoms: N_2  and  C_13
REMARK    2  A    between atoms: C_3  and  C_19
REMARK    3  A    between atoms: C_6  and  C_17
REMARK    4  A    between atoms: C_27  and  C_31
REMARK                            x       y       z     vdW  Elec       q    Type
REMARK                         _______ _______ _______ _____ _____    ______ ____
ROOT
ATOM      1  O   UNL     1      32.169 -10.969 -21.794  0.00  0.00    -0.270 OA
ATOM      2  N   UNL     1      33.601 -11.115 -23.654  0.00  0.00    -0.280 N 
ATOM      3  C   UNL     1      32.802 -10.456 -22.710  0.00  0.00    +0.249 C 
ATOM      4  H   UNL     1      34.040 -10.542 -24.324  0.00  0.00    +0.155 HD
ENDROOT
BRANCH   2  13
ATOM      5  N   UNL     1      35.452 -17.258 -23.037  0.00  0.00    +0.387 N 
ATOM      6  C   UNL     1      34.950 -15.385 -21.505  0.00  0.00    +0.001 C 
ATOM      7  C   UNL     1      34.488 -14.591 -22.718  0.00  0.00    -0.029 C 
ATOM      8  C   UNL     1      34.866 -16.906 -21.745  0.00  0.00    -0.077 C 
ATOM      9  C   UNL     1      34.376 -15.224 -23.973  0.00  0.00    -0.048 C 
ATOM     10  C   UNL     1      34.639 -16.701 -24.121  0.00  0.00    -0.055 C 
ATOM     11  C   UNL     1      34.243 -13.210 -22.636  0.00  0.00    +0.010 C 
ATOM     12  C   UNL     1      33.966 -14.487 -25.094  0.00  0.00    -0.005 C 
ATOM     13  C   UNL     1      33.849 -12.485 -23.762  0.00  0.00    +0.050 C 
ATOM     14  C   UNL     1      33.705 -13.124 -24.988  0.00  0.00    +0.014 C 
ATOM     15  H   UNL     1      35.486 -18.274 -23.127  0.00  0.00    -0.084 HD
ATOM     16  H   UNL     1      36.395 -16.874 -23.093  0.00  0.00    -0.084 HD
BRANCH   6  17
ATOM     17  C   UNL     1      34.183 -15.050 -20.221  0.00  0.00    +0.002 C 
ATOM     18  C   UNL     1      32.692 -14.997 -20.473  0.00  0.00    +0.000 C 
ENDBRANCH   6  17
ENDBRANCH   2  13
BRANCH   3  19
ATOM     19  C   UNL     1      32.710  -8.981 -22.873  0.00  0.00    +0.054 C 
ATOM     20  C   UNL     1      31.507  -6.929 -22.510  0.00  0.00    +0.000 C 
ATOM     21  C   UNL     1      32.539  -6.226 -23.177  0.00  0.00    +0.000 C 
ATOM     22  C   UNL     1      31.609  -8.323 -22.365  0.00  0.00    +0.005 C 
ATOM     23  C   UNL     1      33.726  -8.321 -23.525  0.00  0.00    +0.005 C 
ATOM     24  C   UNL     1      33.642  -6.937 -23.679  0.00  0.00    +0.000 C 
ATOM     25  C   UNL     1      32.437  -4.833 -23.324  0.00  0.00    +0.003 C 
ATOM     26  C   UNL     1      30.405  -6.219 -22.010  0.00  0.00    +0.000 C 
ATOM     27  C   UNL     1      31.335  -4.143 -22.820  0.00  0.00    +0.031 C 
ATOM     28  C   UNL     1      30.320  -4.836 -22.164  0.00  0.00    +0.003 C 
BRANCH  27  31
ATOM     29  N   UNL     1      30.312  -1.950 -22.266  0.00  0.00    -0.343 N 
ATOM     30  N   UNL     1      32.054  -2.079 -23.817  0.00  0.00    -0.285 NA
ATOM     31  C   UNL     1      31.244  -2.701 -22.979  0.00  0.00    +0.117 C 
ATOM     32  H   UNL     1      30.268  -0.974 -22.389  0.00  0.00    +0.144 HD
ATOM     33  H   UNL     1      29.697  -2.395 -21.639  0.00  0.00    +0.144 HD
ATOM     34  H   UNL     1      31.994  -1.103 -23.927  0.00  0.00    +0.188 HD
ENDBRANCH  27  31
ENDBRANCH   3  19
TORSDOF 4
ENDMDL
MODEL 9
REMARK VINA RESULT:     -10.6      2.165      9.963
REMARK  Name = 447731
REMARK  4 active torsions:
REMARK  status: ('A' for Active; 'I' for Inactive)
REMARK    1  A    between atoms: N_2  and  C_13
REMARK    2  A    between atoms: C_3  and  C_19
REMARK    3  A    between atoms: C_6  and  C_17
REMARK    4  A    between atoms: C_27  and  C_31
REMARK                            x       y       z     vdW  Elec       q    Type
REMARK                         _______ _______ _______ _____ _____    ______ ____
ROOT
ATOM      1  O   UNL     1      34.314 -23.376 -17.749  0.00  0.00    -0.270 OA
ATOM      2  N   UNL     1      36.111 -22.070 -16.977  0.00  0.00    -0.280 N 
ATOM      3  C   UNL     1      35.060 -22.406 -17.840  0.00  0.00    +0.249 C 
ATOM      4  H   UNL     1      36.610 -21.251 -17.203  0.00  0.00    +0.155 HD
ENDROOT
BRANCH   2  13
ATOM      5  N   UNL     1      37.000 -24.699 -11.160  0.00  0.00    +0.387 N 
ATOM      6  C   UNL     1      35.060 -24.036 -12.539  0.00  0.00    +0.001 C 
ATOM      7  C   UNL     1      36.035 -23.742 -13.669  0.00  0.00    -0.029 C 
ATOM      8  C   UNL     1      35.633 -25.055 -11.533  0.00  0.00    -0.077 C 
ATOM      9  C   UNL     1      37.393 -24.099 -13.538  0.00  0.00    -0.048 C 
ATOM     10  C   UNL     1      37.886 -24.837 -12.319  0.00  0.00    -0.055 C 
ATOM     11  C   UNL     1      35.630 -23.046 -14.820  0.00  0.00    +0.010 C 
ATOM     12  C   UNL     1      38.295 -23.812 -14.574  0.00  0.00    -0.005 C 
ATOM     13  C   UNL     1      36.540 -22.753 -15.838  0.00  0.00    +0.050 C 
ATOM     14  C   UNL     1      37.869 -23.141 -15.717  0.00  0.00    +0.014 C 
ATOM     15  H   UNL     1      37.320 -25.318 -10.415  0.00  0.00    -0.084 HD
ATOM     16  H   UNL     1      37.019 -23.731 -10.837  0.00  0.00    -0.084 HD
BRANCH   6  17
ATOM     17  C   UNL     1      33.694 -24.540 -13.019  0.00  0.00    +0.002 C 
ATOM     18  C   UNL     1      32.683 -23.415 -13.067  0.00  0.00    +0.000 C 
ENDBRANCH   6  17
ENDBRANCH   2  13
BRANCH   3  19
ATOM     19  C   UNL     1      34.864 -21.489 -18.993  0.00  0.00    +0.054 C 
ATOM     20  C   UNL     1      35.790 -19.963 -20.605  0.00  0.00    +0.000 C 
ATOM     21  C   UNL     1      34.496 -19.777 -21.148  0.00  0.00    +0.000 C 
ATOM     22  C   UNL     1      35.959 -20.833 -19.515  0.00  0.00    +0.005 C 
ATOM     23  C   UNL     1      33.596 -21.326 -19.503  0.00  0.00    +0.005 C 
ATOM     24  C   UNL     1      33.409 -20.466 -20.584  0.00  0.00    +0.000 C 
ATOM     25  C   UNL     1      34.326 -18.907 -22.237  0.00  0.00    +0.003 C 
ATOM     26  C   UNL     1      36.876 -19.274 -21.168  0.00  0.00    +0.000 C 
ATOM     27  C   UNL     1      35.417 -18.230 -22.784  0.00  0.00    +0.031 C 
ATOM     28  C   UNL     1      36.690 -18.414 -22.250  0.00  0.00    +0.003 C 
BRANCH  27  31
ATOM     29  N   UNL     1      35.689 -16.019 -23.880  0.00  0.00    -0.343 N 
ATOM     30  N   UNL     1      34.596 -17.759 -24.992  0.00  0.00    -0.285 NA
ATOM     31  C   UNL     1      35.225 -17.333 -23.912  0.00  0.00    +0.117 C 
ATOM     32  H   UNL     1      35.548 -15.429 -24.655  0.00  0.00    +0.144 HD
ATOM     33  H   UNL     1      36.158 -15.681 -23.083  0.00  0.00    +0.144 HD
ATOM     34  H   UNL     1      34.464 -17.153 -25.757  0.00  0.00    +0.188 HD
ENDBRANCH  27  31
ENDBRANCH   3  19
TORSDOF 4
ENDMDL
