MODEL 1
REMARK VINA RESULT:     -12.1      0.000      0.000
REMARK  Name = 25025505
REMARK  6 active torsions:
REMARK  status: ('A' for Active; 'I' for Inactive)
REMARK    1  A    between atoms: C_3  and  C_9
REMARK    2  A    between atoms: C_4  and  C_20
REMARK    3  A    between atoms: C_17  and  C_18
REMARK    4  A    between atoms: C_20  and  O_21
REMARK    5  A    between atoms: O_21  and  C_22
REMARK    6  A    between atoms: C_25  and  N_28
REMARK                            x       y       z     vdW  Elec       q    Type
REMARK                         _______ _______ _______ _____ _____    ______ ____
ROOT
ATOM      1  S   UNL     1      34.500 -16.211 -24.716  0.00  0.00    -0.079 S 
ATOM      2  N   UNL     1      34.578 -16.002 -22.141  0.00  0.00    -0.404 NA
ATOM      3  C   UNL     1      34.173 -15.402 -23.237  0.00  0.00    +0.134 C 
ATOM      4  C   UNL     1      35.194 -17.190 -22.483  0.00  0.00    +0.142 C 
ATOM      5  C   UNL     1      35.248 -17.475 -23.831  0.00  0.00    +0.122 C 
ENDROOT
BRANCH   3   9
ATOM      6  N   UNL     1      33.086 -11.261 -22.669  0.00  0.00    -0.253 N 
ATOM      7  N   UNL     1      33.609  -9.036 -23.155  0.00  0.00    -0.203 NA
ATOM      8  N   UNL     1      31.934  -9.589 -21.513  0.00  0.00    -0.181 NA
ATOM      9  C   UNL     1      33.451 -14.068 -23.270  0.00  0.00    +0.062 C 
ATOM     10  C   UNL     1      33.058 -13.589 -21.864  0.00  0.00    +0.030 C 
ATOM     11  C   UNL     1      34.277 -12.980 -23.971  0.00  0.00    +0.030 C 
ATOM     12  C   UNL     1      32.312 -12.255 -21.917  0.00  0.00    +0.102 C 
ATOM     13  C   UNL     1      33.520 -11.653 -24.017  0.00  0.00    +0.102 C 
ATOM     14  C   UNL     1      32.866  -9.898 -22.435  0.00  0.00    +0.090 C 
ATOM     15  C   UNL     1      33.372  -7.732 -22.904  0.00  0.00    +0.161 C 
ATOM     16  C   UNL     1      31.749  -8.267 -21.312  0.00  0.00    +0.104 C 
ATOM     17  C   UNL     1      32.446  -7.284 -21.984  0.00  0.00    +0.001 C 
BRANCH  17  18
ATOM     18  C   UNL     1      32.214  -5.841 -21.737  0.00  0.00    +0.026 C 
ATOM     19  C   UNL     1      30.740  -5.514 -21.492  0.00  0.00    +0.005 C 
ENDBRANCH  17  18
ENDBRANCH   3   9
BRANCH   4  20
ATOM     20  C   UNL     1      35.732 -18.038 -21.401  0.00  0.00    +0.260 C 
BRANCH  20  21
ATOM     21  O   UNL     1      35.516 -19.415 -21.707  0.00  0.00    -0.468 OA
BRANCH  21  22
ATOM     22  C   UNL     1      34.963 -20.182 -20.719  0.00  0.00    +0.139 C 
ATOM     23  C   UNL     1      35.780 -20.968 -19.905  0.00  0.00    +0.038 C 
ATOM     24  C   UNL     1      33.582 -20.180 -20.524  0.00  0.00    +0.038 C 
ATOM     25  C   UNL     1      33.835 -21.748 -18.704  0.00  0.00    +0.078 C 
ATOM     26  C   UNL     1      35.216 -21.751 -18.898  0.00  0.00    +0.020 C 
ATOM     27  C   UNL     1      33.018 -20.962 -19.517  0.00  0.00    +0.020 C 
BRANCH  25  28
ATOM     28  N   UNL     1      33.276 -22.524 -17.705  0.00  0.00    -0.149 N 
ATOM     29  N   UNL     1      31.963 -22.514 -17.440  0.00  0.00    -0.048 NA
ATOM     30  N   UNL     1      33.015 -23.919 -16.066  0.00  0.00    -0.107 NA
ATOM     31  N   UNL     1      31.808 -23.369 -16.436  0.00  0.00    -0.024 NA
ATOM     32  C   UNL     1      33.909 -23.383 -16.864  0.00  0.00    +0.215 C 
ENDBRANCH  25  28
ENDBRANCH  21  22
ENDBRANCH  20  21
ENDBRANCH   4  20
TORSDOF 6
ENDMDL
MODEL 2
REMARK VINA RESULT:     -12.0      6.122      9.808
REMARK  Name = 25025505
REMARK  6 active torsions:
REMARK  status: ('A' for Active; 'I' for Inactive)
REMARK    1  A    between atoms: C_3  and  C_9
REMARK    2  A    between atoms: C_4  and  C_20
REMARK    3  A    between atoms: C_17  and  C_18
REMARK    4  A    between atoms: C_20  and  O_21
REMARK    5  A    between atoms: O_21  and  C_22
REMARK    6  A    between atoms: C_25  and  N_28
REMARK                            x       y       z     vdW  Elec       q    Type
REMARK                         _______ _______ _______ _____ _____    ______ ____
ROOT
ATOM      1  S   UNL     1      36.569 -23.663 -15.008  0.00  0.00    -0.079 S 
ATOM      2  N   UNL     1      34.016 -23.464 -15.354  0.00  0.00    -0.404 NA
ATOM      3  C   UNL     1      35.178 -23.304 -15.947  0.00  0.00    +0.134 C 
ATOM      4  C   UNL     1      34.230 -23.901 -14.062  0.00  0.00    +0.142 C 
ATOM      5  C   UNL     1      35.548 -24.068 -13.692  0.00  0.00    +0.122 C 
ENDROOT
BRANCH   3   9
ATOM      6  N   UNL     1      35.310 -20.905 -19.535  0.00  0.00    -0.253 N 
ATOM      7  N   UNL     1      36.354 -19.133 -20.643  0.00  0.00    -0.203 NA
ATOM      8  N   UNL     1      34.338 -20.126 -21.512  0.00  0.00    -0.181 NA
ATOM      9  C   UNL     1      35.354 -22.834 -17.378  0.00  0.00    +0.062 C 
ATOM     10  C   UNL     1      34.035 -22.339 -17.991  0.00  0.00    +0.030 C 
ATOM     11  C   UNL     1      36.419 -21.734 -17.498  0.00  0.00    +0.030 C 
ATOM     12  C   UNL     1      34.226 -21.890 -19.440  0.00  0.00    +0.102 C 
ATOM     13  C   UNL     1      36.601 -21.294 -18.951  0.00  0.00    +0.102 C 
ATOM     14  C   UNL     1      35.336 -20.013 -20.615  0.00  0.00    +0.090 C 
ATOM     15  C   UNL     1      36.347 -18.288 -21.696  0.00  0.00    +0.161 C 
ATOM     16  C   UNL     1      34.393 -19.251 -22.538  0.00  0.00    +0.104 C 
ATOM     17  C   UNL     1      35.383 -18.300 -22.683  0.00  0.00    +0.001 C 
BRANCH  17  18
ATOM     18  C   UNL     1      35.411 -17.355 -23.824  0.00  0.00    +0.026 C 
ATOM     19  C   UNL     1      34.811 -15.992 -23.475  0.00  0.00    +0.005 C 
ENDBRANCH  17  18
ENDBRANCH   3   9
BRANCH   4  20
ATOM     20  C   UNL     1      33.055 -24.149 -13.201  0.00  0.00    +0.260 C 
BRANCH  20  21
ATOM     21  O   UNL     1      32.141 -25.022 -13.863  0.00  0.00    -0.468 OA
BRANCH  21  22
ATOM     22  C   UNL     1      31.001 -24.453 -14.359  0.00  0.00    +0.139 C 
ATOM     23  C   UNL     1      30.768 -23.088 -14.183  0.00  0.00    +0.038 C 
ATOM     24  C   UNL     1      30.070 -25.235 -15.042  0.00  0.00    +0.038 C 
ATOM     25  C   UNL     1      28.674 -23.292 -15.370  0.00  0.00    +0.078 C 
ATOM     26  C   UNL     1      29.604 -22.508 -14.688  0.00  0.00    +0.020 C 
ATOM     27  C   UNL     1      28.907 -24.656 -15.547  0.00  0.00    +0.020 C 
BRANCH  25  28
ATOM     28  N   UNL     1      27.520 -22.716 -15.871  0.00  0.00    -0.149 N 
ATOM     29  N   UNL     1      26.466 -22.430 -15.095  0.00  0.00    -0.048 NA
ATOM     30  N   UNL     1      26.049 -21.848 -17.206  0.00  0.00    -0.107 NA
ATOM     31  N   UNL     1      25.569 -21.899 -15.916  0.00  0.00    -0.024 NA
ATOM     32  C   UNL     1      27.258 -22.358 -17.155  0.00  0.00    +0.215 C 
ENDBRANCH  25  28
ENDBRANCH  21  22
ENDBRANCH  20  21
ENDBRANCH   4  20
TORSDOF 6
ENDMDL
MODEL 3
REMARK VINA RESULT:     -11.3      2.312      3.462
REMARK  Name = 25025505
REMARK  6 active torsions:
REMARK  status: ('A' for Active; 'I' for Inactive)
REMARK    1  A    between atoms: C_3  and  C_9
REMARK    2  A    between atoms: C_4  and  C_20
REMARK    3  A    between atoms: C_17  and  C_18
REMARK    4  A    between atoms: C_20  and  O_21
REMARK    5  A    between atoms: O_21  and  C_22
REMARK    6  A    between atoms: C_25  and  N_28
REMARK                            x       y       z     vdW  Elec       q    Type
REMARK                         _______ _______ _______ _____ _____    ______ ____
ROOT
ATOM      1  S   UNL     1      35.262 -18.099 -23.297  0.00  0.00    -0.079 S 
ATOM      2  N   UNL     1      34.569 -18.182 -20.808  0.00  0.00    -0.404 NA
ATOM      3  C   UNL     1      34.822 -17.368 -21.808  0.00  0.00    +0.134 C 
ATOM      4  C   UNL     1      34.733 -19.484 -21.240  0.00  0.00    +0.142 C 
ATOM      5  C   UNL     1      35.107 -19.639 -22.559  0.00  0.00    +0.122 C 
ENDROOT
BRANCH   3   9
ATOM      6  N   UNL     1      33.508 -13.260 -22.055  0.00  0.00    -0.253 N 
ATOM      7  N   UNL     1      32.004 -11.657 -21.266  0.00  0.00    -0.203 NA
ATOM      8  N   UNL     1      33.424 -11.203 -23.159  0.00  0.00    -0.181 NA
ATOM      9  C   UNL     1      34.748 -15.855 -21.723  0.00  0.00    +0.062 C 
ATOM     10  C   UNL     1      34.598 -15.204 -23.106  0.00  0.00    +0.030 C 
ATOM     11  C   UNL     1      33.608 -15.383 -20.807  0.00  0.00    +0.030 C 
ATOM     12  C   UNL     1      34.547 -13.679 -23.003  0.00  0.00    +0.102 C 
ATOM     13  C   UNL     1      33.569 -13.857 -20.714  0.00  0.00    +0.102 C 
ATOM     14  C   UNL     1      32.953 -11.980 -22.165  0.00  0.00    +0.090 C 
ATOM     15  C   UNL     1      31.489 -10.417 -21.402  0.00  0.00    +0.161 C 
ATOM     16  C   UNL     1      32.866  -9.977 -23.236  0.00  0.00    +0.104 C 
ATOM     17  C   UNL     1      31.885  -9.525 -22.377  0.00  0.00    +0.001 C 
BRANCH  17  18
ATOM     18  C   UNL     1      31.295  -8.170 -22.493  0.00  0.00    +0.026 C 
ATOM     19  C   UNL     1      32.345  -7.092 -22.769  0.00  0.00    +0.005 C 
ENDBRANCH  17  18
ENDBRANCH   3   9
BRANCH   4  20
ATOM     20  C   UNL     1      34.500 -20.577 -20.276  0.00  0.00    +0.260 C 
BRANCH  20  21
ATOM     21  O   UNL     1      35.733 -21.228 -19.970  0.00  0.00    -0.468 OA
BRANCH  21  22
ATOM     22  C   UNL     1      35.886 -21.678 -18.688  0.00  0.00    +0.139 C 
ATOM     23  C   UNL     1      34.851 -22.375 -18.063  0.00  0.00    +0.038 C 
ATOM     24  C   UNL     1      37.077 -21.441 -18.003  0.00  0.00    +0.038 C 
ATOM     25  C   UNL     1      36.198 -22.595 -16.072  0.00  0.00    +0.078 C 
ATOM     26  C   UNL     1      35.007 -22.833 -16.755  0.00  0.00    +0.020 C 
ATOM     27  C   UNL     1      37.234 -21.899 -16.695  0.00  0.00    +0.020 C 
BRANCH  25  28
ATOM     28  N   UNL     1      36.353 -23.050 -14.774  0.00  0.00    -0.149 N 
ATOM     29  N   UNL     1      37.542 -23.065 -14.157  0.00  0.00    -0.048 NA
ATOM     30  N   UNL     1      35.959 -23.855 -12.800  0.00  0.00    -0.107 NA
ATOM     31  N   UNL     1      37.296 -23.559 -12.950  0.00  0.00    -0.024 NA
ATOM     32  C   UNL     1      35.395 -23.532 -13.940  0.00  0.00    +0.215 C 
ENDBRANCH  25  28
ENDBRANCH  21  22
ENDBRANCH  20  21
ENDBRANCH   4  20
TORSDOF 6
ENDMDL
MODEL 4
REMARK VINA RESULT:     -11.1      2.215     12.342
REMARK  Name = 25025505
REMARK  6 active torsions:
REMARK  status: ('A' for Active; 'I' for Inactive)
REMARK    1  A    between atoms: C_3  and  C_9
REMARK    2  A    between atoms: C_4  and  C_20
REMARK    3  A    between atoms: C_17  and  C_18
REMARK    4  A    between atoms: C_20  and  O_21
REMARK    5  A    between atoms: O_21  and  C_22
REMARK    6  A    between atoms: C_25  and  N_28
REMARK                            x       y       z     vdW  Elec       q    Type
REMARK                         _______ _______ _______ _____ _____    ______ ____
ROOT
ATOM      1  S   UNL     1      35.248 -19.698 -23.099  0.00  0.00    -0.079 S 
ATOM      2  N   UNL     1      35.080 -18.184 -21.011  0.00  0.00    -0.404 NA
ATOM      3  C   UNL     1      35.234 -19.428 -21.404  0.00  0.00    +0.134 C 
ATOM      4  C   UNL     1      34.963 -17.375 -22.124  0.00  0.00    +0.142 C 
ATOM      5  C   UNL     1      35.030 -18.015 -23.344  0.00  0.00    +0.122 C 
ENDROOT
BRANCH   3   9
ATOM      6  N   UNL     1      35.442 -21.943 -17.899  0.00  0.00    -0.253 N 
ATOM      7  N   UNL     1      34.252 -22.915 -16.139  0.00  0.00    -0.203 NA
ATOM      8  N   UNL     1      36.660 -22.990 -16.202  0.00  0.00    -0.181 NA
ATOM      9  C   UNL     1      35.396 -20.611 -20.468  0.00  0.00    +0.062 C 
ATOM     10  C   UNL     1      36.550 -20.408 -19.475  0.00  0.00    +0.030 C 
ATOM     11  C   UNL     1      34.104 -20.919 -19.697  0.00  0.00    +0.030 C 
ATOM     12  C   UNL     1      36.714 -21.618 -18.554  0.00  0.00    +0.102 C 
ATOM     13  C   UNL     1      34.281 -22.130 -18.780  0.00  0.00    +0.102 C 
ATOM     14  C   UNL     1      35.452 -22.650 -16.690  0.00  0.00    +0.090 C 
ATOM     15  C   UNL     1      34.299 -23.595 -14.974  0.00  0.00    +0.161 C 
ATOM     16  C   UNL     1      36.632 -23.668 -15.036  0.00  0.00    +0.104 C 
ATOM     17  C   UNL     1      35.471 -24.002 -14.370  0.00  0.00    +0.001 C 
BRANCH  17  18
ATOM     18  C   UNL     1      35.480 -24.749 -13.089  0.00  0.00    +0.026 C 
ATOM     19  C   UNL     1      35.809 -23.858 -11.890  0.00  0.00    +0.005 C 
ENDBRANCH  17  18
ENDBRANCH   3   9
BRANCH   4  20
ATOM     20  C   UNL     1      34.780 -15.924 -21.921  0.00  0.00    +0.260 C 
BRANCH  20  21
ATOM     21  O   UNL     1      33.959 -15.386 -22.957  0.00  0.00    -0.468 OA
BRANCH  21  22
ATOM     22  C   UNL     1      33.615 -14.068 -22.843  0.00  0.00    +0.139 C 
ATOM     23  C   UNL     1      34.171 -13.123 -23.706  0.00  0.00    +0.038 C 
ATOM     24  C   UNL     1      32.706 -13.666 -21.864  0.00  0.00    +0.038 C 
ATOM     25  C   UNL     1      32.912 -11.378 -22.610  0.00  0.00    +0.078 C 
ATOM     26  C   UNL     1      33.820 -11.778 -23.589  0.00  0.00    +0.020 C 
ATOM     27  C   UNL     1      32.354 -12.322 -21.746  0.00  0.00    +0.020 C 
BRANCH  25  28
ATOM     28  N   UNL     1      32.564 -10.044 -22.494  0.00  0.00    -0.149 N 
ATOM     29  N   UNL     1      33.233  -9.070 -23.125  0.00  0.00    -0.048 NA
ATOM     30  N   UNL     1      31.562  -8.206 -21.930  0.00  0.00    -0.107 NA
ATOM     31  N   UNL     1      32.617  -7.948 -22.777  0.00  0.00    -0.024 NA
ATOM     32  C   UNL     1      31.547  -9.508 -21.768  0.00  0.00    +0.215 C 
ENDBRANCH  25  28
ENDBRANCH  21  22
ENDBRANCH  20  21
ENDBRANCH   4  20
TORSDOF 6
ENDMDL
MODEL 5
REMARK VINA RESULT:     -10.6      4.573     13.370
REMARK  Name = 25025505
REMARK  6 active torsions:
REMARK  status: ('A' for Active; 'I' for Inactive)
REMARK    1  A    between atoms: C_3  and  C_9
REMARK    2  A    between atoms: C_4  and  C_20
REMARK    3  A    between atoms: C_17  and  C_18
REMARK    4  A    between atoms: C_20  and  O_21
REMARK    5  A    between atoms: O_21  and  C_22
REMARK    6  A    between atoms: C_25  and  N_28
REMARK                            x       y       z     vdW  Elec       q    Type
REMARK                         _______ _______ _______ _____ _____    ______ ____
ROOT
ATOM      1  S   UNL     1      32.046  -9.483 -19.838  0.00  0.00    -0.079 S 
ATOM      2  N   UNL     1      31.651  -9.108 -22.365  0.00  0.00    -0.404 NA
ATOM      3  C   UNL     1      31.899 -10.027 -21.459  0.00  0.00    +0.134 C 
ATOM      4  C   UNL     1      31.571  -7.878 -21.742  0.00  0.00    +0.142 C 
ATOM      5  C   UNL     1      31.757  -7.880 -20.376  0.00  0.00    +0.122 C 
ENDROOT
BRANCH   3   9
ATOM      6  N   UNL     1      33.491 -14.014 -21.933  0.00  0.00    -0.253 N 
ATOM      7  N   UNL     1      34.338 -15.903 -20.851  0.00  0.00    -0.203 NA
ATOM      8  N   UNL     1      34.448 -15.691 -23.249  0.00  0.00    -0.181 NA
ATOM      9  C   UNL     1      32.057 -11.507 -21.758  0.00  0.00    +0.062 C 
ATOM     10  C   UNL     1      33.095 -11.766 -22.859  0.00  0.00    +0.030 C 
ATOM     11  C   UNL     1      32.427 -12.313 -20.504  0.00  0.00    +0.030 C 
ATOM     12  C   UNL     1      33.226 -13.259 -23.163  0.00  0.00    +0.102 C 
ATOM     13  C   UNL     1      32.554 -13.803 -20.821  0.00  0.00    +0.102 C 
ATOM     14  C   UNL     1      34.121 -15.262 -22.015  0.00  0.00    +0.090 C 
ATOM     15  C   UNL     1      34.949 -17.101 -20.966  0.00  0.00    +0.161 C 
ATOM     16  C   UNL     1      35.055 -16.896 -23.290  0.00  0.00    +0.104 C 
ATOM     17  C   UNL     1      35.334 -17.653 -22.170  0.00  0.00    +0.001 C 
BRANCH  17  18
ATOM     18  C   UNL     1      36.003 -18.973 -22.255  0.00  0.00    +0.026 C 
ATOM     19  C   UNL     1      35.843 -19.798 -20.977  0.00  0.00    +0.005 C 
ENDBRANCH  17  18
ENDBRANCH   3   9
BRANCH   4  20
ATOM     20  C   UNL     1      31.298  -6.688 -22.573  0.00  0.00    +0.260 C 
BRANCH  20  21
ATOM     21  O   UNL     1      32.396  -5.780 -22.499  0.00  0.00    -0.468 OA
BRANCH  21  22
ATOM     22  C   UNL     1      33.060  -5.526 -23.667  0.00  0.00    +0.139 C 
ATOM     23  C   UNL     1      34.256  -6.189 -23.948  0.00  0.00    +0.038 C 
ATOM     24  C   UNL     1      32.544  -4.606 -24.578  0.00  0.00    +0.038 C 
ATOM     25  C   UNL     1      34.416  -5.009 -26.049  0.00  0.00    +0.078 C 
ATOM     26  C   UNL     1      34.934  -5.930 -25.139  0.00  0.00    +0.020 C 
ATOM     27  C   UNL     1      33.221  -4.346 -25.769  0.00  0.00    +0.020 C 
BRANCH  25  28
ATOM     28  N   UNL     1      35.089  -4.752 -27.231  0.00  0.00    -0.149 N 
ATOM     29  N   UNL     1      34.455  -4.369 -28.348  0.00  0.00    -0.048 NA
ATOM     30  N   UNL     1      36.650  -4.509 -28.716  0.00  0.00    -0.107 NA
ATOM     31  N   UNL     1      35.414  -4.222 -29.253  0.00  0.00    -0.024 NA
ATOM     32  C   UNL     1      36.425  -4.834 -27.464  0.00  0.00    +0.215 C 
ENDBRANCH  25  28
ENDBRANCH  21  22
ENDBRANCH  20  21
ENDBRANCH   4  20
TORSDOF 6
ENDMDL
MODEL 6
REMARK VINA RESULT:     -10.5      3.066      4.444
REMARK  Name = 25025505
REMARK  6 active torsions:
REMARK  status: ('A' for Active; 'I' for Inactive)
REMARK    1  A    between atoms: C_3  and  C_9
REMARK    2  A    between atoms: C_4  and  C_20
REMARK    3  A    between atoms: C_17  and  C_18
REMARK    4  A    between atoms: C_20  and  O_21
REMARK    5  A    between atoms: O_21  and  C_22
REMARK    6  A    between atoms: C_25  and  N_28
REMARK                            x       y       z     vdW  Elec       q    Type
REMARK                         _______ _______ _______ _____ _____    ______ ____
ROOT
ATOM      1  S   UNL     1      37.098 -18.292 -21.391  0.00  0.00    -0.079 S 
ATOM      2  N   UNL     1      34.906 -19.497 -20.740  0.00  0.00    -0.404 NA
ATOM      3  C   UNL     1      35.390 -18.387 -21.250  0.00  0.00    +0.134 C 
ATOM      4  C   UNL     1      35.954 -20.343 -20.435  0.00  0.00    +0.142 C 
ATOM      5  C   UNL     1      37.217 -19.864 -20.716  0.00  0.00    +0.122 C 
ENDROOT
BRANCH   3   9
ATOM      6  N   UNL     1      33.969 -14.419 -22.194  0.00  0.00    -0.253 N 
ATOM      7  N   UNL     1      34.239 -12.537 -23.551  0.00  0.00    -0.203 NA
ATOM      8  N   UNL     1      32.765 -12.493 -21.646  0.00  0.00    -0.181 NA
ATOM      9  C   UNL     1      34.545 -17.213 -21.710  0.00  0.00    +0.062 C 
ATOM     10  C   UNL     1      34.227 -16.245 -20.561  0.00  0.00    +0.030 C 
ATOM     11  C   UNL     1      35.205 -16.443 -22.863  0.00  0.00    +0.030 C 
ATOM     12  C   UNL     1      33.357 -15.081 -21.036  0.00  0.00    +0.102 C 
ATOM     13  C   UNL     1      34.325 -15.282 -23.328  0.00  0.00    +0.102 C 
ATOM     14  C   UNL     1      33.642 -13.087 -22.478  0.00  0.00    +0.090 C 
ATOM     15  C   UNL     1      33.902 -11.253 -23.795  0.00  0.00    +0.161 C 
ATOM     16  C   UNL     1      32.473 -11.211 -21.947  0.00  0.00    +0.104 C 
ATOM     17  C   UNL     1      33.017 -10.532 -23.019  0.00  0.00    +0.001 C 
BRANCH  17  18
ATOM     18  C   UNL     1      32.672  -9.122 -23.319  0.00  0.00    +0.026 C 
ATOM     19  C   UNL     1      31.572  -8.577 -22.406  0.00  0.00    +0.005 C 
ENDBRANCH  17  18
ENDBRANCH   3   9
BRANCH   4  20
ATOM     20  C   UNL     1      35.644 -21.660 -19.845  0.00  0.00    +0.260 C 
BRANCH  20  21
ATOM     21  O   UNL     1      35.051 -21.491 -18.559  0.00  0.00    -0.468 OA
BRANCH  21  22
ATOM     22  C   UNL     1      35.718 -22.041 -17.499  0.00  0.00    +0.139 C 
ATOM     23  C   UNL     1      35.048 -22.886 -16.614  0.00  0.00    +0.038 C 
ATOM     24  C   UNL     1      37.069 -21.757 -17.302  0.00  0.00    +0.038 C 
ATOM     25  C   UNL     1      37.080 -23.161 -15.338  0.00  0.00    +0.078 C 
ATOM     26  C   UNL     1      35.729 -23.446 -15.534  0.00  0.00    +0.020 C 
ATOM     27  C   UNL     1      37.751 -22.316 -16.222  0.00  0.00    +0.020 C 
BRANCH  25  28
ATOM     28  N   UNL     1      37.755 -23.717 -14.266  0.00  0.00    -0.149 N 
ATOM     29  N   UNL     1      37.712 -23.184 -13.037  0.00  0.00    -0.048 NA
ATOM     30  N   UNL     1      38.989 -25.012 -13.040  0.00  0.00    -0.107 NA
ATOM     31  N   UNL     1      38.468 -23.980 -12.291  0.00  0.00    -0.024 NA
ATOM     32  C   UNL     1      38.535 -24.830 -14.258  0.00  0.00    +0.215 C 
ENDBRANCH  25  28
ENDBRANCH  21  22
ENDBRANCH  20  21
ENDBRANCH   4  20
TORSDOF 6
ENDMDL
MODEL 7
REMARK VINA RESULT:     -10.5      1.219      2.057
REMARK  Name = 25025505
REMARK  6 active torsions:
REMARK  status: ('A' for Active; 'I' for Inactive)
REMARK    1  A    between atoms: C_3  and  C_9
REMARK    2  A    between atoms: C_4  and  C_20
REMARK    3  A    between atoms: C_17  and  C_18
REMARK    4  A    between atoms: C_20  and  O_21
REMARK    5  A    between atoms: O_21  and  C_22
REMARK    6  A    between atoms: C_25  and  N_28
REMARK                            x       y       z     vdW  Elec       q    Type
REMARK                         _______ _______ _______ _____ _____    ______ ____
ROOT
ATOM      1  S   UNL     1      33.838 -15.063 -24.855  0.00  0.00    -0.079 S 
ATOM      2  N   UNL     1      34.984 -15.467 -22.574  0.00  0.00    -0.404 NA
ATOM      3  C   UNL     1      34.404 -14.552 -23.318  0.00  0.00    +0.134 C 
ATOM      4  C   UNL     1      34.986 -16.665 -23.261  0.00  0.00    +0.142 C 
ATOM      5  C   UNL     1      34.410 -16.643 -24.513  0.00  0.00    +0.122 C 
ENDROOT
BRANCH   3   9
ATOM      6  N   UNL     1      33.015 -10.472 -23.027  0.00  0.00    -0.253 N 
ATOM      7  N   UNL     1      31.232  -9.068 -22.473  0.00  0.00    -0.203 NA
ATOM      8  N   UNL     1      33.202  -8.205 -23.558  0.00  0.00    -0.181 NA
ATOM      9  C   UNL     1      34.211 -13.105 -22.904  0.00  0.00    +0.062 C 
ATOM     10  C   UNL     1      34.524 -12.130 -24.048  0.00  0.00    +0.030 C 
ATOM     11  C   UNL     1      32.794 -12.838 -22.376  0.00  0.00    +0.030 C 
ATOM     12  C   UNL     1      34.347 -10.676 -23.608  0.00  0.00    +0.102 C 
ATOM     13  C   UNL     1      32.630 -11.382 -21.939  0.00  0.00    +0.102 C 
ATOM     14  C   UNL     1      32.457  -9.188 -23.018  0.00  0.00    +0.090 C 
ATOM     15  C   UNL     1      30.724  -7.818 -22.482  0.00  0.00    +0.161 C 
ATOM     16  C   UNL     1      32.634  -6.981 -23.534  0.00  0.00    +0.104 C 
ATOM     17  C   UNL     1      31.386  -6.726 -23.005  0.00  0.00    +0.001 C 
BRANCH  17  18
ATOM     18  C   UNL     1      30.794  -5.366 -22.996  0.00  0.00    +0.026 C 
ATOM     19  C   UNL     1      30.467  -4.875 -21.585  0.00  0.00    +0.005 C 
ENDBRANCH  17  18
ENDBRANCH   3   9
BRANCH   4  20
ATOM     20  C   UNL     1      35.593 -17.844 -22.612  0.00  0.00    +0.260 C 
BRANCH  20  21
ATOM     21  O   UNL     1      34.662 -18.925 -22.597  0.00  0.00    -0.468 OA
BRANCH  21  22
ATOM     22  C   UNL     1      34.664 -19.720 -21.484  0.00  0.00    +0.139 C 
ATOM     23  C   UNL     1      33.457 -20.107 -20.900  0.00  0.00    +0.038 C 
ATOM     24  C   UNL     1      35.872 -20.144 -20.931  0.00  0.00    +0.038 C 
ATOM     25  C   UNL     1      34.667 -21.339 -19.212  0.00  0.00    +0.078 C 
ATOM     26  C   UNL     1      33.459 -20.916 -19.764  0.00  0.00    +0.020 C 
ATOM     27  C   UNL     1      35.875 -20.954 -19.796  0.00  0.00    +0.020 C 
BRANCH  25  28
ATOM     28  N   UNL     1      34.670 -22.142 -18.086  0.00  0.00    -0.149 N 
ATOM     29  N   UNL     1      35.743 -22.263 -17.293  0.00  0.00    -0.048 NA
ATOM     30  N   UNL     1      34.068 -23.513 -16.517  0.00  0.00    -0.107 NA
ATOM     31  N   UNL     1      35.370 -23.102 -16.335  0.00  0.00    -0.024 NA
ATOM     32  C   UNL     1      33.654 -22.906 -17.605  0.00  0.00    +0.215 C 
ENDBRANCH  25  28
ENDBRANCH  21  22
ENDBRANCH  20  21
ENDBRANCH   4  20
TORSDOF 6
ENDMDL
MODEL 8
REMARK VINA RESULT:     -10.5      4.452      7.616
REMARK  Name = 25025505
REMARK  6 active torsions:
REMARK  status: ('A' for Active; 'I' for Inactive)
REMARK    1  A    between atoms: C_3  and  C_9
REMARK    2  A    between atoms: C_4  and  C_20
REMARK    3  A    between atoms: C_17  and  C_18
REMARK    4  A    between atoms: C_20  and  O_21
REMARK    5  A    between atoms: O_21  and  C_22
REMARK    6  A    between atoms: C_25  and  N_28
REMARK                            x       y       z     vdW  Elec       q    Type
REMARK                         _______ _______ _______ _____ _____    ______ ____
ROOT
ATOM      1  S   UNL     1      32.319  -7.881 -19.707  0.00  0.00    -0.079 S 
ATOM      2  N   UNL     1      32.349  -9.425 -21.779  0.00  0.00    -0.404 NA
ATOM      3  C   UNL     1      32.657  -8.221 -21.355  0.00  0.00    +0.134 C 
ATOM      4  C   UNL     1      31.804 -10.142 -20.732  0.00  0.00    +0.142 C 
ATOM      5  C   UNL     1      31.707  -9.473 -19.530  0.00  0.00    +0.122 C 
ENDROOT
BRANCH   3   9
ATOM      6  N   UNL     1      34.043  -5.879 -24.709  0.00  0.00    -0.253 N 
ATOM      7  N   UNL     1      33.427  -4.593 -26.560  0.00  0.00    -0.203 NA
ATOM      8  N   UNL     1      35.720  -5.242 -26.205  0.00  0.00    -0.181 NA
ATOM      9  C   UNL     1      33.280  -7.139 -22.218  0.00  0.00    +0.062 C 
ATOM     10  C   UNL     1      34.438  -7.677 -23.072  0.00  0.00    +0.030 C 
ATOM     11  C   UNL     1      32.246  -6.458 -23.126  0.00  0.00    +0.030 C 
ATOM     12  C   UNL     1      35.068  -6.571 -23.919  0.00  0.00    +0.102 C 
ATOM     13  C   UNL     1      32.888  -5.354 -23.967  0.00  0.00    +0.102 C 
ATOM     14  C   UNL     1      34.414  -5.206 -25.879  0.00  0.00    +0.090 C 
ATOM     15  C   UNL     1      33.820  -3.956 -27.683  0.00  0.00    +0.161 C 
ATOM     16  C   UNL     1      36.043  -4.585 -27.339  0.00  0.00    +0.104 C 
ATOM     17  C   UNL     1      35.126  -3.918 -28.126  0.00  0.00    +0.001 C 
BRANCH  17  18
ATOM     18  C   UNL     1      35.518  -3.206 -29.366  0.00  0.00    +0.026 C 
ATOM     19  C   UNL     1      36.826  -3.732 -29.959  0.00  0.00    +0.005 C 
ENDBRANCH  17  18
ENDBRANCH   3   9
BRANCH   4  20
ATOM     20  C   UNL     1      31.380 -11.534 -20.980  0.00  0.00    +0.260 C 
BRANCH  20  21
ATOM     21  O   UNL     1      31.971 -12.017 -22.186  0.00  0.00    -0.468 OA
BRANCH  21  22
ATOM     22  C   UNL     1      32.704 -13.167 -22.091  0.00  0.00    +0.139 C 
ATOM     23  C   UNL     1      32.687 -13.911 -20.911  0.00  0.00    +0.038 C 
ATOM     24  C   UNL     1      33.468 -13.599 -23.175  0.00  0.00    +0.038 C 
ATOM     25  C   UNL     1      34.199 -15.514 -21.898  0.00  0.00    +0.078 C 
ATOM     26  C   UNL     1      33.435 -15.084 -20.814  0.00  0.00    +0.020 C 
ATOM     27  C   UNL     1      34.216 -14.772 -23.080  0.00  0.00    +0.020 C 
BRANCH  25  28
ATOM     28  N   UNL     1      34.941 -16.678 -21.803  0.00  0.00    -0.149 N 
ATOM     29  N   UNL     1      35.319 -17.194 -20.625  0.00  0.00    -0.048 NA
ATOM     30  N   UNL     1      36.056 -18.471 -22.297  0.00  0.00    -0.107 NA
ATOM     31  N   UNL     1      36.000 -18.290 -20.933  0.00  0.00    -0.024 NA
ATOM     32  C   UNL     1      35.394 -17.463 -22.816  0.00  0.00    +0.215 C 
ENDBRANCH  25  28
ENDBRANCH  21  22
ENDBRANCH  20  21
ENDBRANCH   4  20
TORSDOF 6
ENDMDL
MODEL 9
REMARK VINA RESULT:     -10.2      5.372      8.386
REMARK  Name = 25025505
REMARK  6 active torsions:
REMARK  status: ('A' for Active; 'I' for Inactive)
REMARK    1  A    between atoms: C_3  and  C_9
REMARK    2  A    between atoms: C_4  and  C_20
REMARK    3  A    between atoms: C_17  and  C_18
REMARK    4  A    between atoms: C_20  and  O_21
REMARK    5  A    between atoms: O_21  and  C_22
REMARK    6  A    between atoms: C_25  and  N_28
REMARK                            x       y       z     vdW  Elec       q    Type
REMARK                         _______ _______ _______ _____ _____    ______ ____
ROOT
ATOM      1  S   UNL     1      32.732  -7.371 -19.858  0.00  0.00    -0.079 S 
ATOM      2  N   UNL     1      32.230  -8.856 -21.914  0.00  0.00    -0.404 NA
ATOM      3  C   UNL     1      32.764  -7.715 -21.540  0.00  0.00    +0.134 C 
ATOM      4  C   UNL     1      31.758  -9.516 -20.797  0.00  0.00    +0.142 C 
ATOM      5  C   UNL     1      31.939  -8.868 -19.592  0.00  0.00    +0.122 C 
ENDROOT
BRANCH   3   9
ATOM      6  N   UNL     1      34.208  -5.680 -25.066  0.00  0.00    -0.253 N 
ATOM      7  N   UNL     1      33.625  -4.597 -27.052  0.00  0.00    -0.203 NA
ATOM      8  N   UNL     1      35.919  -5.153 -26.566  0.00  0.00    -0.181 NA
ATOM      9  C   UNL     1      33.392  -6.709 -22.486  0.00  0.00    +0.062 C 
ATOM     10  C   UNL     1      34.587  -7.300 -23.248  0.00  0.00    +0.030 C 
ATOM     11  C   UNL     1      32.373  -6.144 -23.488  0.00  0.00    +0.030 C 
ATOM     12  C   UNL     1      35.221  -6.267 -24.181  0.00  0.00    +0.102 C 
ATOM     13  C   UNL     1      33.019  -5.113 -24.413  0.00  0.00    +0.102 C 
ATOM     14  C   UNL     1      34.602  -5.116 -26.285  0.00  0.00    +0.090 C 
ATOM     15  C   UNL     1      34.040  -4.064 -28.220  0.00  0.00    +0.161 C 
ATOM     16  C   UNL     1      36.264  -4.603 -27.749  0.00  0.00    +0.104 C 
ATOM     17  C   UNL     1      35.359  -4.038 -28.625  0.00  0.00    +0.001 C 
BRANCH  17  18
ATOM     18  C   UNL     1      35.776  -3.442 -29.917  0.00  0.00    +0.026 C 
ATOM     19  C   UNL     1      37.138  -2.751 -29.835  0.00  0.00    +0.005 C 
ENDBRANCH  17  18
ENDBRANCH   3   9
BRANCH   4  20
ATOM     20  C   UNL     1      31.112 -10.831 -20.979  0.00  0.00    +0.260 C 
BRANCH  20  21
ATOM     21  O   UNL     1      31.880 -11.845 -20.334  0.00  0.00    -0.468 OA
BRANCH  21  22
ATOM     22  C   UNL     1      32.446 -12.792 -21.143  0.00  0.00    +0.139 C 
ATOM     23  C   UNL     1      32.803 -14.035 -20.620  0.00  0.00    +0.038 C 
ATOM     24  C   UNL     1      32.666 -12.516 -22.492  0.00  0.00    +0.038 C 
ATOM     25  C   UNL     1      33.601 -14.722 -22.793  0.00  0.00    +0.078 C 
ATOM     26  C   UNL     1      33.381 -15.000 -21.444  0.00  0.00    +0.020 C 
ATOM     27  C   UNL     1      33.244 -13.480 -23.318  0.00  0.00    +0.020 C 
BRANCH  25  28
ATOM     28  N   UNL     1      34.174 -15.680 -23.611  0.00  0.00    -0.149 N 
ATOM     29  N   UNL     1      34.746 -16.790 -23.125  0.00  0.00    -0.048 NA
ATOM     30  N   UNL     1      34.877 -16.767 -25.351  0.00  0.00    -0.107 NA
ATOM     31  N   UNL     1      35.174 -17.451 -24.193  0.00  0.00    -0.024 NA
ATOM     32  C   UNL     1      34.258 -15.675 -24.967  0.00  0.00    +0.215 C 
ENDBRANCH  25  28
ENDBRANCH  21  22
ENDBRANCH  20  21
ENDBRANCH   4  20
TORSDOF 6
ENDMDL
