MODEL 1
REMARK VINA RESULT:     -11.4      0.000      0.000
REMARK  Name = 2765355
REMARK  2 active torsions:
REMARK  status: ('A' for Active; 'I' for Inactive)
REMARK    1  A    between atoms: C_4  and  C_20
REMARK    2  A    between atoms: C_6  and  C_13
REMARK                            x       y       z     vdW  Elec       q    Type
REMARK                         _______ _______ _______ _____ _____    ______ ____
ROOT
ATOM      1  O   UNL     1      31.823 -22.538 -17.599  0.00  0.00    -0.353 OA
ATOM      2  N   UNL     1      31.326 -23.223 -16.498  0.00  0.00    -0.077 NA
ATOM      3  C   UNL     1      33.578 -23.032 -16.360  0.00  0.00    +0.058 A 
ATOM      4  C   UNL     1      33.174 -22.426 -17.511  0.00  0.00    +0.177 A 
ATOM      5  C   UNL     1      32.385 -23.532 -15.728  0.00  0.00    +0.123 A 
ATOM      6  C   UNL     1      34.929 -23.825 -14.675  0.00  0.00    +0.031 C 
ATOM      7  C   UNL     1      34.883 -23.134 -15.902  0.00  0.00    +0.007 C 
ATOM      8  C   UNL     1      32.457 -24.219 -14.504  0.00  0.00    +0.023 C 
ATOM      9  C   UNL     1      33.774 -24.343 -14.006  0.00  0.00    +0.004 C 
ENDROOT
BRANCH   6  13
ATOM     10  N   UNL     1      37.166 -24.545 -14.857  0.00  0.00    -0.338 NA
ATOM     11  N   UNL     1      38.698 -24.446 -13.000  0.00  0.00    -0.170 NA
ATOM     12  N   UNL     1      39.385 -25.276 -15.085  0.00  0.00    -0.293 N 
ATOM     13  C   UNL     1      36.223 -24.023 -14.051  0.00  0.00    +0.146 C 
ATOM     14  C   UNL     1      36.429 -23.689 -12.731  0.00  0.00    +0.055 C 
ATOM     15  C   UNL     1      37.702 -23.926 -12.253  0.00  0.00    +0.114 C 
ATOM     16  C   UNL     1      38.366 -24.729 -14.274  0.00  0.00    +0.141 C 
ATOM     17  H   UNL     1      39.197 -25.501 -16.025  0.00  0.00    +0.155 HD
ATOM     18  H   UNL     1      40.281 -25.431 -14.711  0.00  0.00    +0.155 HD
ENDBRANCH   6  13
BRANCH   4  20
ATOM     19 CL   UNL     1      35.797 -19.550 -22.016  0.00  0.00    -0.082 Cl
ATOM     20  C   UNL     1      33.806 -21.734 -18.598  0.00  0.00    +0.037 C 
ATOM     21  C   UNL     1      35.185 -21.850 -18.800  0.00  0.00    +0.004 C 
ATOM     22  C   UNL     1      33.049 -20.936 -19.461  0.00  0.00    +0.004 C 
ATOM     23  C   UNL     1      35.800 -21.177 -19.856  0.00  0.00    +0.011 C 
ATOM     24  C   UNL     1      33.663 -20.263 -20.516  0.00  0.00    +0.011 C 
ATOM     25  C   UNL     1      35.039 -20.382 -20.714  0.00  0.00    +0.058 C 
ENDBRANCH   4  20
TORSDOF 2
ENDMDL
MODEL 2
REMARK VINA RESULT:     -11.3      0.779      1.732
REMARK  Name = 2765355
REMARK  2 active torsions:
REMARK  status: ('A' for Active; 'I' for Inactive)
REMARK    1  A    between atoms: C_4  and  C_20
REMARK    2  A    between atoms: C_6  and  C_13
REMARK                            x       y       z     vdW  Elec       q    Type
REMARK                         _______ _______ _______ _____ _____    ______ ____
ROOT
ATOM      1  O   UNL     1      31.775 -22.519 -17.590  0.00  0.00    -0.353 OA
ATOM      2  N   UNL     1      31.282 -23.205 -16.488  0.00  0.00    -0.077 NA
ATOM      3  C   UNL     1      33.537 -23.040 -16.371  0.00  0.00    +0.058 A 
ATOM      4  C   UNL     1      33.128 -22.423 -17.515  0.00  0.00    +0.177 A 
ATOM      5  C   UNL     1      32.344 -23.531 -15.730  0.00  0.00    +0.123 A 
ATOM      6  C   UNL     1      34.895 -23.858 -14.704  0.00  0.00    +0.031 C 
ATOM      7  C   UNL     1      34.845 -23.160 -15.927  0.00  0.00    +0.007 C 
ATOM      8  C   UNL     1      32.421 -24.226 -14.511  0.00  0.00    +0.023 C 
ATOM      9  C   UNL     1      33.741 -24.367 -14.027  0.00  0.00    +0.004 C 
ENDROOT
BRANCH   6  13
ATOM     10  N   UNL     1      36.315 -23.600 -12.840  0.00  0.00    -0.338 NA
ATOM     11  N   UNL     1      38.582 -24.417 -12.834  0.00  0.00    -0.170 NA
ATOM     12  N   UNL     1      37.692 -23.318 -10.960  0.00  0.00    -0.293 N 
ATOM     13  C   UNL     1      36.193 -24.075 -14.093  0.00  0.00    +0.146 C 
ATOM     14  C   UNL     1      37.196 -24.721 -14.778  0.00  0.00    +0.055 C 
ATOM     15  C   UNL     1      38.384 -24.866 -14.091  0.00  0.00    +0.114 C 
ATOM     16  C   UNL     1      37.521 -23.802 -12.277  0.00  0.00    +0.141 C 
ATOM     17  H   UNL     1      36.949 -22.861 -10.504  0.00  0.00    +0.155 HD
ATOM     18  H   UNL     1      38.553 -23.439 -10.500  0.00  0.00    +0.155 HD
ENDBRANCH   6  13
BRANCH   4  20
ATOM     19 CL   UNL     1      35.742 -19.560 -22.032  0.00  0.00    -0.082 Cl
ATOM     20  C   UNL     1      33.758 -21.732 -18.603  0.00  0.00    +0.037 C 
ATOM     21  C   UNL     1      33.000 -20.930 -19.461  0.00  0.00    +0.004 C 
ATOM     22  C   UNL     1      35.134 -21.857 -18.815  0.00  0.00    +0.004 C 
ATOM     23  C   UNL     1      33.612 -20.258 -20.520  0.00  0.00    +0.011 C 
ATOM     24  C   UNL     1      35.747 -21.186 -19.873  0.00  0.00    +0.011 C 
ATOM     25  C   UNL     1      34.986 -20.387 -20.726  0.00  0.00    +0.058 C 
ENDBRANCH   4  20
TORSDOF 2
ENDMDL
MODEL 3
REMARK VINA RESULT:     -11.3      7.951     11.411
REMARK  Name = 2765355
REMARK  2 active torsions:
REMARK  status: ('A' for Active; 'I' for Inactive)
REMARK    1  A    between atoms: C_4  and  C_20
REMARK    2  A    between atoms: C_6  and  C_13
REMARK                            x       y       z     vdW  Elec       q    Type
REMARK                         _______ _______ _______ _____ _____    ______ ____
ROOT
ATOM      1  O   UNL     1      35.283 -17.704 -24.675  0.00  0.00    -0.353 OA
ATOM      2  N   UNL     1      34.855 -16.741 -25.578  0.00  0.00    -0.077 NA
ATOM      3  C   UNL     1      34.366 -16.109 -23.460  0.00  0.00    +0.058 A 
ATOM      4  C   UNL     1      34.987 -17.319 -23.406  0.00  0.00    +0.177 A 
ATOM      5  C   UNL     1      34.292 -15.757 -24.855  0.00  0.00    +0.123 A 
ATOM      6  C   UNL     1      33.316 -14.169 -22.808  0.00  0.00    +0.031 C 
ATOM      7  C   UNL     1      33.904 -15.374 -22.378  0.00  0.00    +0.007 C 
ATOM      8  C   UNL     1      33.698 -14.548 -25.258  0.00  0.00    +0.023 C 
ATOM      9  C   UNL     1      33.216 -13.772 -24.180  0.00  0.00    +0.004 C 
ENDROOT
BRANCH   6  13
ATOM     10  N   UNL     1      32.462 -12.044 -22.246  0.00  0.00    -0.338 NA
ATOM     11  N   UNL     1      31.758 -11.498 -20.008  0.00  0.00    -0.170 NA
ATOM     12  N   UNL     1      31.619  -9.914 -21.735  0.00  0.00    -0.293 N 
ATOM     13  C   UNL     1      32.778 -13.274 -21.800  0.00  0.00    +0.146 C 
ATOM     14  C   UNL     1      32.618 -13.691 -20.498  0.00  0.00    +0.055 C 
ATOM     15  C   UNL     1      32.097 -12.749 -19.635  0.00  0.00    +0.114 C 
ATOM     16  C   UNL     1      31.964 -11.217 -21.309  0.00  0.00    +0.141 C 
ATOM     17  H   UNL     1      31.749  -9.654 -22.676  0.00  0.00    +0.155 HD
ATOM     18  H   UNL     1      31.250  -9.268 -21.091  0.00  0.00    +0.155 HD
ENDBRANCH   6  13
BRANCH   4  20
ATOM     19 CL   UNL     1      36.625 -21.134 -19.138  0.00  0.00    -0.082 Cl
ATOM     20  C   UNL     1      35.382 -18.238 -22.376  0.00  0.00    +0.037 C 
ATOM     21  C   UNL     1      36.689 -18.222 -21.881  0.00  0.00    +0.004 C 
ATOM     22  C   UNL     1      34.463 -19.158 -21.862  0.00  0.00    +0.004 C 
ATOM     23  C   UNL     1      37.073 -19.115 -20.880  0.00  0.00    +0.011 C 
ATOM     24  C   UNL     1      34.846 -20.051 -20.862  0.00  0.00    +0.011 C 
ATOM     25  C   UNL     1      36.151 -20.031 -20.371  0.00  0.00    +0.058 C 
ENDBRANCH   4  20
TORSDOF 2
ENDMDL
MODEL 4
REMARK VINA RESULT:     -11.2     11.169     13.717
REMARK  Name = 2765355
REMARK  2 active torsions:
REMARK  status: ('A' for Active; 'I' for Inactive)
REMARK    1  A    between atoms: C_4  and  C_20
REMARK    2  A    between atoms: C_6  and  C_13
REMARK                            x       y       z     vdW  Elec       q    Type
REMARK                         _______ _______ _______ _____ _____    ______ ____
ROOT
ATOM      1  O   UNL     1      31.616  -9.833 -20.261  0.00  0.00    -0.353 OA
ATOM      2  N   UNL     1      31.500 -11.022 -19.553  0.00  0.00    -0.077 NA
ATOM      3  C   UNL     1      32.329 -11.413 -21.624  0.00  0.00    +0.058 A 
ATOM      4  C   UNL     1      32.114 -10.073 -21.502  0.00  0.00    +0.177 A 
ATOM      5  C   UNL     1      31.933 -12.000 -20.370  0.00  0.00    +0.123 A 
ATOM      6  C   UNL     1      32.923 -13.451 -22.509  0.00  0.00    +0.031 C 
ATOM      7  C   UNL     1      32.833 -12.065 -22.739  0.00  0.00    +0.007 C 
ATOM      8  C   UNL     1      32.031 -13.387 -20.165  0.00  0.00    +0.023 C 
ATOM      9  C   UNL     1      32.542 -14.084 -21.283  0.00  0.00    +0.004 C 
ENDROOT
BRANCH   6  13
ATOM     10  N   UNL     1      34.222 -15.303 -23.174  0.00  0.00    -0.338 NA
ATOM     11  N   UNL     1      34.456 -15.939 -25.487  0.00  0.00    -0.170 NA
ATOM     12  N   UNL     1      35.527 -17.155 -23.789  0.00  0.00    -0.293 N 
ATOM     13  C   UNL     1      33.433 -14.290 -23.577  0.00  0.00    +0.146 C 
ATOM     14  C   UNL     1      33.110 -14.034 -24.891  0.00  0.00    +0.055 C 
ATOM     15  C   UNL     1      33.657 -14.902 -25.814  0.00  0.00    +0.114 C 
ATOM     16  C   UNL     1      34.693 -16.079 -24.169  0.00  0.00    +0.141 C 
ATOM     17  H   UNL     1      35.734 -17.305 -22.838  0.00  0.00    +0.155 HD
ATOM     18  H   UNL     1      35.899 -17.754 -24.474  0.00  0.00    +0.155 HD
ENDBRANCH   6  13
BRANCH   4  20
ATOM     19 CL   UNL     1      32.798  -5.269 -24.950  0.00  0.00    -0.082 Cl
ATOM     20  C   UNL     1      32.279  -8.916 -22.334  0.00  0.00    +0.037 C 
ATOM     21  C   UNL     1      33.559  -8.485 -22.696  0.00  0.00    +0.004 C 
ATOM     22  C   UNL     1      31.161  -8.209 -22.788  0.00  0.00    +0.004 C 
ATOM     23  C   UNL     1      33.720  -7.359 -23.505  0.00  0.00    +0.011 C 
ATOM     24  C   UNL     1      31.321  -7.084 -23.597  0.00  0.00    +0.011 C 
ATOM     25  C   UNL     1      32.600  -6.658 -23.954  0.00  0.00    +0.058 C 
ENDBRANCH   4  20
TORSDOF 2
ENDMDL
MODEL 5
REMARK VINA RESULT:     -10.9      6.991     10.125
REMARK  Name = 2765355
REMARK  2 active torsions:
REMARK  status: ('A' for Active; 'I' for Inactive)
REMARK    1  A    between atoms: C_4  and  C_20
REMARK    2  A    between atoms: C_6  and  C_13
REMARK                            x       y       z     vdW  Elec       q    Type
REMARK                         _______ _______ _______ _____ _____    ______ ____
ROOT
ATOM      1  O   UNL     1      33.083 -13.580 -24.347  0.00  0.00    -0.353 OA
ATOM      2  N   UNL     1      33.619 -14.412 -25.322  0.00  0.00    -0.077 NA
ATOM      3  C   UNL     1      33.962 -15.286 -23.262  0.00  0.00    +0.058 A 
ATOM      4  C   UNL     1      33.292 -14.110 -23.114  0.00  0.00    +0.177 A 
ATOM      5  C   UNL     1      34.161 -15.461 -24.677  0.00  0.00    +0.123 A 
ATOM      6  C   UNL     1      35.032 -17.261 -22.763  0.00  0.00    +0.031 C 
ATOM      7  C   UNL     1      34.365 -16.135 -22.242  0.00  0.00    +0.007 C 
ATOM      8  C   UNL     1      34.831 -16.593 -25.173  0.00  0.00    +0.023 C 
ATOM      9  C   UNL     1      35.256 -17.482 -24.159  0.00  0.00    +0.004 C 
ENDROOT
BRANCH   6  13
ATOM     10  N   UNL     1      34.577 -19.070 -21.321  0.00  0.00    -0.338 NA
ATOM     11  N   UNL     1      36.312 -20.172 -20.063  0.00  0.00    -0.170 NA
ATOM     12  N   UNL     1      34.077 -20.867 -19.897  0.00  0.00    -0.293 N 
ATOM     13  C   UNL     1      35.522 -18.257 -21.829  0.00  0.00    +0.146 C 
ATOM     14  C   UNL     1      36.860 -18.331 -21.514  0.00  0.00    +0.055 C 
ATOM     15  C   UNL     1      37.202 -19.320 -20.614  0.00  0.00    +0.114 C 
ATOM     16  C   UNL     1      35.036 -19.993 -20.455  0.00  0.00    +0.141 C 
ATOM     17  H   UNL     1      33.128 -20.781 -20.148  0.00  0.00    +0.155 HD
ATOM     18  H   UNL     1      34.357 -21.561 -19.258  0.00  0.00    +0.155 HD
ENDBRANCH   6  13
BRANCH   4  20
ATOM     19 CL   UNL     1      31.169 -10.904 -18.569  0.00  0.00    -0.082 Cl
ATOM     20  C   UNL     1      32.781 -13.337 -22.018  0.00  0.00    +0.037 C 
ATOM     21  C   UNL     1      32.696 -13.897 -20.740  0.00  0.00    +0.004 C 
ATOM     22  C   UNL     1      32.363 -12.018 -22.220  0.00  0.00    +0.004 C 
ATOM     23  C   UNL     1      32.199 -13.146 -19.674  0.00  0.00    +0.011 C 
ATOM     24  C   UNL     1      31.866 -11.267 -21.155  0.00  0.00    +0.011 C 
ATOM     25  C   UNL     1      31.783 -11.831 -19.882  0.00  0.00    +0.058 C 
ENDBRANCH   4  20
TORSDOF 2
ENDMDL
MODEL 6
REMARK VINA RESULT:     -10.8      1.993      5.183
REMARK  Name = 2765355
REMARK  2 active torsions:
REMARK  status: ('A' for Active; 'I' for Inactive)
REMARK    1  A    between atoms: C_4  and  C_20
REMARK    2  A    between atoms: C_6  and  C_13
REMARK                            x       y       z     vdW  Elec       q    Type
REMARK                         _______ _______ _______ _____ _____    ______ ____
ROOT
ATOM      1  O   UNL     1      36.541 -22.548 -16.747  0.00  0.00    -0.353 OA
ATOM      2  N   UNL     1      36.565 -23.241 -15.544  0.00  0.00    -0.077 NA
ATOM      3  C   UNL     1      34.440 -23.045 -16.300  0.00  0.00    +0.058 A 
ATOM      4  C   UNL     1      35.263 -22.433 -17.195  0.00  0.00    +0.177 A 
ATOM      5  C   UNL     1      35.289 -23.555 -15.254  0.00  0.00    +0.123 A 
ATOM      6  C   UNL     1      32.537 -23.849 -15.288  0.00  0.00    +0.031 C 
ATOM      7  C   UNL     1      33.060 -23.149 -16.393  0.00  0.00    +0.007 C 
ATOM      8  C   UNL     1      34.742 -24.249 -14.162  0.00  0.00    +0.023 C 
ATOM      9  C   UNL     1      33.336 -24.374 -14.223  0.00  0.00    +0.004 C 
ENDROOT
BRANCH   6  13
ATOM     10  N   UNL     1      30.383 -23.262 -16.045  0.00  0.00    -0.338 NA
ATOM     11  N   UNL     1      28.393 -24.328 -15.201  0.00  0.00    -0.170 NA
ATOM     12  N   UNL     1      28.259 -22.644 -16.829  0.00  0.00    -0.293 N 
ATOM     13  C   UNL     1      31.101 -24.050 -15.224  0.00  0.00    +0.146 C 
ATOM     14  C   UNL     1      30.556 -24.986 -14.375  0.00  0.00    +0.055 C 
ATOM     15  C   UNL     1      29.180 -25.083 -14.405  0.00  0.00    +0.114 C 
ATOM     16  C   UNL     1      29.051 -23.451 -15.983  0.00  0.00    +0.141 C 
ATOM     17  H   UNL     1      28.687 -21.985 -17.423  0.00  0.00    +0.155 HD
ATOM     18  H   UNL     1      27.280 -22.740 -16.825  0.00  0.00    +0.155 HD
ENDBRANCH   6  13
BRANCH   4  20
ATOM     19 CL   UNL     1      34.615 -19.517 -22.345  0.00  0.00    -0.082 Cl
ATOM     20  C   UNL     1      35.108 -21.731 -18.437  0.00  0.00    +0.037 C 
ATOM     21  C   UNL     1      36.229 -21.262 -19.127  0.00  0.00    +0.004 C 
ATOM     22  C   UNL     1      33.832 -21.510 -18.966  0.00  0.00    +0.004 C 
ATOM     23  C   UNL     1      36.078 -20.579 -20.334  0.00  0.00    +0.011 C 
ATOM     24  C   UNL     1      33.680 -20.827 -20.173  0.00  0.00    +0.011 C 
ATOM     25  C   UNL     1      34.802 -20.360 -20.857  0.00  0.00    +0.058 C 
ENDBRANCH   4  20
TORSDOF 2
ENDMDL
MODEL 7
REMARK VINA RESULT:     -10.8      3.099      6.511
REMARK  Name = 2765355
REMARK  2 active torsions:
REMARK  status: ('A' for Active; 'I' for Inactive)
REMARK    1  A    between atoms: C_4  and  C_20
REMARK    2  A    between atoms: C_6  and  C_13
REMARK                            x       y       z     vdW  Elec       q    Type
REMARK                         _______ _______ _______ _____ _____    ______ ____
ROOT
ATOM      1  O   UNL     1      34.318 -23.435 -16.507  0.00  0.00    -0.353 OA
ATOM      2  N   UNL     1      33.863 -24.145 -15.404  0.00  0.00    -0.077 NA
ATOM      3  C   UNL     1      32.147 -23.064 -16.410  0.00  0.00    +0.058 A 
ATOM      4  C   UNL     1      33.285 -22.788 -17.106  0.00  0.00    +0.177 A 
ATOM      5  C   UNL     1      32.537 -23.932 -15.329  0.00  0.00    +0.123 A 
ATOM      6  C   UNL     1      29.938 -23.085 -15.767  0.00  0.00    +0.031 C 
ATOM      7  C   UNL     1      30.875 -22.595 -16.699  0.00  0.00    +0.007 C 
ATOM      8  C   UNL     1      31.585 -24.406 -14.411  0.00  0.00    +0.023 C 
ATOM      9  C   UNL     1      30.274 -23.948 -14.676  0.00  0.00    +0.004 C 
ENDROOT
BRANCH   6  13
ATOM     10  N   UNL     1      28.141 -22.551 -17.196  0.00  0.00    -0.338 NA
ATOM     11  N   UNL     1      25.965 -21.955 -16.349  0.00  0.00    -0.170 NA
ATOM     12  N   UNL     1      26.382 -22.025 -18.658  0.00  0.00    -0.293 N 
ATOM     13  C   UNL     1      28.551 -22.691 -15.922  0.00  0.00    +0.146 C 
ATOM     14  C   UNL     1      27.748 -22.488 -14.822  0.00  0.00    +0.055 C 
ATOM     15  C   UNL     1      26.448 -22.116 -15.100  0.00  0.00    +0.114 C 
ATOM     16  C   UNL     1      26.853 -22.185 -17.335  0.00  0.00    +0.141 C 
ATOM     17  H   UNL     1      26.988 -22.181 -19.418  0.00  0.00    +0.155 HD
ATOM     18  H   UNL     1      25.448 -21.759 -18.818  0.00  0.00    +0.155 HD
ENDBRANCH   6  13
BRANCH   4  20
ATOM     19 CL   UNL     1      34.719 -19.573 -21.907  0.00  0.00    -0.082 Cl
ATOM     20  C   UNL     1      33.631 -22.014 -18.264  0.00  0.00    +0.037 C 
ATOM     21  C   UNL     1      34.951 -21.982 -18.721  0.00  0.00    +0.004 C 
ATOM     22  C   UNL     1      32.649 -21.285 -18.943  0.00  0.00    +0.004 C 
ATOM     23  C   UNL     1      35.288 -21.229 -19.847  0.00  0.00    +0.011 C 
ATOM     24  C   UNL     1      32.985 -20.532 -20.068  0.00  0.00    +0.011 C 
ATOM     25  C   UNL     1      34.304 -20.503 -20.520  0.00  0.00    +0.058 C 
ENDBRANCH   4  20
TORSDOF 2
ENDMDL
MODEL 8
REMARK VINA RESULT:     -10.4     11.554     14.562
REMARK  Name = 2765355
REMARK  2 active torsions:
REMARK  status: ('A' for Active; 'I' for Inactive)
REMARK    1  A    between atoms: C_4  and  C_20
REMARK    2  A    between atoms: C_6  and  C_13
REMARK                            x       y       z     vdW  Elec       q    Type
REMARK                         _______ _______ _______ _____ _____    ______ ____
ROOT
ATOM      1  O   UNL     1      31.915  -8.080 -20.751  0.00  0.00    -0.353 OA
ATOM      2  N   UNL     1      31.427  -9.038 -19.872  0.00  0.00    -0.077 NA
ATOM      3  C   UNL     1      32.477 -10.028 -21.616  0.00  0.00    +0.058 A 
ATOM      4  C   UNL     1      32.544  -8.680 -21.795  0.00  0.00    +0.177 A 
ATOM      5  C   UNL     1      31.762 -10.236 -20.383  0.00  0.00    +0.123 A 
ATOM      6  C   UNL     1      32.746 -12.287 -21.961  0.00  0.00    +0.031 C 
ATOM      7  C   UNL     1      33.001 -10.994 -22.461  0.00  0.00    +0.007 C 
ATOM      8  C   UNL     1      31.519 -11.535 -19.906  0.00  0.00    +0.023 C 
ATOM      9  C   UNL     1      32.040 -12.547 -20.744  0.00  0.00    +0.004 C 
ENDROOT
BRANCH   6  13
ATOM     10  N   UNL     1      32.810 -13.461 -24.004  0.00  0.00    -0.338 NA
ATOM     11  N   UNL     1      34.060 -15.504 -24.268  0.00  0.00    -0.170 NA
ATOM     12  N   UNL     1      32.843 -14.596 -26.058  0.00  0.00    -0.293 N 
ATOM     13  C   UNL     1      33.227 -13.422 -22.725  0.00  0.00    +0.146 C 
ATOM     14  C   UNL     1      34.047 -14.365 -22.148  0.00  0.00    +0.055 C 
ATOM     15  C   UNL     1      34.437 -15.397 -22.977  0.00  0.00    +0.114 C 
ATOM     16  C   UNL     1      33.258 -14.517 -24.710  0.00  0.00    +0.141 C 
ATOM     17  H   UNL     1      32.256 -13.901 -26.434  0.00  0.00    +0.155 HD
ATOM     18  H   UNL     1      33.141 -15.346 -26.620  0.00  0.00    +0.155 HD
ENDBRANCH   6  13
BRANCH   4  20
ATOM     19 CL   UNL     1      34.820  -4.981 -25.866  0.00  0.00    -0.082 Cl
ATOM     20  C   UNL     1      33.093  -7.789 -22.777  0.00  0.00    +0.037 C 
ATOM     21  C   UNL     1      34.475  -7.722 -22.973  0.00  0.00    +0.004 C 
ATOM     22  C   UNL     1      32.249  -6.980 -23.544  0.00  0.00    +0.004 C 
ATOM     23  C   UNL     1      35.009  -6.856 -23.928  0.00  0.00    +0.011 C 
ATOM     24  C   UNL     1      32.782  -6.113 -24.498  0.00  0.00    +0.011 C 
ATOM     25  C   UNL     1      34.162  -6.050 -24.690  0.00  0.00    +0.058 C 
ENDBRANCH   4  20
TORSDOF 2
ENDMDL
MODEL 9
REMARK VINA RESULT:     -10.4      0.971      1.648
REMARK  Name = 2765355
REMARK  2 active torsions:
REMARK  status: ('A' for Active; 'I' for Inactive)
REMARK    1  A    between atoms: C_4  and  C_20
REMARK    2  A    between atoms: C_6  and  C_13
REMARK                            x       y       z     vdW  Elec       q    Type
REMARK                         _______ _______ _______ _____ _____    ______ ____
ROOT
ATOM      1  O   UNL     1      31.996 -22.077 -17.772  0.00  0.00    -0.353 OA
ATOM      2  N   UNL     1      31.437 -22.753 -16.696  0.00  0.00    -0.077 NA
ATOM      3  C   UNL     1      33.695 -22.907 -16.637  0.00  0.00    +0.058 A 
ATOM      4  C   UNL     1      33.351 -22.172 -17.732  0.00  0.00    +0.177 A 
ATOM      5  C   UNL     1      32.460 -23.267 -15.990  0.00  0.00    +0.123 A 
ATOM      6  C   UNL     1      34.962 -24.001 -15.060  0.00  0.00    +0.031 C 
ATOM      7  C   UNL     1      34.983 -23.232 -16.240  0.00  0.00    +0.007 C 
ATOM      8  C   UNL     1      32.465 -24.037 -14.814  0.00  0.00    +0.023 C 
ATOM      9  C   UNL     1      33.764 -24.387 -14.379  0.00  0.00    +0.004 C 
ENDROOT
BRANCH   6  13
ATOM     10  N   UNL     1      36.134 -25.336 -13.510  0.00  0.00    -0.338 NA
ATOM     11  N   UNL     1      38.540 -25.318 -13.367  0.00  0.00    -0.170 NA
ATOM     12  N   UNL     1      37.258 -26.681 -11.950  0.00  0.00    -0.293 N 
ATOM     13  C   UNL     1      36.230 -24.430 -14.501  0.00  0.00    +0.146 C 
ATOM     14  C   UNL     1      37.419 -23.925 -14.978  0.00  0.00    +0.055 C 
ATOM     15  C   UNL     1      38.556 -24.411 -14.365  0.00  0.00    +0.114 C 
ATOM     16  C   UNL     1      37.313 -25.731 -12.994  0.00  0.00    +0.141 C 
ATOM     17  H   UNL     1      36.387 -27.019 -11.637  0.00  0.00    +0.155 HD
ATOM     18  H   UNL     1      38.090 -27.006 -11.536  0.00  0.00    +0.155 HD
ENDBRANCH   6  13
BRANCH   4  20
ATOM     19 CL   UNL     1      36.239 -19.431 -22.157  0.00  0.00    -0.082 Cl
ATOM     20  C   UNL     1      34.047 -21.510 -18.798  0.00  0.00    +0.037 C 
ATOM     21  C   UNL     1      33.342 -20.745 -19.732  0.00  0.00    +0.004 C 
ATOM     22  C   UNL     1      35.436 -21.627 -18.912  0.00  0.00    +0.004 C 
ATOM     23  C   UNL     1      34.019 -20.102 -20.769  0.00  0.00    +0.011 C 
ATOM     24  C   UNL     1      36.113 -20.984 -19.948  0.00  0.00    +0.011 C 
ATOM     25  C   UNL     1      35.404 -20.223 -20.877  0.00  0.00    +0.058 C 
ENDBRANCH   4  20
TORSDOF 2
ENDMDL
