MODEL 1
REMARK VINA RESULT:     -10.8      0.000      0.000
REMARK  Name = 25147644
REMARK  4 active torsions:
REMARK  status: ('A' for Active; 'I' for Inactive)
REMARK    1  A    between atoms: C_3  and  N_11
REMARK    2  A    between atoms: C_4  and  C_23
REMARK    3  A    between atoms: C_12  and  C_15
REMARK    4  A    between atoms: C_23  and  C_25
REMARK                            x       y       z     vdW  Elec       q    Type
REMARK                         _______ _______ _______ _____ _____    ______ ____
ROOT
ATOM      1  N   UNL     1      32.341 -23.858 -13.286  0.00  0.00    +0.390 N 
ATOM      2  C   UNL     1      31.128 -23.772 -15.587  0.00  0.00    +0.012 C 
ATOM      3  C   UNL     1      32.659 -23.859 -15.768  0.00  0.00    +0.053 C 
ATOM      4  C   UNL     1      33.336 -23.695 -14.383  0.00  0.00    -0.035 C 
ATOM      5  C   UNL     1      30.785 -22.542 -14.728  0.00  0.00    -0.021 C 
ATOM      6  C   UNL     1      30.708 -25.017 -14.786  0.00  0.00    -0.021 C 
ATOM      7  C   UNL     1      31.424 -22.694 -13.335  0.00  0.00    -0.077 C 
ATOM      8  C   UNL     1      31.530 -25.081 -13.487  0.00  0.00    -0.077 C 
ATOM      9  H   UNL     1      32.832 -23.925 -12.393  0.00  0.00    -0.080 HD
ENDROOT
BRANCH   3  11
ATOM     10  O   UNL     1      33.566 -24.390 -18.440  0.00  0.00    -0.267 OA
ATOM     11  N   UNL     1      33.153 -22.892 -16.718  0.00  0.00    -0.302 N 
ATOM     12  C   UNL     1      33.571 -23.246 -17.992  0.00  0.00    +0.280 C 
ATOM     13  H   UNL     1      33.195 -21.946 -16.451  0.00  0.00    +0.150 HD
BRANCH  12  15
ATOM     14  O   UNL     1      35.421 -21.940 -18.892  0.00  0.00    -0.449 OA
ATOM     15  C   UNL     1      34.077 -22.136 -18.841  0.00  0.00    +0.198 C 
ATOM     16  C   UNL     1      33.421 -21.220 -19.629  0.00  0.00    +0.045 C 
ATOM     17  C   UNL     1      34.423 -20.399 -20.208  0.00  0.00    +0.038 C 
ATOM     18  C   UNL     1      35.635 -20.882 -19.723  0.00  0.00    +0.146 C 
ATOM     19  C   UNL     1      34.442 -19.301 -21.086  0.00  0.00    +0.003 C 
ATOM     20  C   UNL     1      36.878 -20.347 -20.052  0.00  0.00    +0.037 C 
ATOM     21  C   UNL     1      35.678 -18.741 -21.436  0.00  0.00    +0.000 C 
ATOM     22  C   UNL     1      36.873 -19.256 -20.927  0.00  0.00    +0.003 C 
ENDBRANCH  12  15
ENDBRANCH   3  11
BRANCH   4  23
ATOM     23  C   UNL     1      34.524 -24.647 -14.217  0.00  0.00    +0.009 C 
BRANCH  23  25
ATOM     24  N   UNL     1      37.535 -22.858 -12.789  0.00  0.00    -0.243 NA
ATOM     25  C   UNL     1      35.518 -24.119 -13.222  0.00  0.00    -0.005 C 
ATOM     26  C   UNL     1      35.378 -24.377 -11.863  0.00  0.00    -0.001 C 
ATOM     27  C   UNL     1      36.604 -23.361 -13.631  0.00  0.00    +0.095 C 
ATOM     28  C   UNL     1      36.316 -23.876 -10.966  0.00  0.00    +0.020 C 
ATOM     29  C   UNL     1      37.366 -23.129 -11.474  0.00  0.00    +0.099 C 
ENDBRANCH  23  25
ENDBRANCH   4  23
TORSDOF 4
ENDMDL
MODEL 2
REMARK VINA RESULT:     -10.2      1.637      4.401
REMARK  Name = 25147644
REMARK  4 active torsions:
REMARK  status: ('A' for Active; 'I' for Inactive)
REMARK    1  A    between atoms: C_3  and  N_11
REMARK    2  A    between atoms: C_4  and  C_23
REMARK    3  A    between atoms: C_12  and  C_15
REMARK    4  A    between atoms: C_23  and  C_25
REMARK                            x       y       z     vdW  Elec       q    Type
REMARK                         _______ _______ _______ _____ _____    ______ ____
ROOT
ATOM      1  N   UNL     1      35.947 -25.715 -13.041  0.00  0.00    +0.390 N 
ATOM      2  C   UNL     1      37.541 -23.834 -13.874  0.00  0.00    +0.012 C 
ATOM      3  C   UNL     1      36.071 -23.360 -13.878  0.00  0.00    +0.053 C 
ATOM      4  C   UNL     1      35.155 -24.574 -13.578  0.00  0.00    -0.035 C 
ATOM      5  C   UNL     1      37.670 -25.100 -14.740  0.00  0.00    -0.021 C 
ATOM      6  C   UNL     1      37.870 -24.237 -12.427  0.00  0.00    -0.021 C 
ATOM      7  C   UNL     1      36.804 -26.223 -14.140  0.00  0.00    -0.077 C 
ATOM      8  C   UNL     1      36.836 -25.269 -11.944  0.00  0.00    -0.077 C 
ATOM      9  H   UNL     1      35.310 -26.430 -12.686  0.00  0.00    -0.080 HD
ENDROOT
BRANCH   3  11
ATOM     10  O   UNL     1      34.608 -24.525 -16.056  0.00  0.00    -0.267 OA
ATOM     11  N   UNL     1      35.708 -22.713 -15.115  0.00  0.00    -0.302 N 
ATOM     12  C   UNL     1      34.997 -23.361 -16.113  0.00  0.00    +0.280 C 
ATOM     13  H   UNL     1      35.976 -21.776 -15.254  0.00  0.00    +0.150 HD
BRANCH  12  15
ATOM     14  O   UNL     1      35.788 -22.059 -18.015  0.00  0.00    -0.449 OA
ATOM     15  C   UNL     1      34.724 -22.564 -17.338  0.00  0.00    +0.198 C 
ATOM     16  C   UNL     1      33.545 -22.218 -17.955  0.00  0.00    +0.045 C 
ATOM     17  C   UNL     1      33.900 -21.446 -19.092  0.00  0.00    +0.038 C 
ATOM     18  C   UNL     1      35.289 -21.377 -19.084  0.00  0.00    +0.146 C 
ATOM     19  C   UNL     1      33.202 -20.798 -20.126  0.00  0.00    +0.003 C 
ATOM     20  C   UNL     1      36.044 -20.703 -20.041  0.00  0.00    +0.037 C 
ATOM     21  C   UNL     1      33.934 -20.110 -21.104  0.00  0.00    +0.000 C 
ATOM     22  C   UNL     1      35.330 -20.066 -21.060  0.00  0.00    +0.003 C 
ENDBRANCH  12  15
ENDBRANCH   3  11
BRANCH   4  23
ATOM     23  C   UNL     1      34.001 -24.196 -12.644  0.00  0.00    +0.009 C 
BRANCH  23  25
ATOM     24  N   UNL     1      30.706 -25.379 -14.074  0.00  0.00    -0.243 NA
ATOM     25  C   UNL     1      32.686 -24.184 -13.370  0.00  0.00    -0.005 C 
ATOM     26  C   UNL     1      32.224 -23.032 -13.997  0.00  0.00    -0.001 C 
ATOM     27  C   UNL     1      31.897 -25.321 -13.437  0.00  0.00    +0.095 C 
ATOM     28  C   UNL     1      31.002 -23.052 -14.662  0.00  0.00    +0.020 C 
ATOM     29  C   UNL     1      30.288 -24.240 -14.672  0.00  0.00    +0.099 C 
ENDBRANCH  23  25
ENDBRANCH   4  23
TORSDOF 4
ENDMDL
MODEL 3
REMARK VINA RESULT:      -8.4     12.236     17.236
REMARK  Name = 25147644
REMARK  4 active torsions:
REMARK  status: ('A' for Active; 'I' for Inactive)
REMARK    1  A    between atoms: C_3  and  N_11
REMARK    2  A    between atoms: C_4  and  C_23
REMARK    3  A    between atoms: C_12  and  C_15
REMARK    4  A    between atoms: C_23  and  C_25
REMARK                            x       y       z     vdW  Elec       q    Type
REMARK                         _______ _______ _______ _____ _____    ______ ____
ROOT
ATOM      1  N   UNL     1      32.206  -5.878 -23.213  0.00  0.00    +0.390 N 
ATOM      2  C   UNL     1      32.030  -7.816 -21.484  0.00  0.00    +0.012 C 
ATOM      3  C   UNL     1      33.206  -8.044 -22.458  0.00  0.00    +0.053 C 
ATOM      4  C   UNL     1      33.135  -6.981 -23.585  0.00  0.00    -0.035 C 
ATOM      5  C   UNL     1      30.726  -7.663 -22.287  0.00  0.00    -0.021 C 
ATOM      6  C   UNL     1      32.294  -6.472 -20.783  0.00  0.00    -0.021 C 
ATOM      7  C   UNL     1      30.831  -6.433 -23.207  0.00  0.00    -0.077 C 
ATOM      8  C   UNL     1      32.498  -5.380 -21.848  0.00  0.00    -0.077 C 
ATOM      9  H   UNL     1      32.310  -5.110 -23.878  0.00  0.00    -0.080 HD
ENDROOT
BRANCH   3  11
ATOM     10  O   UNL     1      35.435  -9.375 -23.685  0.00  0.00    -0.267 OA
ATOM     11  N   UNL     1      33.221  -9.384 -22.993  0.00  0.00    -0.302 N 
ATOM     12  C   UNL     1      34.352  -9.943 -23.570  0.00  0.00    +0.280 C 
ATOM     13  H   UNL     1      32.398  -9.920 -22.947  0.00  0.00    +0.150 HD
BRANCH  12  15
ATOM     14  O   UNL     1      34.441 -12.357 -23.249  0.00  0.00    -0.449 OA
ATOM     15  C   UNL     1      34.197 -11.324 -24.097  0.00  0.00    +0.198 C 
ATOM     16  C   UNL     1      33.836 -11.788 -25.340  0.00  0.00    +0.045 C 
ATOM     17  C   UNL     1      33.857 -13.205 -25.260  0.00  0.00    +0.038 C 
ATOM     18  C   UNL     1      34.235 -13.504 -23.954  0.00  0.00    +0.146 C 
ATOM     19  C   UNL     1      33.600 -14.267 -26.144  0.00  0.00    +0.003 C 
ATOM     20  C   UNL     1      34.377 -14.799 -23.459  0.00  0.00    +0.037 C 
ATOM     21  C   UNL     1      33.734 -15.581 -25.674  0.00  0.00    +0.000 C 
ATOM     22  C   UNL     1      34.116 -15.839 -24.355  0.00  0.00    +0.003 C 
ENDBRANCH  12  15
ENDBRANCH   3  11
BRANCH   4  23
ATOM     23  C   UNL     1      34.525  -6.452 -23.952  0.00  0.00    +0.009 C 
BRANCH  23  25
ATOM     24  N   UNL     1      33.185  -4.174 -26.658  0.00  0.00    -0.243 NA
ATOM     25  C   UNL     1      34.477  -5.579 -25.174  0.00  0.00    -0.005 C 
ATOM     26  C   UNL     1      35.614  -5.362 -25.944  0.00  0.00    -0.001 C 
ATOM     27  C   UNL     1      33.297  -4.968 -25.570  0.00  0.00    +0.095 C 
ATOM     28  C   UNL     1      35.538  -4.550 -27.071  0.00  0.00    +0.020 C 
ATOM     29  C   UNL     1      34.312  -3.985 -27.383  0.00  0.00    +0.099 C 
ENDBRANCH  23  25
ENDBRANCH   4  23
TORSDOF 4
ENDMDL
