MODEL 1
REMARK VINA RESULT:     -11.9      0.000      0.000
REMARK  Name = 24878044
REMARK  6 active torsions:
REMARK  status: ('A' for Active; 'I' for Inactive)
REMARK    1  A    between atoms: N_2  and  C_6
REMARK    2  A    between atoms: C_3  and  C_18
REMARK    3  A    between atoms: C_7  and  S_12
REMARK    4  A    between atoms: S_12  and  N_15
REMARK    5  A    between atoms: C_18  and  S_19
REMARK    6  A    between atoms: S_19  and  C_31
REMARK                            x       y       z     vdW  Elec       q    Type
REMARK                         _______ _______ _______ _____ _____    ______ ____
ROOT
ATOM      1  O   UNL     1      36.606 -20.237 -20.020  0.00  0.00    -0.274 OA
ATOM      2  N   UNL     1      34.816 -21.383 -19.016  0.00  0.00    -0.283 N 
ATOM      3  C   UNL     1      35.428 -20.580 -19.973  0.00  0.00    +0.238 C 
ATOM      4  H   UNL     1      33.852 -21.543 -19.134  0.00  0.00    +0.155 HD
ENDROOT
BRANCH   2   6
ATOM      5 CL   UNL     1      33.000 -23.079 -17.254  0.00  0.00    -0.081 Cl
ATOM      6  C   UNL     1      35.421 -21.998 -17.894  0.00  0.00    +0.061 C 
ATOM      7  C   UNL     1      36.676 -23.181 -15.702  0.00  0.00    +0.123 C 
ATOM      8  C   UNL     1      34.687 -22.796 -17.018  0.00  0.00    +0.072 C 
ATOM      9  C   UNL     1      36.784 -21.790 -17.674  0.00  0.00    +0.017 C 
ATOM     10  C   UNL     1      35.315 -23.388 -15.922  0.00  0.00    +0.033 C 
ATOM     11  C   UNL     1      37.411 -22.382 -16.578  0.00  0.00    +0.021 C 
BRANCH   7  12
ATOM     12  S   UNL     1      37.462 -23.921 -14.330  0.00  0.00    +0.057 S 
ATOM     13  O   UNL     1      37.606 -22.917 -13.285  0.00  0.00    -0.153 OA
ATOM     14  O   UNL     1      36.792 -25.180 -14.036  0.00  0.00    -0.153 OA
BRANCH  12  15
ATOM     15  N   UNL     1      39.005 -24.261 -14.983  0.00  0.00    -0.203 NA
ATOM     16  H   UNL     1      39.538 -24.825 -14.320  0.00  0.00    +0.144 HD
ATOM     17  H   UNL     1      39.499 -23.388 -15.161  0.00  0.00    +0.144 HD
ENDBRANCH  12  15
ENDBRANCH   7  12
ENDBRANCH   2   6
BRANCH   3  18
ATOM     18  C   UNL     1      34.448 -20.107 -21.025  0.00  0.00    +0.152 C 
BRANCH  18  19
ATOM     19  S   UNL     1      35.356 -19.218 -22.310  0.00  0.00    -0.047 S 
BRANCH  19  31
ATOM     20  O   UNL     1      35.691 -17.294 -20.587  0.00  0.00    -0.262 OA
ATOM     21  N   UNL     1      34.634 -16.620 -22.575  0.00  0.00    -0.250 N 
ATOM     22  C   UNL     1      34.935 -15.417 -24.734  0.00  0.00    +0.027 C 
ATOM     23  C   UNL     1      33.778 -14.488 -24.431  0.00  0.00    +0.029 C 
ATOM     24  C   UNL     1      34.707 -16.752 -24.046  0.00  0.00    +0.099 C 
ATOM     25  C   UNL     1      33.488 -14.445 -22.955  0.00  0.00    -0.009 C 
ATOM     26  C   UNL     1      33.895 -15.475 -22.075  0.00  0.00    +0.051 C 
ATOM     27  C   UNL     1      32.747 -13.349 -22.472  0.00  0.00    -0.007 C 
ATOM     28  C   UNL     1      33.517 -15.363 -20.724  0.00  0.00    +0.014 C 
ATOM     29  C   UNL     1      32.409 -13.253 -21.128  0.00  0.00    -0.022 C 
ATOM     30  C   UNL     1      32.791 -14.263 -20.255  0.00  0.00    -0.003 C 
ATOM     31  C   UNL     1      35.251 -17.548 -21.704  0.00  0.00    +0.280 C 
ATOM     32  C   UNL     1      31.658 -12.069 -20.624  0.00  0.00    +0.031 C 
ENDBRANCH  19  31
ENDBRANCH  18  19
ENDBRANCH   3  18
TORSDOF 6
ENDMDL
MODEL 2
REMARK VINA RESULT:     -11.7      1.435      2.658
REMARK  Name = 24878044
REMARK  6 active torsions:
REMARK  status: ('A' for Active; 'I' for Inactive)
REMARK    1  A    between atoms: N_2  and  C_6
REMARK    2  A    between atoms: C_3  and  C_18
REMARK    3  A    between atoms: C_7  and  S_12
REMARK    4  A    between atoms: S_12  and  N_15
REMARK    5  A    between atoms: C_18  and  S_19
REMARK    6  A    between atoms: S_19  and  C_31
REMARK                            x       y       z     vdW  Elec       q    Type
REMARK                         _______ _______ _______ _____ _____    ______ ____
ROOT
ATOM      1  O   UNL     1      37.222 -20.095 -19.366  0.00  0.00    -0.274 OA
ATOM      2  N   UNL     1      35.397 -21.531 -19.007  0.00  0.00    -0.283 N 
ATOM      3  C   UNL     1      36.159 -20.604 -19.710  0.00  0.00    +0.238 C 
ATOM      4  H   UNL     1      34.559 -21.820 -19.436  0.00  0.00    +0.155 HD
ENDROOT
BRANCH   2   6
ATOM      5 CL   UNL     1      33.075 -22.869 -17.557  0.00  0.00    -0.081 Cl
ATOM      6  C   UNL     1      35.687 -22.106 -17.747  0.00  0.00    +0.061 C 
ATOM      7  C   UNL     1      36.329 -23.219 -15.271  0.00  0.00    +0.123 C 
ATOM      8  C   UNL     1      34.703 -22.745 -16.994  0.00  0.00    +0.072 C 
ATOM      9  C   UNL     1      36.993 -22.023 -17.261  0.00  0.00    +0.017 C 
ATOM     10  C   UNL     1      35.024 -23.302 -15.756  0.00  0.00    +0.033 C 
ATOM     11  C   UNL     1      37.314 -22.580 -16.023  0.00  0.00    +0.021 C 
BRANCH   7  12
ATOM     12  S   UNL     1      36.730 -23.916 -13.721  0.00  0.00    +0.057 S 
ATOM     13  O   UNL     1      36.768 -25.364 -13.864  0.00  0.00    -0.153 OA
ATOM     14  O   UNL     1      37.885 -23.211 -13.182  0.00  0.00    -0.153 OA
BRANCH  12  15
ATOM     15  N   UNL     1      35.352 -23.489 -12.805  0.00  0.00    -0.203 NA
ATOM     16  H   UNL     1      34.651 -23.073 -13.420  0.00  0.00    +0.144 HD
ATOM     17  H   UNL     1      35.615 -22.816 -12.086  0.00  0.00    +0.144 HD
ENDBRANCH  12  15
ENDBRANCH   7  12
ENDBRANCH   2   6
BRANCH   3  18
ATOM     18  C   UNL     1      35.516 -20.226 -21.028  0.00  0.00    +0.152 C 
BRANCH  18  19
ATOM     19  S   UNL     1      36.395 -18.807 -21.718  0.00  0.00    -0.047 S 
BRANCH  19  31
ATOM     20  O   UNL     1      34.667 -18.797 -23.667  0.00  0.00    -0.262 OA
ATOM     21  N   UNL     1      34.782 -16.769 -22.484  0.00  0.00    -0.250 N 
ATOM     22  C   UNL     1      33.648 -15.326 -20.802  0.00  0.00    +0.027 C 
ATOM     23  C   UNL     1      33.620 -14.152 -21.758  0.00  0.00    +0.029 C 
ATOM     24  C   UNL     1      34.843 -16.209 -21.117  0.00  0.00    +0.099 C 
ATOM     25  C   UNL     1      33.763 -14.610 -23.186  0.00  0.00    -0.009 C 
ATOM     26  C   UNL     1      34.328 -15.862 -23.523  0.00  0.00    +0.051 C 
ATOM     27  C   UNL     1      33.349 -13.721 -24.195  0.00  0.00    -0.007 C 
ATOM     28  C   UNL     1      34.470 -16.163 -24.891  0.00  0.00    +0.014 C 
ATOM     29  C   UNL     1      33.479 -14.056 -25.538  0.00  0.00    -0.022 C 
ATOM     30  C   UNL     1      34.044 -15.275 -25.884  0.00  0.00    -0.003 C 
ATOM     31  C   UNL     1      35.138 -18.108 -22.767  0.00  0.00    +0.280 C 
ATOM     32  C   UNL     1      33.002 -13.121 -26.595  0.00  0.00    +0.031 C 
ENDBRANCH  19  31
ENDBRANCH  18  19
ENDBRANCH   3  18
TORSDOF 6
ENDMDL
MODEL 3
REMARK VINA RESULT:     -11.6      2.442      3.586
REMARK  Name = 24878044
REMARK  6 active torsions:
REMARK  status: ('A' for Active; 'I' for Inactive)
REMARK    1  A    between atoms: N_2  and  C_6
REMARK    2  A    between atoms: C_3  and  C_18
REMARK    3  A    between atoms: C_7  and  S_12
REMARK    4  A    between atoms: S_12  and  N_15
REMARK    5  A    between atoms: C_18  and  S_19
REMARK    6  A    between atoms: S_19  and  C_31
REMARK                            x       y       z     vdW  Elec       q    Type
REMARK                         _______ _______ _______ _____ _____    ______ ____
ROOT
ATOM      1  O   UNL     1      34.047 -20.115 -20.182  0.00  0.00    -0.274 OA
ATOM      2  N   UNL     1      35.585 -21.641 -19.270  0.00  0.00    -0.283 N 
ATOM      3  C   UNL     1      35.139 -20.677 -20.168  0.00  0.00    +0.238 C 
ATOM      4  H   UNL     1      36.492 -21.992 -19.423  0.00  0.00    +0.155 HD
ENDROOT
BRANCH   2   6
ATOM      5 CL   UNL     1      37.226 -22.175 -16.758  0.00  0.00    -0.081 Cl
ATOM      6  C   UNL     1      34.885 -22.173 -18.161  0.00  0.00    +0.061 C 
ATOM      7  C   UNL     1      33.445 -23.221 -16.014  0.00  0.00    +0.123 C 
ATOM      8  C   UNL     1      35.533 -22.457 -16.960  0.00  0.00    +0.072 C 
ATOM      9  C   UNL     1      33.516 -22.414 -18.289  0.00  0.00    +0.017 C 
ATOM     10  C   UNL     1      34.813 -22.981 -15.886  0.00  0.00    +0.033 C 
ATOM     11  C   UNL     1      32.796 -22.937 -17.215  0.00  0.00    +0.021 C 
BRANCH   7  12
ATOM     12  S   UNL     1      32.544 -23.877 -14.670  0.00  0.00    +0.057 S 
ATOM     13  O   UNL     1      31.267 -24.366 -15.168  0.00  0.00    -0.153 OA
ATOM     14  O   UNL     1      33.417 -24.767 -13.917  0.00  0.00    -0.153 OA
BRANCH  12  15
ATOM     15  N   UNL     1      32.269 -22.467 -13.744  0.00  0.00    -0.203 NA
ATOM     16  H   UNL     1      31.461 -21.968 -14.116  0.00  0.00    +0.144 HD
ATOM     17  H   UNL     1      33.091 -21.865 -13.788  0.00  0.00    +0.144 HD
ENDBRANCH  12  15
ENDBRANCH   7  12
ENDBRANCH   2   6
BRANCH   3  18
ATOM     18  C   UNL     1      36.177 -20.364 -21.224  0.00  0.00    +0.152 C 
BRANCH  18  19
ATOM     19  S   UNL     1      36.493 -18.585 -21.223  0.00  0.00    -0.047 S 
BRANCH  19  31
ATOM     20  O   UNL     1      34.887 -18.782 -23.265  0.00  0.00    -0.262 OA
ATOM     21  N   UNL     1      34.799 -16.698 -22.180  0.00  0.00    -0.250 N 
ATOM     22  C   UNL     1      33.475 -15.260 -20.639  0.00  0.00    +0.027 C 
ATOM     23  C   UNL     1      33.428 -14.136 -21.652  0.00  0.00    +0.029 C 
ATOM     24  C   UNL     1      34.741 -16.074 -20.841  0.00  0.00    +0.099 C 
ATOM     25  C   UNL     1      33.687 -14.648 -23.044  0.00  0.00    -0.009 C 
ATOM     26  C   UNL     1      34.351 -15.873 -23.287  0.00  0.00    +0.051 C 
ATOM     27  C   UNL     1      33.277 -13.836 -24.119  0.00  0.00    -0.007 C 
ATOM     28  C   UNL     1      34.594 -16.226 -24.628  0.00  0.00    +0.014 C 
ATOM     29  C   UNL     1      33.509 -14.223 -25.433  0.00  0.00    -0.022 C 
ATOM     30  C   UNL     1      34.172 -15.415 -25.686  0.00  0.00    -0.003 C 
ATOM     31  C   UNL     1      35.258 -18.022 -22.375  0.00  0.00    +0.280 C 
ATOM     32  C   UNL     1      33.037 -13.371 -26.562  0.00  0.00    +0.031 C 
ENDBRANCH  19  31
ENDBRANCH  18  19
ENDBRANCH   3  18
TORSDOF 6
ENDMDL
MODEL 4
REMARK VINA RESULT:     -11.5      3.228     10.692
REMARK  Name = 24878044
REMARK  6 active torsions:
REMARK  status: ('A' for Active; 'I' for Inactive)
REMARK    1  A    between atoms: N_2  and  C_6
REMARK    2  A    between atoms: C_3  and  C_18
REMARK    3  A    between atoms: C_7  and  S_12
REMARK    4  A    between atoms: S_12  and  N_15
REMARK    5  A    between atoms: C_18  and  S_19
REMARK    6  A    between atoms: S_19  and  C_31
REMARK                            x       y       z     vdW  Elec       q    Type
REMARK                         _______ _______ _______ _____ _____    ______ ____
ROOT
ATOM      1  O   UNL     1      33.946 -20.140 -20.874  0.00  0.00    -0.274 OA
ATOM      2  N   UNL     1      35.761 -18.647 -20.904  0.00  0.00    -0.283 N 
ATOM      3  C   UNL     1      35.116 -19.849 -20.636  0.00  0.00    +0.238 C 
ATOM      4  H   UNL     1      36.705 -18.589 -20.628  0.00  0.00    +0.155 HD
ENDROOT
BRANCH   2   6
ATOM      5 CL   UNL     1      35.489 -18.749 -23.937  0.00  0.00    -0.081 Cl
ATOM      6  C   UNL     1      35.219 -17.498 -21.527  0.00  0.00    +0.061 C 
ATOM      7  C   UNL     1      34.142 -15.204 -22.692  0.00  0.00    +0.123 C 
ATOM      8  C   UNL     1      35.047 -17.433 -22.909  0.00  0.00    +0.072 C 
ATOM      9  C   UNL     1      34.852 -16.415 -20.727  0.00  0.00    +0.017 C 
ATOM     10  C   UNL     1      34.508 -16.286 -23.492  0.00  0.00    +0.033 C 
ATOM     11  C   UNL     1      34.313 -15.268 -21.309  0.00  0.00    +0.021 C 
BRANCH   7  12
ATOM     12  S   UNL     1      33.467 -13.767 -23.421  0.00  0.00    +0.057 S 
ATOM     13  O   UNL     1      34.478 -12.719 -23.391  0.00  0.00    -0.153 OA
ATOM     14  O   UNL     1      32.845 -14.138 -24.684  0.00  0.00    -0.153 OA
BRANCH  12  15
ATOM     15  N   UNL     1      32.239 -13.379 -22.297  0.00  0.00    -0.203 NA
ATOM     16  H   UNL     1      31.372 -13.844 -22.568  0.00  0.00    +0.144 HD
ATOM     17  H   UNL     1      32.095 -12.370 -22.286  0.00  0.00    +0.144 HD
ENDBRANCH  12  15
ENDBRANCH   7  12
ENDBRANCH   2   6
BRANCH   3  18
ATOM     18  C   UNL     1      36.031 -20.845 -19.955  0.00  0.00    +0.152 C 
BRANCH  18  19
ATOM     19  S   UNL     1      35.021 -22.082 -19.110  0.00  0.00    -0.047 S 
BRANCH  19  31
ATOM     20  O   UNL     1      36.733 -21.356 -17.286  0.00  0.00    -0.262 OA
ATOM     21  N   UNL     1      35.108 -22.870 -16.520  0.00  0.00    -0.250 N 
ATOM     22  C   UNL     1      33.024 -23.115 -15.181  0.00  0.00    +0.027 C 
ATOM     23  C   UNL     1      33.657 -24.172 -14.300  0.00  0.00    +0.029 C 
ATOM     24  C   UNL     1      33.658 -23.156 -16.560  0.00  0.00    +0.099 C 
ATOM     25  C   UNL     1      35.159 -24.095 -14.355  0.00  0.00    -0.009 C 
ATOM     26  C   UNL     1      35.845 -23.477 -15.426  0.00  0.00    +0.051 C 
ATOM     27  C   UNL     1      35.877 -24.706 -13.309  0.00  0.00    -0.007 C 
ATOM     28  C   UNL     1      37.252 -23.516 -15.406  0.00  0.00    +0.014 C 
ATOM     29  C   UNL     1      37.266 -24.708 -13.304  0.00  0.00    -0.022 C 
ATOM     30  C   UNL     1      37.953 -24.117 -14.355  0.00  0.00    -0.003 C 
ATOM     31  C   UNL     1      35.742 -22.052 -17.483  0.00  0.00    +0.280 C 
ATOM     32  C   UNL     1      38.013 -25.326 -12.171  0.00  0.00    +0.031 C 
ENDBRANCH  19  31
ENDBRANCH  18  19
ENDBRANCH   3  18
TORSDOF 6
ENDMDL
MODEL 5
REMARK VINA RESULT:     -11.4      4.152     10.799
REMARK  Name = 24878044
REMARK  6 active torsions:
REMARK  status: ('A' for Active; 'I' for Inactive)
REMARK    1  A    between atoms: N_2  and  C_6
REMARK    2  A    between atoms: C_3  and  C_18
REMARK    3  A    between atoms: C_7  and  S_12
REMARK    4  A    between atoms: S_12  and  N_15
REMARK    5  A    between atoms: C_18  and  S_19
REMARK    6  A    between atoms: S_19  and  C_31
REMARK                            x       y       z     vdW  Elec       q    Type
REMARK                         _______ _______ _______ _____ _____    ______ ____
ROOT
ATOM      1  O   UNL     1      31.936 -22.169 -17.524  0.00  0.00    -0.274 OA
ATOM      2  N   UNL     1      34.178 -22.634 -18.054  0.00  0.00    -0.283 N 
ATOM      3  C   UNL     1      32.968 -22.824 -17.397  0.00  0.00    +0.238 C 
ATOM      4  H   UNL     1      34.905 -23.253 -17.814  0.00  0.00    +0.155 HD
ENDROOT
BRANCH   2   6
ATOM      5 CL   UNL     1      37.115 -21.869 -18.333  0.00  0.00    -0.081 Cl
ATOM      6  C   UNL     1      34.485 -21.654 -19.028  0.00  0.00    +0.061 C 
ATOM      7  C   UNL     1      35.020 -19.720 -20.966  0.00  0.00    +0.123 C 
ATOM      8  C   UNL     1      35.794 -21.227 -19.243  0.00  0.00    +0.072 C 
ATOM      9  C   UNL     1      33.442 -21.114 -19.781  0.00  0.00    +0.017 C 
ATOM     10  C   UNL     1      36.062 -20.260 -20.213  0.00  0.00    +0.033 C 
ATOM     11  C   UNL     1      33.709 -20.147 -20.751  0.00  0.00    +0.021 C 
BRANCH   7  12
ATOM     12  S   UNL     1      35.354 -18.509 -22.178  0.00  0.00    +0.057 S 
ATOM     13  O   UNL     1      34.782 -18.953 -23.441  0.00  0.00    -0.153 OA
ATOM     14  O   UNL     1      34.996 -17.204 -21.640  0.00  0.00    -0.153 OA
BRANCH  12  15
ATOM     15  N   UNL     1      37.057 -18.612 -22.280  0.00  0.00    -0.203 NA
ATOM     16  H   UNL     1      37.324 -18.913 -23.218  0.00  0.00    +0.144 HD
ATOM     17  H   UNL     1      37.399 -19.287 -21.596  0.00  0.00    +0.144 HD
ENDBRANCH  12  15
ENDBRANCH   7  12
ENDBRANCH   2   6
BRANCH   3  18
ATOM     18  C   UNL     1      33.028 -23.979 -16.421  0.00  0.00    +0.152 C 
BRANCH  18  19
ATOM     19  S   UNL     1      33.144 -23.320 -14.743  0.00  0.00    -0.047 S 
BRANCH  19  31
ATOM     20  O   UNL     1      35.538 -22.458 -15.302  0.00  0.00    -0.262 OA
ATOM     21  N   UNL     1      35.469 -23.996 -13.526  0.00  0.00    -0.250 N 
ATOM     22  C   UNL     1      35.596 -24.258 -11.054  0.00  0.00    +0.027 C 
ATOM     23  C   UNL     1      36.730 -25.254 -11.170  0.00  0.00    +0.029 C 
ATOM     24  C   UNL     1      34.724 -24.334 -12.295  0.00  0.00    +0.099 C 
ATOM     25  C   UNL     1      37.431 -25.127 -12.497  0.00  0.00    -0.009 C 
ATOM     26  C   UNL     1      36.816 -24.530 -13.621  0.00  0.00    +0.051 C 
ATOM     27  C   UNL     1      38.727 -25.668 -12.599  0.00  0.00    -0.007 C 
ATOM     28  C   UNL     1      37.539 -24.519 -14.829  0.00  0.00    +0.014 C 
ATOM     29  C   UNL     1      39.427 -25.621 -13.798  0.00  0.00    -0.022 C 
ATOM     30  C   UNL     1      38.830 -25.050 -14.913  0.00  0.00    -0.003 C 
ATOM     31  C   UNL     1      34.910 -23.197 -14.550  0.00  0.00    +0.280 C 
ATOM     32  C   UNL     1      40.812 -26.164 -13.881  0.00  0.00    +0.031 C 
ENDBRANCH  19  31
ENDBRANCH  18  19
ENDBRANCH   3  18
TORSDOF 6
ENDMDL
MODEL 6
REMARK VINA RESULT:     -11.4      5.703      8.903
REMARK  Name = 24878044
REMARK  6 active torsions:
REMARK  status: ('A' for Active; 'I' for Inactive)
REMARK    1  A    between atoms: N_2  and  C_6
REMARK    2  A    between atoms: C_3  and  C_18
REMARK    3  A    between atoms: C_7  and  S_12
REMARK    4  A    between atoms: S_12  and  N_15
REMARK    5  A    between atoms: C_18  and  S_19
REMARK    6  A    between atoms: S_19  and  C_31
REMARK                            x       y       z     vdW  Elec       q    Type
REMARK                         _______ _______ _______ _____ _____    ______ ____
ROOT
ATOM      1  O   UNL     1      31.989 -13.833 -19.982  0.00  0.00    -0.274 OA
ATOM      2  N   UNL     1      33.161 -13.676 -22.013  0.00  0.00    -0.283 N 
ATOM      3  C   UNL     1      32.309 -13.235 -21.007  0.00  0.00    +0.238 C 
ATOM      4  H   UNL     1      33.291 -13.063 -22.772  0.00  0.00    +0.155 HD
ENDROOT
BRANCH   2   6
ATOM      5 CL   UNL     1      33.719 -14.792 -24.793  0.00  0.00    -0.081 Cl
ATOM      6  C   UNL     1      33.863 -14.904 -22.071  0.00  0.00    +0.061 C 
ATOM      7  C   UNL     1      35.251 -17.323 -22.113  0.00  0.00    +0.123 C 
ATOM      8  C   UNL     1      34.174 -15.507 -23.288  0.00  0.00    +0.072 C 
ATOM      9  C   UNL     1      34.246 -15.510 -20.873  0.00  0.00    +0.017 C 
ATOM     10  C   UNL     1      34.868 -16.717 -23.310  0.00  0.00    +0.033 C 
ATOM     11  C   UNL     1      34.940 -16.719 -20.895  0.00  0.00    +0.021 C 
BRANCH   7  12
ATOM     12  S   UNL     1      36.119 -18.837 -22.139  0.00  0.00    +0.057 S 
ATOM     13  O   UNL     1      35.575 -19.661 -23.209  0.00  0.00    -0.153 OA
ATOM     14  O   UNL     1      37.547 -18.553 -22.100  0.00  0.00    -0.153 OA
BRANCH  12  15
ATOM     15  N   UNL     1      35.652 -19.506 -20.637  0.00  0.00    -0.203 NA
ATOM     16  H   UNL     1      36.481 -19.818 -20.132  0.00  0.00    +0.144 HD
ATOM     17  H   UNL     1      35.031 -20.299 -20.796  0.00  0.00    +0.144 HD
ENDBRANCH  12  15
ENDBRANCH   7  12
ENDBRANCH   2   6
BRANCH   3  18
ATOM     18  C   UNL     1      31.744 -11.862 -21.303  0.00  0.00    +0.152 C 
BRANCH  18  19
ATOM     19  S   UNL     1      32.841 -11.018 -22.463  0.00  0.00    -0.047 S 
BRANCH  19  31
ATOM     20  O   UNL     1      31.844  -9.068 -21.054  0.00  0.00    -0.262 OA
ATOM     21  N   UNL     1      33.179  -8.358 -22.853  0.00  0.00    -0.250 N 
ATOM     22  C   UNL     1      35.395  -7.426 -23.501  0.00  0.00    +0.027 C 
ATOM     23  C   UNL     1      34.748  -6.257 -24.212  0.00  0.00    +0.029 C 
ATOM     24  C   UNL     1      34.462  -8.624 -23.539  0.00  0.00    +0.099 C 
ATOM     25  C   UNL     1      33.342  -6.033 -23.722  0.00  0.00    -0.009 C 
ATOM     26  C   UNL     1      32.596  -7.048 -23.079  0.00  0.00    +0.051 C 
ATOM     27  C   UNL     1      32.765  -4.772 -23.965  0.00  0.00    -0.007 C 
ATOM     28  C   UNL     1      31.269  -6.749 -22.717  0.00  0.00    +0.014 C 
ATOM     29  C   UNL     1      31.460  -4.498 -23.574  0.00  0.00    -0.022 C 
ATOM     30  C   UNL     1      30.712  -5.488 -22.954  0.00  0.00    -0.003 C 
ATOM     31  C   UNL     1      32.557  -9.318 -22.021  0.00  0.00    +0.280 C 
ATOM     32  C   UNL     1      30.875  -3.146 -23.804  0.00  0.00    +0.031 C 
ENDBRANCH  19  31
ENDBRANCH  18  19
ENDBRANCH   3  18
TORSDOF 6
ENDMDL
MODEL 7
REMARK VINA RESULT:     -11.3      2.297      2.735
REMARK  Name = 24878044
REMARK  6 active torsions:
REMARK  status: ('A' for Active; 'I' for Inactive)
REMARK    1  A    between atoms: N_2  and  C_6
REMARK    2  A    between atoms: C_3  and  C_18
REMARK    3  A    between atoms: C_7  and  S_12
REMARK    4  A    between atoms: S_12  and  N_15
REMARK    5  A    between atoms: C_18  and  S_19
REMARK    6  A    between atoms: S_19  and  C_31
REMARK                            x       y       z     vdW  Elec       q    Type
REMARK                         _______ _______ _______ _____ _____    ______ ____
ROOT
ATOM      1  O   UNL     1      33.817 -20.426 -20.168  0.00  0.00    -0.274 OA
ATOM      2  N   UNL     1      35.487 -21.582 -18.985  0.00  0.00    -0.283 N 
ATOM      3  C   UNL     1      34.984 -20.772 -19.997  0.00  0.00    +0.238 C 
ATOM      4  H   UNL     1      36.454 -21.764 -19.015  0.00  0.00    +0.155 HD
ENDROOT
BRANCH   2   6
ATOM      5 CL   UNL     1      37.082 -22.225 -16.470  0.00  0.00    -0.081 Cl
ATOM      6  C   UNL     1      34.770 -22.173 -17.918  0.00  0.00    +0.061 C 
ATOM      7  C   UNL     1      33.297 -23.334 -15.853  0.00  0.00    +0.123 C 
ATOM      8  C   UNL     1      35.397 -22.510 -16.719  0.00  0.00    +0.072 C 
ATOM      9  C   UNL     1      33.406 -22.417 -18.085  0.00  0.00    +0.017 C 
ATOM     10  C   UNL     1      34.660 -23.090 -15.686  0.00  0.00    +0.033 C 
ATOM     11  C   UNL     1      32.670 -22.997 -17.052  0.00  0.00    +0.021 C 
BRANCH   7  12
ATOM     12  S   UNL     1      32.375 -24.060 -14.561  0.00  0.00    +0.057 S 
ATOM     13  O   UNL     1      31.087 -24.480 -15.094  0.00  0.00    -0.153 OA
ATOM     14  O   UNL     1      33.222 -25.025 -13.873  0.00  0.00    -0.153 OA
BRANCH  12  15
ATOM     15  N   UNL     1      32.134 -22.714 -13.536  0.00  0.00    -0.203 NA
ATOM     16  H   UNL     1      31.223 -22.298 -13.730  0.00  0.00    +0.144 HD
ATOM     17  H   UNL     1      32.866 -22.024 -13.703  0.00  0.00    +0.144 HD
ENDBRANCH  12  15
ENDBRANCH   7  12
ENDBRANCH   2   6
BRANCH   3  18
ATOM     18  C   UNL     1      36.064 -20.330 -20.960  0.00  0.00    +0.152 C 
BRANCH  18  19
ATOM     19  S   UNL     1      35.293 -19.461 -22.344  0.00  0.00    -0.047 S 
BRANCH  19  31
ATOM     20  O   UNL     1      35.728 -17.568 -20.608  0.00  0.00    -0.262 OA
ATOM     21  N   UNL     1      34.685 -16.831 -22.582  0.00  0.00    -0.250 N 
ATOM     22  C   UNL     1      35.020 -15.624 -24.733  0.00  0.00    +0.027 C 
ATOM     23  C   UNL     1      33.908 -14.647 -24.412  0.00  0.00    +0.029 C 
ATOM     24  C   UNL     1      34.739 -16.954 -24.054  0.00  0.00    +0.099 C 
ATOM     25  C   UNL     1      33.632 -14.604 -22.933  0.00  0.00    -0.009 C 
ATOM     26  C   UNL     1      34.002 -15.659 -22.065  0.00  0.00    +0.051 C 
ATOM     27  C   UNL     1      32.946 -13.481 -22.435  0.00  0.00    -0.007 C 
ATOM     28  C   UNL     1      33.640 -15.542 -20.710  0.00  0.00    +0.014 C 
ATOM     29  C   UNL     1      32.624 -13.382 -21.086  0.00  0.00    -0.022 C 
ATOM     30  C   UNL     1      32.968 -14.415 -20.226  0.00  0.00    -0.003 C 
ATOM     31  C   UNL     1      35.267 -17.793 -21.723  0.00  0.00    +0.280 C 
ATOM     32  C   UNL     1      31.930 -12.170 -20.567  0.00  0.00    +0.031 C 
ENDBRANCH  19  31
ENDBRANCH  18  19
ENDBRANCH   3  18
TORSDOF 6
ENDMDL
MODEL 8
REMARK VINA RESULT:     -11.3      1.879      2.176
REMARK  Name = 24878044
REMARK  6 active torsions:
REMARK  status: ('A' for Active; 'I' for Inactive)
REMARK    1  A    between atoms: N_2  and  C_6
REMARK    2  A    between atoms: C_3  and  C_18
REMARK    3  A    between atoms: C_7  and  S_12
REMARK    4  A    between atoms: S_12  and  N_15
REMARK    5  A    between atoms: C_18  and  S_19
REMARK    6  A    between atoms: S_19  and  C_31
REMARK                            x       y       z     vdW  Elec       q    Type
REMARK                         _______ _______ _______ _____ _____    ______ ____
ROOT
ATOM      1  O   UNL     1      37.541 -19.125 -19.958  0.00  0.00    -0.274 OA
ATOM      2  N   UNL     1      35.681 -20.382 -20.655  0.00  0.00    -0.283 N 
ATOM      3  C   UNL     1      36.720 -19.469 -20.804  0.00  0.00    +0.238 C 
ATOM      4  H   UNL     1      35.110 -20.524 -21.444  0.00  0.00    +0.155 HD
ENDROOT
BRANCH   2   6
ATOM      5 CL   UNL     1      32.718 -20.911 -20.179  0.00  0.00    -0.081 Cl
ATOM      6  C   UNL     1      35.352 -21.130 -19.499  0.00  0.00    +0.061 C 
ATOM      7  C   UNL     1      34.772 -22.610 -17.207  0.00  0.00    +0.123 C 
ATOM      8  C   UNL     1      34.028 -21.433 -19.182  0.00  0.00    +0.072 C 
ATOM      9  C   UNL     1      36.386 -21.567 -18.671  0.00  0.00    +0.017 C 
ATOM     10  C   UNL     1      33.739 -22.173 -18.036  0.00  0.00    +0.033 C 
ATOM     11  C   UNL     1      36.096 -22.307 -17.525  0.00  0.00    +0.021 C 
BRANCH   7  12
ATOM     12  S   UNL     1      34.409 -23.536 -15.772  0.00  0.00    +0.057 S 
ATOM     13  O   UNL     1      32.964 -23.678 -15.669  0.00  0.00    -0.153 OA
ATOM     14  O   UNL     1      35.256 -24.721 -15.760  0.00  0.00    -0.153 OA
BRANCH  12  15
ATOM     15  N   UNL     1      34.946 -22.467 -14.551  0.00  0.00    -0.203 NA
ATOM     16  H   UNL     1      35.769 -22.859 -14.094  0.00  0.00    +0.144 HD
ATOM     17  H   UNL     1      34.204 -22.336 -13.863  0.00  0.00    +0.144 HD
ENDBRANCH  12  15
ENDBRANCH   7  12
ENDBRANCH   2   6
BRANCH   3  18
ATOM     18  C   UNL     1      36.752 -18.869 -22.194  0.00  0.00    +0.152 C 
BRANCH  18  19
ATOM     19  S   UNL     1      35.074 -18.390 -22.661  0.00  0.00    -0.047 S 
BRANCH  19  31
ATOM     20  O   UNL     1      35.319 -16.762 -20.642  0.00  0.00    -0.262 OA
ATOM     21  N   UNL     1      34.292 -15.799 -22.524  0.00  0.00    -0.250 N 
ATOM     22  C   UNL     1      34.611 -14.257 -24.451  0.00  0.00    +0.027 C 
ATOM     23  C   UNL     1      33.424 -13.414 -24.034  0.00  0.00    +0.029 C 
ATOM     24  C   UNL     1      34.402 -15.690 -23.994  0.00  0.00    +0.099 C 
ATOM     25  C   UNL     1      33.098 -13.617 -22.578  0.00  0.00    -0.009 C 
ATOM     26  C   UNL     1      33.512 -14.766 -21.866  0.00  0.00    +0.051 C 
ATOM     27  C   UNL     1      32.319 -12.630 -21.946  0.00  0.00    -0.007 C 
ATOM     28  C   UNL     1      33.099 -14.883 -20.525  0.00  0.00    +0.014 C 
ATOM     29  C   UNL     1      31.948 -12.760 -20.613  0.00  0.00    -0.022 C 
ATOM     30  C   UNL     1      32.335 -13.889 -19.905  0.00  0.00    -0.003 C 
ATOM     31  C   UNL     1      34.911 -16.842 -21.796  0.00  0.00    +0.280 C 
ATOM     32  C   UNL     1      31.154 -11.689 -19.946  0.00  0.00    +0.031 C 
ENDBRANCH  19  31
ENDBRANCH  18  19
ENDBRANCH   3  18
TORSDOF 6
ENDMDL
MODEL 9
REMARK VINA RESULT:     -11.2      7.865     13.800
REMARK  Name = 24878044
REMARK  6 active torsions:
REMARK  status: ('A' for Active; 'I' for Inactive)
REMARK    1  A    between atoms: N_2  and  C_6
REMARK    2  A    between atoms: C_3  and  C_18
REMARK    3  A    between atoms: C_7  and  S_12
REMARK    4  A    between atoms: S_12  and  N_15
REMARK    5  A    between atoms: C_18  and  S_19
REMARK    6  A    between atoms: S_19  and  C_31
REMARK                            x       y       z     vdW  Elec       q    Type
REMARK                         _______ _______ _______ _____ _____    ______ ____
ROOT
ATOM      1  O   UNL     1      31.998  -8.600 -19.958  0.00  0.00    -0.274 OA
ATOM      2  N   UNL     1      31.892  -8.776 -22.299  0.00  0.00    -0.283 N 
ATOM      3  C   UNL     1      31.939  -9.255 -20.995  0.00  0.00    +0.238 C 
ATOM      4  H   UNL     1      31.860  -9.454 -23.012  0.00  0.00    +0.155 HD
ENDROOT
BRANCH   2   6
ATOM      5 CL   UNL     1      34.439  -7.750 -23.621  0.00  0.00    -0.081 Cl
ATOM      6  C   UNL     1      31.884  -7.424 -22.720  0.00  0.00    +0.061 C 
ATOM      7  C   UNL     1      31.801  -4.755 -23.525  0.00  0.00    +0.123 C 
ATOM      8  C   UNL     1      32.994  -6.848 -23.337  0.00  0.00    +0.072 C 
ATOM      9  C   UNL     1      30.733  -6.666 -22.505  0.00  0.00    +0.017 C 
ATOM     10  C   UNL     1      32.952  -5.513 -23.740  0.00  0.00    +0.033 C 
ATOM     11  C   UNL     1      30.691  -5.331 -22.908  0.00  0.00    +0.021 C 
BRANCH   7  12
ATOM     12  S   UNL     1      31.749  -3.084 -24.029  0.00  0.00    +0.057 S 
ATOM     13  O   UNL     1      31.983  -2.244 -22.863  0.00  0.00    -0.153 OA
ATOM     14  O   UNL     1      32.586  -2.931 -25.211  0.00  0.00    -0.153 OA
BRANCH  12  15
ATOM     15  N   UNL     1      30.111  -2.936 -24.495  0.00  0.00    -0.203 NA
ATOM     16  H   UNL     1      29.514  -3.055 -23.676  0.00  0.00    +0.144 HD
ATOM     17  H   UNL     1      29.888  -3.651 -25.186  0.00  0.00    +0.144 HD
ENDBRANCH  12  15
ENDBRANCH   7  12
ENDBRANCH   2   6
BRANCH   3  18
ATOM     18  C   UNL     1      31.931 -10.769 -20.948  0.00  0.00    +0.152 C 
BRANCH  18  19
ATOM     19  S   UNL     1      32.699 -11.404 -22.454  0.00  0.00    -0.047 S 
BRANCH  19  31
ATOM     20  O   UNL     1      32.135 -13.565 -21.115  0.00  0.00    -0.262 OA
ATOM     21  N   UNL     1      33.404 -13.950 -23.055  0.00  0.00    -0.250 N 
ATOM     22  C   UNL     1      33.337 -14.783 -25.400  0.00  0.00    +0.027 C 
ATOM     23  C   UNL     1      34.435 -15.789 -25.124  0.00  0.00    +0.029 C 
ATOM     24  C   UNL     1      33.505 -13.583 -24.484  0.00  0.00    +0.099 C 
ATOM     25  C   UNL     1      34.552 -16.076 -23.651  0.00  0.00    -0.009 C 
ATOM     26  C   UNL     1      34.062 -15.185 -22.667  0.00  0.00    +0.051 C 
ATOM     27  C   UNL     1      35.213 -17.259 -23.272  0.00  0.00    -0.007 C 
ATOM     28  C   UNL     1      34.279 -15.524 -21.318  0.00  0.00    +0.014 C 
ATOM     29  C   UNL     1      35.391 -17.580 -21.932  0.00  0.00    -0.022 C 
ATOM     30  C   UNL     1      34.927 -16.709 -20.956  0.00  0.00    -0.003 C 
ATOM     31  C   UNL     1      32.706 -13.152 -22.119  0.00  0.00    +0.280 C 
ATOM     32  C   UNL     1      36.060 -18.854 -21.546  0.00  0.00    +0.031 C 
ENDBRANCH  19  31
ENDBRANCH  18  19
ENDBRANCH   3  18
TORSDOF 6
ENDMDL
