MODEL 1
REMARK VINA RESULT:     -11.0      0.000      0.000
REMARK  Name = 6450551
REMARK  5 active torsions:
REMARK  status: ('A' for Active; 'I' for Inactive)
REMARK    1  A    between atoms: C_5  and  C_11
REMARK    2  A    between atoms: C_7  and  S_19
REMARK    3  A    between atoms: C_12  and  C_14
REMARK    4  A    between atoms: S_19  and  C_20
REMARK    5  A    between atoms: C_21  and  C_28
REMARK                            x       y       z     vdW  Elec       q    Type
REMARK                         _______ _______ _______ _____ _____    ______ ____
ROOT
ATOM      1  N   UNL     1      37.042 -20.101 -19.967  0.00  0.00    -0.276 N 
ATOM      2  N   UNL     1      36.869 -18.950 -20.637  0.00  0.00    -0.173 NA
ATOM      3  C   UNL     1      34.879 -20.036 -20.324  0.00  0.00    +0.036 A 
ATOM      4  C   UNL     1      35.886 -20.802 -19.747  0.00  0.00    +0.076 A 
ATOM      5  C   UNL     1      35.552 -18.913 -20.853  0.00  0.00    +0.102 A 
ATOM      6  C   UNL     1      35.644 -22.016 -19.102  0.00  0.00    +0.025 C 
ATOM      7  C   UNL     1      34.317 -22.455 -19.052  0.00  0.00    +0.031 C 
ATOM      8  C   UNL     1      33.550 -20.490 -20.266  0.00  0.00    +0.004 C 
ATOM      9  C   UNL     1      33.287 -21.706 -19.624  0.00  0.00    +0.007 C 
ATOM     10  H   UNL     1      37.923 -20.415 -19.661  0.00  0.00    +0.189 HD
ENDROOT
BRANCH   5  11
ATOM     11  C   UNL     1      34.913 -17.850 -21.543  0.00  0.00    +0.022 C 
ATOM     12  C   UNL     1      35.321 -17.229 -22.681  0.00  0.00    +0.021 C 
BRANCH  12  14
ATOM     13  N   UNL     1      34.530 -16.210 -24.682  0.00  0.00    -0.244 NA
ATOM     14  C   UNL     1      34.617 -16.116 -23.344  0.00  0.00    +0.081 C 
ATOM     15  C   UNL     1      34.112 -15.090 -22.581  0.00  0.00    +0.019 C 
ATOM     16  C   UNL     1      33.456 -14.062 -23.250  0.00  0.00    +0.003 C 
ATOM     17  C   UNL     1      33.886 -15.194 -25.298  0.00  0.00    +0.099 C 
ATOM     18  C   UNL     1      33.337 -14.108 -24.635  0.00  0.00    +0.021 C 
ENDBRANCH  12  14
ENDBRANCH   5  11
BRANCH   7  19
ATOM     19  S   UNL     1      33.937 -24.001 -18.243  0.00  0.00    -0.087 S 
BRANCH  19  20
ATOM     20  C   UNL     1      33.146 -23.423 -16.748  0.00  0.00    +0.034 C 
ATOM     21  C   UNL     1      33.841 -23.303 -15.543  0.00  0.00    +0.059 C 
ATOM     22  C   UNL     1      31.793 -23.087 -16.805  0.00  0.00    +0.007 C 
ATOM     23  C   UNL     1      33.184 -22.847 -14.400  0.00  0.00    +0.005 C 
ATOM     24  C   UNL     1      31.136 -22.631 -15.662  0.00  0.00    +0.001 C 
ATOM     25  C   UNL     1      31.832 -22.511 -14.459  0.00  0.00    +0.000 C 
BRANCH  21  28
ATOM     26  O   UNL     1      36.125 -22.782 -15.644  0.00  0.00    -0.270 OA
ATOM     27  N   UNL     1      35.562 -24.945 -15.031  0.00  0.00    -0.299 N 
ATOM     28  C   UNL     1      35.255 -23.639 -15.423  0.00  0.00    +0.246 C 
ATOM     29  C   UNL     1      36.914 -25.424 -14.846  0.00  0.00    +0.111 C 
ATOM     30  H   UNL     1      34.819 -25.572 -14.873  0.00  0.00    +0.150 HD
ENDBRANCH  21  28
ENDBRANCH  19  20
ENDBRANCH   7  19
TORSDOF 5
ENDMDL
MODEL 2
REMARK VINA RESULT:     -11.0      3.318      9.911
REMARK  Name = 6450551
REMARK  5 active torsions:
REMARK  status: ('A' for Active; 'I' for Inactive)
REMARK    1  A    between atoms: C_5  and  C_11
REMARK    2  A    between atoms: C_7  and  S_19
REMARK    3  A    between atoms: C_12  and  C_14
REMARK    4  A    between atoms: S_19  and  C_20
REMARK    5  A    between atoms: C_21  and  C_28
REMARK                            x       y       z     vdW  Elec       q    Type
REMARK                         _______ _______ _______ _____ _____    ______ ____
ROOT
ATOM      1  N   UNL     1      32.766 -21.293 -19.647  0.00  0.00    -0.276 N 
ATOM      2  N   UNL     1      33.083 -22.109 -18.628  0.00  0.00    -0.173 NA
ATOM      3  C   UNL     1      34.946 -21.110 -19.505  0.00  0.00    +0.036 A 
ATOM      4  C   UNL     1      33.840 -20.664 -20.218  0.00  0.00    +0.076 A 
ATOM      5  C   UNL     1      34.411 -21.995 -18.544  0.00  0.00    +0.102 A 
ATOM      6  C   UNL     1      33.931 -19.757 -21.277  0.00  0.00    +0.025 C 
ATOM      7  C   UNL     1      35.208 -19.298 -21.610  0.00  0.00    +0.031 C 
ATOM      8  C   UNL     1      36.224 -20.639 -19.852  0.00  0.00    +0.004 C 
ATOM      9  C   UNL     1      36.337 -19.730 -20.911  0.00  0.00    +0.007 C 
ATOM     10  H   UNL     1      31.841 -21.160 -19.958  0.00  0.00    +0.189 HD
ENDROOT
BRANCH   5  11
ATOM     11  C   UNL     1      35.185 -22.697 -17.584  0.00  0.00    +0.022 C 
ATOM     12  C   UNL     1      34.888 -22.924 -16.277  0.00  0.00    +0.021 C 
BRANCH  12  14
ATOM     13  N   UNL     1      37.062 -23.419 -15.442  0.00  0.00    -0.244 NA
ATOM     14  C   UNL     1      35.744 -23.653 -15.323  0.00  0.00    +0.081 C 
ATOM     15  C   UNL     1      35.163 -24.498 -14.407  0.00  0.00    +0.019 C 
ATOM     16  C   UNL     1      36.011 -25.165 -13.529  0.00  0.00    +0.003 C 
ATOM     17  C   UNL     1      37.855 -24.084 -14.573  0.00  0.00    +0.099 C 
ATOM     18  C   UNL     1      37.384 -24.960 -13.607  0.00  0.00    +0.021 C 
ENDBRANCH  12  14
ENDBRANCH   5  11
BRANCH   7  19
ATOM     19  S   UNL     1      35.396 -18.138 -22.955  0.00  0.00    -0.087 S 
BRANCH  19  20
ATOM     20  C   UNL     1      34.829 -16.626 -22.188  0.00  0.00    +0.034 C 
ATOM     21  C   UNL     1      34.393 -15.534 -22.942  0.00  0.00    +0.059 C 
ATOM     22  C   UNL     1      34.829 -16.552 -20.794  0.00  0.00    +0.007 C 
ATOM     23  C   UNL     1      33.958 -14.373 -22.302  0.00  0.00    +0.005 C 
ATOM     24  C   UNL     1      34.394 -15.391 -20.155  0.00  0.00    +0.001 C 
ATOM     25  C   UNL     1      33.959 -14.301 -20.909  0.00  0.00    +0.000 C 
BRANCH  21  28
ATOM     26  O   UNL     1      35.167 -16.268 -25.029  0.00  0.00    -0.270 OA
ATOM     27  N   UNL     1      33.408 -14.759 -25.027  0.00  0.00    -0.299 N 
ATOM     28  C   UNL     1      34.371 -15.554 -24.400  0.00  0.00    +0.246 C 
ATOM     29  C   UNL     1      33.244 -14.689 -26.462  0.00  0.00    +0.111 C 
ATOM     30  H   UNL     1      32.810 -14.217 -24.462  0.00  0.00    +0.150 HD
ENDBRANCH  21  28
ENDBRANCH  19  20
ENDBRANCH   7  19
TORSDOF 5
ENDMDL
MODEL 3
REMARK VINA RESULT:     -10.8      1.546      2.670
REMARK  Name = 6450551
REMARK  5 active torsions:
REMARK  status: ('A' for Active; 'I' for Inactive)
REMARK    1  A    between atoms: C_5  and  C_11
REMARK    2  A    between atoms: C_7  and  S_19
REMARK    3  A    between atoms: C_12  and  C_14
REMARK    4  A    between atoms: S_19  and  C_20
REMARK    5  A    between atoms: C_21  and  C_28
REMARK                            x       y       z     vdW  Elec       q    Type
REMARK                         _______ _______ _______ _____ _____    ______ ____
ROOT
ATOM      1  N   UNL     1      37.022 -19.985 -20.327  0.00  0.00    -0.276 N 
ATOM      2  N   UNL     1      36.881 -19.028 -21.259  0.00  0.00    -0.173 NA
ATOM      3  C   UNL     1      34.854 -19.897 -20.645  0.00  0.00    +0.036 A 
ATOM      4  C   UNL     1      35.843 -20.547 -19.916  0.00  0.00    +0.076 A 
ATOM      5  C   UNL     1      35.560 -18.977 -21.450  0.00  0.00    +0.102 A 
ATOM      6  C   UNL     1      35.567 -21.550 -18.984  0.00  0.00    +0.025 C 
ATOM      7  C   UNL     1      34.224 -21.893 -18.800  0.00  0.00    +0.031 C 
ATOM      8  C   UNL     1      33.509 -20.251 -20.448  0.00  0.00    +0.004 C 
ATOM      9  C   UNL     1      33.210 -21.255 -19.519  0.00  0.00    +0.007 C 
ATOM     10  H   UNL     1      37.898 -20.260 -19.970  0.00  0.00    +0.189 HD
ENDROOT
BRANCH   5  11
ATOM     11  C   UNL     1      34.949 -18.084 -22.369  0.00  0.00    +0.022 C 
ATOM     12  C   UNL     1      35.220 -16.766 -22.559  0.00  0.00    +0.021 C 
BRANCH  12  14
ATOM     13  N   UNL     1      33.892 -14.837 -22.990  0.00  0.00    -0.244 NA
ATOM     14  C   UNL     1      34.538 -15.887 -23.526  0.00  0.00    +0.081 C 
ATOM     15  C   UNL     1      34.600 -16.185 -24.867  0.00  0.00    +0.019 C 
ATOM     16  C   UNL     1      33.940 -15.328 -25.741  0.00  0.00    +0.003 C 
ATOM     17  C   UNL     1      33.263 -14.026 -23.868  0.00  0.00    +0.099 C 
ATOM     18  C   UNL     1      33.256 -14.226 -25.240  0.00  0.00    +0.021 C 
ENDBRANCH  12  14
ENDBRANCH   5  11
BRANCH   7  19
ATOM     19  S   UNL     1      33.800 -23.168 -17.624  0.00  0.00    -0.087 S 
BRANCH  19  20
ATOM     20  C   UNL     1      35.087 -22.953 -16.403  0.00  0.00    +0.034 C 
ATOM     21  C   UNL     1      34.873 -23.216 -15.048  0.00  0.00    +0.059 C 
ATOM     22  C   UNL     1      36.338 -22.508 -16.833  0.00  0.00    +0.007 C 
ATOM     23  C   UNL     1      35.906 -23.035 -14.129  0.00  0.00    +0.005 C 
ATOM     24  C   UNL     1      37.372 -22.326 -15.914  0.00  0.00    +0.001 C 
ATOM     25  C   UNL     1      37.155 -22.590 -14.562  0.00  0.00    +0.000 C 
BRANCH  21  28
ATOM     26  O   UNL     1      33.421 -24.882 -14.266  0.00  0.00    -0.270 OA
ATOM     27  N   UNL     1      32.591 -22.720 -14.365  0.00  0.00    -0.299 N 
ATOM     28  C   UNL     1      33.588 -23.683 -14.541  0.00  0.00    +0.246 C 
ATOM     29  C   UNL     1      31.274 -23.021 -13.849  0.00  0.00    +0.111 C 
ATOM     30  H   UNL     1      32.796 -21.787 -14.605  0.00  0.00    +0.150 HD
ENDBRANCH  21  28
ENDBRANCH  19  20
ENDBRANCH   7  19
TORSDOF 5
ENDMDL
MODEL 4
REMARK VINA RESULT:     -10.6      5.573     11.943
REMARK  Name = 6450551
REMARK  5 active torsions:
REMARK  status: ('A' for Active; 'I' for Inactive)
REMARK    1  A    between atoms: C_5  and  C_11
REMARK    2  A    between atoms: C_7  and  S_19
REMARK    3  A    between atoms: C_12  and  C_14
REMARK    4  A    between atoms: S_19  and  C_20
REMARK    5  A    between atoms: C_21  and  C_28
REMARK                            x       y       z     vdW  Elec       q    Type
REMARK                         _______ _______ _______ _____ _____    ______ ____
ROOT
ATOM      1  N   UNL     1      34.933 -14.737 -23.850  0.00  0.00    -0.276 N 
ATOM      2  N   UNL     1      35.316 -15.941 -23.393  0.00  0.00    -0.173 NA
ATOM      3  C   UNL     1      33.938 -14.885 -21.901  0.00  0.00    +0.036 A 
ATOM      4  C   UNL     1      34.105 -14.052 -23.001  0.00  0.00    +0.076 A 
ATOM      5  C   UNL     1      34.708 -16.028 -22.207  0.00  0.00    +0.102 A 
ATOM      6  C   UNL     1      33.500 -12.797 -23.105  0.00  0.00    +0.025 C 
ATOM      7  C   UNL     1      32.697 -12.390 -22.036  0.00  0.00    +0.031 C 
ATOM      8  C   UNL     1      33.127 -14.462 -20.834  0.00  0.00    +0.004 C 
ATOM      9  C   UNL     1      32.512 -13.207 -20.918  0.00  0.00    +0.007 C 
ATOM     10  H   UNL     1      35.223 -14.378 -24.719  0.00  0.00    +0.189 HD
ENDROOT
BRANCH   5  11
ATOM     11  C   UNL     1      34.836 -17.158 -21.357  0.00  0.00    +0.022 C 
ATOM     12  C   UNL     1      34.956 -18.464 -21.716  0.00  0.00    +0.021 C 
BRANCH  12  14
ATOM     13  N   UNL     1      36.323 -19.879 -20.376  0.00  0.00    -0.244 NA
ATOM     14  C   UNL     1      35.073 -19.597 -20.781  0.00  0.00    +0.081 C 
ATOM     15  C   UNL     1      33.938 -20.272 -20.396  0.00  0.00    +0.019 C 
ATOM     16  C   UNL     1      34.098 -21.334 -19.513  0.00  0.00    +0.003 C 
ATOM     17  C   UNL     1      36.440 -20.917 -19.519  0.00  0.00    +0.099 C 
ATOM     18  C   UNL     1      35.369 -21.670 -19.062  0.00  0.00    +0.021 C 
ENDBRANCH  12  14
ENDBRANCH   5  11
BRANCH   7  19
ATOM     19  S   UNL     1      31.893 -10.797 -22.103  0.00  0.00    -0.087 S 
BRANCH  19  20
ATOM     20  C   UNL     1      33.201  -9.779 -22.773  0.00  0.00    +0.034 C 
ATOM     21  C   UNL     1      33.319  -8.424 -22.458  0.00  0.00    +0.059 C 
ATOM     22  C   UNL     1      34.122 -10.373 -23.638  0.00  0.00    +0.007 C 
ATOM     23  C   UNL     1      34.355  -7.667 -23.004  0.00  0.00    +0.005 C 
ATOM     24  C   UNL     1      35.159  -9.616 -24.185  0.00  0.00    +0.001 C 
ATOM     25  C   UNL     1      35.275  -8.262 -23.867  0.00  0.00    +0.000 C 
BRANCH  21  28
ATOM     26  O   UNL     1      32.337  -8.059 -20.360  0.00  0.00    -0.270 OA
ATOM     27  N   UNL     1      31.591  -6.745 -22.118  0.00  0.00    -0.299 N 
ATOM     28  C   UNL     1      32.387  -7.750 -21.561  0.00  0.00    +0.246 C 
ATOM     29  C   UNL     1      30.637  -5.971 -21.355  0.00  0.00    +0.111 C 
ATOM     30  H   UNL     1      31.684  -6.555 -23.080  0.00  0.00    +0.150 HD
ENDBRANCH  21  28
ENDBRANCH  19  20
ENDBRANCH   7  19
TORSDOF 5
ENDMDL
MODEL 5
REMARK VINA RESULT:     -10.5      5.154     10.870
REMARK  Name = 6450551
REMARK  5 active torsions:
REMARK  status: ('A' for Active; 'I' for Inactive)
REMARK    1  A    between atoms: C_5  and  C_11
REMARK    2  A    between atoms: C_7  and  S_19
REMARK    3  A    between atoms: C_12  and  C_14
REMARK    4  A    between atoms: S_19  and  C_20
REMARK    5  A    between atoms: C_21  and  C_28
REMARK                            x       y       z     vdW  Elec       q    Type
REMARK                         _______ _______ _______ _____ _____    ______ ____
ROOT
ATOM      1  N   UNL     1      34.577 -16.514 -25.036  0.00  0.00    -0.276 N 
ATOM      2  N   UNL     1      34.926 -17.672 -24.450  0.00  0.00    -0.173 NA
ATOM      3  C   UNL     1      34.664 -16.004 -22.905  0.00  0.00    +0.036 A 
ATOM      4  C   UNL     1      34.404 -15.473 -24.163  0.00  0.00    +0.076 A 
ATOM      5  C   UNL     1      34.978 -17.358 -23.153  0.00  0.00    +0.102 A 
ATOM      6  C   UNL     1      34.048 -14.139 -24.367  0.00  0.00    +0.025 C 
ATOM      7  C   UNL     1      33.958 -13.326 -23.234  0.00  0.00    +0.031 C 
ATOM      8  C   UNL     1      34.569 -15.175 -21.775  0.00  0.00    +0.004 C 
ATOM      9  C   UNL     1      34.214 -13.833 -21.958  0.00  0.00    +0.007 C 
ATOM     10  H   UNL     1      34.456 -16.422 -26.008  0.00  0.00    +0.189 HD
ENDROOT
BRANCH   5  11
ATOM     11  C   UNL     1      35.315 -18.299 -22.146  0.00  0.00    +0.022 C 
ATOM     12  C   UNL     1      34.515 -19.243 -21.583  0.00  0.00    +0.021 C 
BRANCH  12  14
ATOM     13  N   UNL     1      36.239 -20.201 -20.250  0.00  0.00    -0.244 NA
ATOM     14  C   UNL     1      34.924 -20.187 -20.527  0.00  0.00    +0.081 C 
ATOM     15  C   UNL     1      33.971 -20.967 -19.915  0.00  0.00    +0.019 C 
ATOM     16  C   UNL     1      34.404 -21.842 -18.926  0.00  0.00    +0.003 C 
ATOM     17  C   UNL     1      36.623 -21.064 -19.284  0.00  0.00    +0.099 C 
ATOM     18  C   UNL     1      35.754 -21.899 -18.599  0.00  0.00    +0.021 C 
ENDBRANCH  12  14
ENDBRANCH   5  11
BRANCH   7  19
ATOM     19  S   UNL     1      33.508 -11.608 -23.424  0.00  0.00    -0.087 S 
BRANCH  19  20
ATOM     20  C   UNL     1      32.564 -11.331 -21.932  0.00  0.00    +0.034 C 
ATOM     21  C   UNL     1      32.122 -10.059 -21.561  0.00  0.00    +0.059 C 
ATOM     22  C   UNL     1      32.269 -12.430 -21.123  0.00  0.00    +0.007 C 
ATOM     23  C   UNL     1      31.388  -9.889 -20.387  0.00  0.00    +0.005 C 
ATOM     24  C   UNL     1      31.534 -12.260 -19.950  0.00  0.00    +0.001 C 
ATOM     25  C   UNL     1      31.094 -10.989 -19.582  0.00  0.00    +0.000 C 
BRANCH  21  28
ATOM     26  O   UNL     1      31.616  -8.527 -23.262  0.00  0.00    -0.270 OA
ATOM     27  N   UNL     1      33.561  -8.160 -22.055  0.00  0.00    -0.299 N 
ATOM     28  C   UNL     1      32.400  -8.875 -22.365  0.00  0.00    +0.246 C 
ATOM     29  C   UNL     1      33.961  -6.953 -22.744  0.00  0.00    +0.111 C 
ATOM     30  H   UNL     1      34.136  -8.496 -21.330  0.00  0.00    +0.150 HD
ENDBRANCH  21  28
ENDBRANCH  19  20
ENDBRANCH   7  19
TORSDOF 5
ENDMDL
MODEL 6
REMARK VINA RESULT:     -10.4      1.716      2.624
REMARK  Name = 6450551
REMARK  5 active torsions:
REMARK  status: ('A' for Active; 'I' for Inactive)
REMARK    1  A    between atoms: C_5  and  C_11
REMARK    2  A    between atoms: C_7  and  S_19
REMARK    3  A    between atoms: C_12  and  C_14
REMARK    4  A    between atoms: S_19  and  C_20
REMARK    5  A    between atoms: C_21  and  C_28
REMARK                            x       y       z     vdW  Elec       q    Type
REMARK                         _______ _______ _______ _____ _____    ______ ____
ROOT
ATOM      1  N   UNL     1      37.065 -20.180 -20.123  0.00  0.00    -0.276 N 
ATOM      2  N   UNL     1      37.018 -18.994 -20.753  0.00  0.00    -0.173 NA
ATOM      3  C   UNL     1      34.918 -19.838 -20.410  0.00  0.00    +0.036 A 
ATOM      4  C   UNL     1      35.837 -20.740 -19.888  0.00  0.00    +0.076 A 
ATOM      5  C   UNL     1      35.710 -18.789 -20.925  0.00  0.00    +0.102 A 
ATOM      6  C   UNL     1      35.464 -21.937 -19.273  0.00  0.00    +0.025 C 
ATOM      7  C   UNL     1      34.096 -22.211 -19.196  0.00  0.00    +0.031 C 
ATOM      8  C   UNL     1      33.545 -20.126 -20.325  0.00  0.00    +0.004 C 
ATOM      9  C   UNL     1      33.150 -21.322 -19.712  0.00  0.00    +0.007 C 
ATOM     10  H   UNL     1      37.909 -20.610 -19.855  0.00  0.00    +0.189 HD
ENDROOT
BRANCH   5  11
ATOM     11  C   UNL     1      35.190 -17.631 -21.562  0.00  0.00    +0.022 C 
ATOM     12  C   UNL     1      34.754 -16.483 -20.980  0.00  0.00    +0.021 C 
BRANCH  12  14
ATOM     13  N   UNL     1      34.767 -15.073 -22.898  0.00  0.00    -0.244 NA
ATOM     14  C   UNL     1      34.211 -15.317 -21.700  0.00  0.00    +0.081 C 
ATOM     15  C   UNL     1      33.207 -14.576 -21.121  0.00  0.00    +0.019 C 
ATOM     16  C   UNL     1      32.727 -13.485 -21.837  0.00  0.00    +0.003 C 
ATOM     17  C   UNL     1      34.277 -14.005 -23.565  0.00  0.00    +0.099 C 
ATOM     18  C   UNL     1      33.267 -13.187 -23.083  0.00  0.00    +0.021 C 
ENDBRANCH  12  14
ENDBRANCH   5  11
BRANCH   7  19
ATOM     19  S   UNL     1      33.549 -23.725 -18.423  0.00  0.00    -0.087 S 
BRANCH  19  20
ATOM     20  C   UNL     1      33.954 -23.405 -16.712  0.00  0.00    +0.034 C 
ATOM     21  C   UNL     1      32.968 -23.235 -15.737  0.00  0.00    +0.059 C 
ATOM     22  C   UNL     1      35.302 -23.323 -16.356  0.00  0.00    +0.007 C 
ATOM     23  C   UNL     1      33.330 -22.987 -14.413  0.00  0.00    +0.005 C 
ATOM     24  C   UNL     1      35.663 -23.075 -15.032  0.00  0.00    +0.001 C 
ATOM     25  C   UNL     1      34.676 -22.906 -14.060  0.00  0.00    +0.000 C 
BRANCH  21  28
ATOM     26  O   UNL     1      31.033 -22.496 -16.835  0.00  0.00    -0.270 OA
ATOM     27  N   UNL     1      30.820 -24.340 -15.446  0.00  0.00    -0.299 N 
ATOM     28  C   UNL     1      31.546 -23.309 -16.050  0.00  0.00    +0.246 C 
ATOM     29  C   UNL     1      29.409 -24.560 -15.674  0.00  0.00    +0.111 C 
ATOM     30  H   UNL     1      31.294 -24.948 -14.834  0.00  0.00    +0.150 HD
ENDBRANCH  21  28
ENDBRANCH  19  20
ENDBRANCH   7  19
TORSDOF 5
ENDMDL
MODEL 7
REMARK VINA RESULT:     -10.2      2.818      5.146
REMARK  Name = 6450551
REMARK  5 active torsions:
REMARK  status: ('A' for Active; 'I' for Inactive)
REMARK    1  A    between atoms: C_5  and  C_11
REMARK    2  A    between atoms: C_7  and  S_19
REMARK    3  A    between atoms: C_12  and  C_14
REMARK    4  A    between atoms: S_19  and  C_20
REMARK    5  A    between atoms: C_21  and  C_28
REMARK                            x       y       z     vdW  Elec       q    Type
REMARK                         _______ _______ _______ _____ _____    ______ ____
ROOT
ATOM      1  N   UNL     1      34.825 -16.609 -25.030  0.00  0.00    -0.276 N 
ATOM      2  N   UNL     1      34.180 -15.443 -25.201  0.00  0.00    -0.173 NA
ATOM      3  C   UNL     1      34.482 -15.909 -22.981  0.00  0.00    +0.036 A 
ATOM      4  C   UNL     1      35.037 -16.947 -23.720  0.00  0.00    +0.076 A 
ATOM      5  C   UNL     1      33.974 -15.019 -23.952  0.00  0.00    +0.102 A 
ATOM      6  C   UNL     1      35.657 -18.052 -23.134  0.00  0.00    +0.025 C 
ATOM      7  C   UNL     1      35.705 -18.086 -21.737  0.00  0.00    +0.031 C 
ATOM      8  C   UNL     1      34.538 -15.957 -21.577  0.00  0.00    +0.004 C 
ATOM      9  C   UNL     1      35.155 -17.057 -20.970  0.00  0.00    +0.007 C 
ATOM     10  H   UNL     1      35.119 -17.173 -25.782  0.00  0.00    +0.189 HD
ENDROOT
BRANCH   5  11
ATOM     11  C   UNL     1      33.310 -13.800 -23.652  0.00  0.00    +0.022 C 
ATOM     12  C   UNL     1      33.773 -12.758 -22.911  0.00  0.00    +0.021 C 
BRANCH  12  14
ATOM     13  N   UNL     1      33.428 -10.438 -23.314  0.00  0.00    -0.244 NA
ATOM     14  C   UNL     1      33.027 -11.520 -22.625  0.00  0.00    +0.081 C 
ATOM     15  C   UNL     1      32.007 -11.546 -21.704  0.00  0.00    +0.019 C 
ATOM     16  C   UNL     1      31.332 -10.354 -21.466  0.00  0.00    +0.003 C 
ATOM     17  C   UNL     1      32.750  -9.297 -23.057  0.00  0.00    +0.099 C 
ATOM     18  C   UNL     1      31.705  -9.203 -22.151  0.00  0.00    +0.021 C 
ENDBRANCH  12  14
ENDBRANCH   5  11
BRANCH   7  19
ATOM     19  S   UNL     1      36.483 -19.472 -20.923  0.00  0.00    -0.087 S 
BRANCH  19  20
ATOM     20  C   UNL     1      35.061 -20.320 -20.250  0.00  0.00    +0.034 C 
ATOM     21  C   UNL     1      35.182 -21.289 -19.251  0.00  0.00    +0.059 C 
ATOM     22  C   UNL     1      33.799 -19.993 -20.750  0.00  0.00    +0.007 C 
ATOM     23  C   UNL     1      34.045 -21.926 -18.755  0.00  0.00    +0.005 C 
ATOM     24  C   UNL     1      32.662 -20.630 -20.253  0.00  0.00    +0.001 C 
ATOM     25  C   UNL     1      32.786 -21.597 -19.255  0.00  0.00    +0.000 C 
BRANCH  21  28
ATOM     26  O   UNL     1      37.436 -21.905 -19.439  0.00  0.00    -0.270 OA
ATOM     27  N   UNL     1      36.563 -21.734 -17.298  0.00  0.00    -0.299 N 
ATOM     28  C   UNL     1      36.473 -21.672 -18.691  0.00  0.00    +0.246 C 
ATOM     29  C   UNL     1      37.779 -22.074 -16.593  0.00  0.00    +0.111 C 
ATOM     30  H   UNL     1      35.757 -21.536 -16.769  0.00  0.00    +0.150 HD
ENDBRANCH  21  28
ENDBRANCH  19  20
ENDBRANCH   7  19
TORSDOF 5
ENDMDL
MODEL 8
REMARK VINA RESULT:      -9.9      8.922     14.579
REMARK  Name = 6450551
REMARK  5 active torsions:
REMARK  status: ('A' for Active; 'I' for Inactive)
REMARK    1  A    between atoms: C_5  and  C_11
REMARK    2  A    between atoms: C_7  and  S_19
REMARK    3  A    between atoms: C_12  and  C_14
REMARK    4  A    between atoms: S_19  and  C_20
REMARK    5  A    between atoms: C_21  and  C_28
REMARK                            x       y       z     vdW  Elec       q    Type
REMARK                         _______ _______ _______ _____ _____    ______ ____
ROOT
ATOM      1  N   UNL     1      31.525 -11.184 -19.389  0.00  0.00    -0.276 N 
ATOM      2  N   UNL     1      31.730 -12.432 -19.843  0.00  0.00    -0.173 NA
ATOM      3  C   UNL     1      32.295 -10.870 -21.419  0.00  0.00    +0.036 A 
ATOM      4  C   UNL     1      31.844 -10.200 -20.287  0.00  0.00    +0.076 A 
ATOM      5  C   UNL     1      32.199 -12.237 -21.078  0.00  0.00    +0.102 A 
ATOM      6  C   UNL     1      31.778  -8.808 -20.203  0.00  0.00    +0.025 C 
ATOM      7  C   UNL     1      32.190  -8.084 -21.325  0.00  0.00    +0.031 C 
ATOM      8  C   UNL     1      32.707 -10.129 -22.539  0.00  0.00    +0.004 C 
ATOM      9  C   UNL     1      32.648  -8.732 -22.475  0.00  0.00    +0.007 C 
ATOM     10  H   UNL     1      31.174 -10.992 -18.490  0.00  0.00    +0.189 HD
ENDROOT
BRANCH   5  11
ATOM     11  C   UNL     1      32.558 -13.304 -21.943  0.00  0.00    +0.022 C 
ATOM     12  C   UNL     1      33.796 -13.627 -22.401  0.00  0.00    +0.021 C 
BRANCH  12  14
ATOM     13  N   UNL     1      33.731 -14.562 -24.590  0.00  0.00    -0.244 NA
ATOM     14  C   UNL     1      34.102 -14.746 -23.311  0.00  0.00    +0.081 C 
ATOM     15  C   UNL     1      34.724 -15.867 -22.814  0.00  0.00    +0.019 C 
ATOM     16  C   UNL     1      34.992 -16.896 -23.710  0.00  0.00    +0.003 C 
ATOM     17  C   UNL     1      34.006 -15.583 -25.431  0.00  0.00    +0.099 C 
ATOM     18  C   UNL     1      34.629 -16.760 -25.045  0.00  0.00    +0.021 C 
ENDBRANCH  12  14
ENDBRANCH   5  11
BRANCH   7  19
ATOM     19  S   UNL     1      32.130  -6.300 -21.286  0.00  0.00    -0.087 S 
BRANCH  19  20
ATOM     20  C   UNL     1      32.907  -5.893 -22.843  0.00  0.00    +0.034 C 
ATOM     21  C   UNL     1      32.437  -4.859 -23.656  0.00  0.00    +0.059 C 
ATOM     22  C   UNL     1      34.014  -6.643 -23.245  0.00  0.00    +0.007 C 
ATOM     23  C   UNL     1      33.073  -4.577 -24.865  0.00  0.00    +0.005 C 
ATOM     24  C   UNL     1      34.651  -6.360 -24.453  0.00  0.00    +0.001 C 
ATOM     25  C   UNL     1      34.179  -5.326 -25.263  0.00  0.00    +0.000 C 
BRANCH  21  28
ATOM     26  O   UNL     1      30.146  -4.536 -23.280  0.00  0.00    -0.270 OA
ATOM     27  N   UNL     1      31.540  -2.717 -22.934  0.00  0.00    -0.299 N 
ATOM     28  C   UNL     1      31.285  -4.044 -23.289  0.00  0.00    +0.246 C 
ATOM     29  C   UNL     1      30.508  -1.790 -22.523  0.00  0.00    +0.111 C 
ATOM     30  H   UNL     1      32.470  -2.395 -22.964  0.00  0.00    +0.150 HD
ENDBRANCH  21  28
ENDBRANCH  19  20
ENDBRANCH   7  19
TORSDOF 5
ENDMDL
MODEL 9
REMARK VINA RESULT:      -9.8      2.926      5.386
REMARK  Name = 6450551
REMARK  5 active torsions:
REMARK  status: ('A' for Active; 'I' for Inactive)
REMARK    1  A    between atoms: C_5  and  C_11
REMARK    2  A    between atoms: C_7  and  S_19
REMARK    3  A    between atoms: C_12  and  C_14
REMARK    4  A    between atoms: S_19  and  C_20
REMARK    5  A    between atoms: C_21  and  C_28
REMARK                            x       y       z     vdW  Elec       q    Type
REMARK                         _______ _______ _______ _____ _____    ______ ____
ROOT
ATOM      1  N   UNL     1      32.279 -23.327 -17.332  0.00  0.00    -0.276 N 
ATOM      2  N   UNL     1      32.640 -22.657 -18.439  0.00  0.00    -0.173 NA
ATOM      3  C   UNL     1      34.348 -22.733 -16.917  0.00  0.00    +0.036 A 
ATOM      4  C   UNL     1      33.259 -23.409 -16.379  0.00  0.00    +0.076 A 
ATOM      5  C   UNL     1      33.901 -22.297 -18.183  0.00  0.00    +0.102 A 
ATOM      6  C   UNL     1      33.281 -24.007 -15.118  0.00  0.00    +0.025 C 
ATOM      7  C   UNL     1      34.468 -23.903 -14.387  0.00  0.00    +0.031 C 
ATOM      8  C   UNL     1      35.535 -22.638 -16.171  0.00  0.00    +0.004 C 
ATOM      9  C   UNL     1      35.578 -23.230 -14.903  0.00  0.00    +0.007 C 
ATOM     10  H   UNL     1      31.386 -23.725 -17.215  0.00  0.00    +0.189 HD
ENDROOT
BRANCH   5  11
ATOM     11  C   UNL     1      34.691 -21.555 -19.099  0.00  0.00    +0.022 C 
ATOM     12  C   UNL     1      34.286 -20.570 -19.944  0.00  0.00    +0.021 C 
BRANCH  12  14
ATOM     13  N   UNL     1      36.356 -19.485 -20.394  0.00  0.00    -0.244 NA
ATOM     14  C   UNL     1      35.158 -19.843 -20.885  0.00  0.00    +0.081 C 
ATOM     15  C   UNL     1      34.706 -19.584 -22.157  0.00  0.00    +0.019 C 
ATOM     16  C   UNL     1      35.563 -18.895 -23.008  0.00  0.00    +0.003 C 
ATOM     17  C   UNL     1      37.162 -18.817 -21.248  0.00  0.00    +0.099 C 
ATOM     18  C   UNL     1      36.816 -18.499 -22.553  0.00  0.00    +0.021 C 
ENDBRANCH  12  14
ENDBRANCH   5  11
BRANCH   7  19
ATOM     19  S   UNL     1      34.565 -24.645 -12.766  0.00  0.00    -0.087 S 
BRANCH  19  20
ATOM     20  C   UNL     1      36.257 -24.280 -12.320  0.00  0.00    +0.034 C 
ATOM     21  C   UNL     1      37.311 -25.132 -12.658  0.00  0.00    +0.059 C 
ATOM     22  C   UNL     1      36.515 -23.106 -11.611  0.00  0.00    +0.007 C 
ATOM     23  C   UNL     1      38.617 -24.808 -12.290  0.00  0.00    +0.005 C 
ATOM     24  C   UNL     1      37.821 -22.782 -11.242  0.00  0.00    +0.001 C 
ATOM     25  C   UNL     1      38.872 -23.634 -11.582  0.00  0.00    +0.000 C 
BRANCH  21  28
ATOM     26  O   UNL     1      36.970 -27.448 -12.792  0.00  0.00    -0.270 OA
ATOM     27  N   UNL     1      37.036 -26.273 -14.789  0.00  0.00    -0.299 N 
ATOM     28  C   UNL     1      37.102 -26.372 -13.397  0.00  0.00    +0.246 C 
ATOM     29  C   UNL     1      36.810 -27.406 -15.659  0.00  0.00    +0.111 C 
ATOM     30  H   UNL     1      37.150 -25.385 -15.200  0.00  0.00    +0.150 HD
ENDBRANCH  21  28
ENDBRANCH  19  20
ENDBRANCH   7  19
TORSDOF 5
ENDMDL
