MODEL 1
REMARK VINA RESULT:     -12.3      0.000      0.000
REMARK  Name = 23658582
REMARK  4 active torsions:
REMARK  status: ('A' for Active; 'I' for Inactive)
REMARK    1  A    between atoms: N_3  and  C_13
REMARK    2  A    between atoms: C_8  and  C_25
REMARK    3  A    between atoms: C_15  and  C_22
REMARK    4  A    between atoms: N_24  and  C_29
REMARK                            x       y       z     vdW  Elec       q    Type
REMARK                         _______ _______ _______ _____ _____    ______ ____
ROOT
ATOM      1 CL   UNL     1      33.458 -13.308 -26.125  0.00  0.00    -0.082 Cl
ATOM      2  O   UNL     1      34.388 -15.302 -21.441  0.00  0.00    -0.352 OA
ATOM      3  N   UNL     1      35.218 -18.631 -22.089  0.00  0.00    -0.295 N 
ATOM      4  N   UNL     1      34.761 -16.558 -20.977  0.00  0.00    -0.062 NA
ATOM      5  C   UNL     1      34.580 -16.607 -23.251  0.00  0.00    +0.072 A 
ATOM      6  C   UNL     1      34.281 -15.334 -22.797  0.00  0.00    +0.183 A 
ATOM      7  C   UNL     1      34.870 -17.319 -22.071  0.00  0.00    +0.174 A 
ATOM      8  C   UNL     1      33.927 -14.270 -23.623  0.00  0.00    +0.101 C 
ATOM      9  C   UNL     1      34.532 -16.868 -24.628  0.00  0.00    +0.007 C 
ATOM     10  C   UNL     1      33.883 -14.545 -24.993  0.00  0.00    +0.065 C 
ATOM     11  C   UNL     1      34.179 -15.819 -25.489  0.00  0.00    +0.012 C 
ATOM     12  H   UNL     1      35.157 -19.046 -22.980  0.00  0.00    +0.154 HD
ENDROOT
BRANCH   3  13
ATOM     13  C   UNL     1      35.651 -19.523 -21.068  0.00  0.00    +0.049 C 
ATOM     14  C   UNL     1      34.740 -20.389 -20.466  0.00  0.00    +0.018 C 
ATOM     15  C   UNL     1      35.165 -21.264 -19.465  0.00  0.00    +0.073 C 
ATOM     16  C   UNL     1      36.989 -19.532 -20.672  0.00  0.00    +0.015 C 
ATOM     17  C   UNL     1      36.501 -21.272 -19.068  0.00  0.00    +0.004 C 
ATOM     18  C   UNL     1      37.414 -20.406 -19.672  0.00  0.00    +0.001 C 
BRANCH  15  22
ATOM     19  F   UNL     1      34.083 -23.397 -19.446  0.00  0.00    -0.166 F 
ATOM     20  F   UNL     1      34.497 -22.488 -17.522  0.00  0.00    -0.166 F 
ATOM     21  F   UNL     1      32.924 -21.680 -18.787  0.00  0.00    -0.166 F 
ATOM     22  C   UNL     1      34.190 -22.189 -18.819  0.00  0.00    +0.419 C 
ENDBRANCH  15  22
ENDBRANCH   3  13
BRANCH   8  25
ATOM     23  O   UNL     1      34.196 -11.948 -23.475  0.00  0.00    -0.270 OA
ATOM     24  N   UNL     1      32.703 -12.974 -22.006  0.00  0.00    -0.278 N 
ATOM     25  C   UNL     1      33.629 -12.965 -23.057  0.00  0.00    +0.253 C 
ATOM     26  H   UNL     1      32.326 -13.853 -21.773  0.00  0.00    +0.155 HD
BRANCH  24  29
ATOM     27  N   UNL     1      31.511 -10.975 -19.126  0.00  0.00    -0.221 NA
ATOM     28  N   UNL     1      31.603  -9.563 -21.075  0.00  0.00    -0.221 NA
ATOM     29  C   UNL     1      32.239 -11.878 -21.235  0.00  0.00    +0.089 C 
ATOM     30  C   UNL     1      31.953 -11.996 -19.889  0.00  0.00    +0.117 C 
ATOM     31  C   UNL     1      32.043 -10.627 -21.780  0.00  0.00    +0.117 C 
ATOM     32  C   UNL     1      31.360  -9.805 -19.773  0.00  0.00    +0.199 C 
ENDBRANCH  24  29
ENDBRANCH   8  25
TORSDOF 4
ENDMDL
MODEL 2
REMARK VINA RESULT:     -12.0      5.470      9.591
REMARK  Name = 23658582
REMARK  4 active torsions:
REMARK  status: ('A' for Active; 'I' for Inactive)
REMARK    1  A    between atoms: N_3  and  C_13
REMARK    2  A    between atoms: C_8  and  C_25
REMARK    3  A    between atoms: C_15  and  C_22
REMARK    4  A    between atoms: N_24  and  C_29
REMARK                            x       y       z     vdW  Elec       q    Type
REMARK                         _______ _______ _______ _____ _____    ______ ____
ROOT
ATOM      1 CL   UNL     1      35.279 -19.495 -24.204  0.00  0.00    -0.082 Cl
ATOM      2  O   UNL     1      34.488 -15.323 -21.245  0.00  0.00    -0.352 OA
ATOM      3  N   UNL     1      33.908 -12.757 -23.540  0.00  0.00    -0.295 N 
ATOM      4  N   UNL     1      34.207 -13.987 -21.506  0.00  0.00    -0.062 NA
ATOM      5  C   UNL     1      34.397 -15.126 -23.474  0.00  0.00    +0.072 A 
ATOM      6  C   UNL     1      34.600 -16.000 -22.420  0.00  0.00    +0.183 A 
ATOM      7  C   UNL     1      34.158 -13.892 -22.838  0.00  0.00    +0.174 A 
ATOM      8  C   UNL     1      34.875 -17.357 -22.569  0.00  0.00    +0.101 C 
ATOM      9  C   UNL     1      34.467 -15.613 -24.787  0.00  0.00    +0.007 C 
ATOM     10  C   UNL     1      34.943 -17.828 -23.883  0.00  0.00    +0.065 C 
ATOM     11  C   UNL     1      34.743 -16.975 -24.973  0.00  0.00    +0.012 C 
ATOM     12  H   UNL     1      34.001 -12.864 -24.515  0.00  0.00    +0.154 HD
ENDROOT
BRANCH   3  13
ATOM     13  C   UNL     1      33.540 -11.442 -23.139  0.00  0.00    +0.049 C 
ATOM     14  C   UNL     1      34.257 -10.343 -23.610  0.00  0.00    +0.018 C 
ATOM     15  C   UNL     1      33.895  -9.054 -23.217  0.00  0.00    +0.073 C 
ATOM     16  C   UNL     1      32.460 -11.253 -22.276  0.00  0.00    +0.015 C 
ATOM     17  C   UNL     1      32.816  -8.865 -22.354  0.00  0.00    +0.004 C 
ATOM     18  C   UNL     1      32.098  -9.965 -21.883  0.00  0.00    +0.001 C 
BRANCH  15  22
ATOM     19  F   UNL     1      33.873  -6.830 -24.100  0.00  0.00    -0.166 F 
ATOM     20  F   UNL     1      35.526  -7.355 -22.799  0.00  0.00    -0.166 F 
ATOM     21  F   UNL     1      35.426  -8.175 -24.810  0.00  0.00    -0.166 F 
ATOM     22  C   UNL     1      34.662  -7.877 -23.719  0.00  0.00    +0.419 C 
ENDBRANCH  15  22
ENDBRANCH   3  13
BRANCH   8  25
ATOM     23  O   UNL     1      35.953 -17.936 -20.571  0.00  0.00    -0.270 OA
ATOM     24  N   UNL     1      34.239 -19.322 -21.334  0.00  0.00    -0.278 N 
ATOM     25  C   UNL     1      35.075 -18.201 -21.403  0.00  0.00    +0.253 C 
ATOM     26  H   UNL     1      33.582 -19.413 -22.062  0.00  0.00    +0.155 HD
BRANCH  24  29
ATOM     27  N   UNL     1      35.385 -21.921 -18.959  0.00  0.00    -0.221 NA
ATOM     28  N   UNL     1      32.984 -21.761 -18.846  0.00  0.00    -0.221 NA
ATOM     29  C   UNL     1      34.216 -20.342 -20.349  0.00  0.00    +0.089 C 
ATOM     30  C   UNL     1      35.369 -20.949 -19.894  0.00  0.00    +0.117 C 
ATOM     31  C   UNL     1      33.041 -20.793 -19.785  0.00  0.00    +0.117 C 
ATOM     32  C   UNL     1      34.175 -22.274 -18.485  0.00  0.00    +0.199 C 
ENDBRANCH  24  29
ENDBRANCH   8  25
TORSDOF 4
ENDMDL
MODEL 3
REMARK VINA RESULT:     -11.7      5.365      9.565
REMARK  Name = 23658582
REMARK  4 active torsions:
REMARK  status: ('A' for Active; 'I' for Inactive)
REMARK    1  A    between atoms: N_3  and  C_13
REMARK    2  A    between atoms: C_8  and  C_25
REMARK    3  A    between atoms: C_15  and  C_22
REMARK    4  A    between atoms: N_24  and  C_29
REMARK                            x       y       z     vdW  Elec       q    Type
REMARK                         _______ _______ _______ _____ _____    ______ ____
ROOT
ATOM      1 CL   UNL     1      35.534 -19.256 -24.197  0.00  0.00    -0.082 Cl
ATOM      2  O   UNL     1      34.277 -15.426 -20.952  0.00  0.00    -0.352 OA
ATOM      3  N   UNL     1      33.527 -12.745 -23.059  0.00  0.00    -0.295 N 
ATOM      4  N   UNL     1      33.881 -14.104 -21.118  0.00  0.00    -0.062 NA
ATOM      5  C   UNL     1      34.230 -15.057 -23.161  0.00  0.00    +0.072 A 
ATOM      6  C   UNL     1      34.484 -15.992 -22.172  0.00  0.00    +0.183 A 
ATOM      7  C   UNL     1      33.861 -13.905 -22.439  0.00  0.00    +0.174 A 
ATOM      8  C   UNL     1      34.888 -17.302 -22.416  0.00  0.00    +0.101 C 
ATOM      9  C   UNL     1      34.383 -15.429 -24.505  0.00  0.00    +0.007 C 
ATOM     10  C   UNL     1      35.036 -17.658 -23.760  0.00  0.00    +0.065 C 
ATOM     11  C   UNL     1      34.789 -16.740 -24.786  0.00  0.00    +0.012 C 
ATOM     12  H   UNL     1      33.656 -12.763 -24.035  0.00  0.00    +0.154 HD
ENDROOT
BRANCH   3  13
ATOM     13  C   UNL     1      33.026 -11.505 -22.570  0.00  0.00    +0.049 C 
ATOM     14  C   UNL     1      33.520 -10.305 -23.079  0.00  0.00    +0.018 C 
ATOM     15  C   UNL     1      33.029  -9.090 -22.600  0.00  0.00    +0.073 C 
ATOM     16  C   UNL     1      32.042 -11.491 -21.582  0.00  0.00    +0.015 C 
ATOM     17  C   UNL     1      32.045  -9.076 -21.612  0.00  0.00    +0.004 C 
ATOM     18  C   UNL     1      31.551 -10.278 -21.103  0.00  0.00    +0.001 C 
BRANCH  15  22
ATOM     19  F   UNL     1      33.748  -6.845 -22.191  0.00  0.00    -0.166 F 
ATOM     20  F   UNL     1      34.766  -7.931 -23.767  0.00  0.00    -0.166 F 
ATOM     21  F   UNL     1      32.725  -7.243 -24.067  0.00  0.00    -0.166 F 
ATOM     22  C   UNL     1      33.558  -7.805 -23.143  0.00  0.00    +0.419 C 
ENDBRANCH  15  22
ENDBRANCH   3  13
BRANCH   8  25
ATOM     23  O   UNL     1      36.087 -18.041 -20.544  0.00  0.00    -0.270 OA
ATOM     24  N   UNL     1      34.243 -19.295 -21.231  0.00  0.00    -0.278 N 
ATOM     25  C   UNL     1      35.133 -18.216 -21.313  0.00  0.00    +0.253 C 
ATOM     26  H   UNL     1      33.527 -19.314 -21.906  0.00  0.00    +0.155 HD
BRANCH  24  29
ATOM     27  N   UNL     1      33.040 -21.865 -18.852  0.00  0.00    -0.221 NA
ATOM     28  N   UNL     1      35.440 -22.004 -19.008  0.00  0.00    -0.221 NA
ATOM     29  C   UNL     1      34.242 -20.364 -20.299  0.00  0.00    +0.089 C 
ATOM     30  C   UNL     1      33.078 -20.850 -19.740  0.00  0.00    +0.117 C 
ATOM     31  C   UNL     1      35.405 -20.984 -19.891  0.00  0.00    +0.117 C 
ATOM     32  C   UNL     1      34.239 -22.387 -18.534  0.00  0.00    +0.199 C 
ENDBRANCH  24  29
ENDBRANCH   8  25
TORSDOF 4
ENDMDL
MODEL 4
REMARK VINA RESULT:     -11.7      6.316     11.182
REMARK  Name = 23658582
REMARK  4 active torsions:
REMARK  status: ('A' for Active; 'I' for Inactive)
REMARK    1  A    between atoms: N_3  and  C_13
REMARK    2  A    between atoms: C_8  and  C_25
REMARK    3  A    between atoms: C_15  and  C_22
REMARK    4  A    between atoms: N_24  and  C_29
REMARK                            x       y       z     vdW  Elec       q    Type
REMARK                         _______ _______ _______ _____ _____    ______ ____
ROOT
ATOM      1 CL   UNL     1      34.207 -24.387 -14.810  0.00  0.00    -0.082 Cl
ATOM      2  O   UNL     1      36.799 -21.388 -18.137  0.00  0.00    -0.352 OA
ATOM      3  N   UNL     1      34.398 -20.483 -20.506  0.00  0.00    -0.295 N 
ATOM      4  N   UNL     1      36.455 -20.703 -19.297  0.00  0.00    -0.062 NA
ATOM      5  C   UNL     1      34.621 -21.787 -18.480  0.00  0.00    +0.072 A 
ATOM      6  C   UNL     1      35.702 -22.032 -17.652  0.00  0.00    +0.183 A 
ATOM      7  C   UNL     1      35.156 -20.955 -19.483  0.00  0.00    +0.174 A 
ATOM      8  C   UNL     1      35.650 -22.822 -16.506  0.00  0.00    +0.101 C 
ATOM      9  C   UNL     1      33.379 -22.359 -18.167  0.00  0.00    +0.007 C 
ATOM     10  C   UNL     1      34.406 -23.386 -16.207  0.00  0.00    +0.065 C 
ATOM     11  C   UNL     1      33.290 -23.160 -17.020  0.00  0.00    +0.012 C 
ATOM     12  H   UNL     1      33.484 -20.848 -20.525  0.00  0.00    +0.154 HD
ENDROOT
BRANCH   3  13
ATOM     13  C   UNL     1      34.670 -19.563 -21.557  0.00  0.00    +0.049 C 
ATOM     14  C   UNL     1      34.562 -18.192 -21.329  0.00  0.00    +0.018 C 
ATOM     15  C   UNL     1      34.830 -17.290 -22.359  0.00  0.00    +0.073 C 
ATOM     16  C   UNL     1      35.047 -20.033 -22.815  0.00  0.00    +0.015 C 
ATOM     17  C   UNL     1      35.206 -17.760 -23.617  0.00  0.00    +0.004 C 
ATOM     18  C   UNL     1      35.314 -19.133 -23.845  0.00  0.00    +0.001 C 
BRANCH  15  22
ATOM     19  F   UNL     1      33.465 -15.326 -22.358  0.00  0.00    -0.166 F 
ATOM     20  F   UNL     1      34.999 -15.457 -20.832  0.00  0.00    -0.166 F 
ATOM     21  F   UNL     1      35.557 -15.092 -22.902  0.00  0.00    -0.166 F 
ATOM     22  C   UNL     1      34.713 -15.823 -22.116  0.00  0.00    +0.419 C 
ENDBRANCH  15  22
ENDBRANCH   3  13
BRANCH   8  25
ATOM     23  O   UNL     1      37.473 -22.062 -15.247  0.00  0.00    -0.270 OA
ATOM     24  N   UNL     1      37.206 -24.364 -15.510  0.00  0.00    -0.278 N 
ATOM     25  C   UNL     1      36.838 -23.025 -15.695  0.00  0.00    +0.253 C 
ATOM     26  H   UNL     1      36.612 -25.033 -15.920  0.00  0.00    +0.155 HD
BRANCH  24  29
ATOM     27  N   UNL     1      40.708 -25.089 -14.551  0.00  0.00    -0.221 NA
ATOM     28  N   UNL     1      39.228 -26.180 -12.995  0.00  0.00    -0.221 NA
ATOM     29  C   UNL     1      38.324 -24.879 -14.806  0.00  0.00    +0.089 C 
ATOM     30  C   UNL     1      39.622 -24.617 -15.196  0.00  0.00    +0.117 C 
ATOM     31  C   UNL     1      38.186 -25.675 -13.688  0.00  0.00    +0.117 C 
ATOM     32  C   UNL     1      40.443 -25.853 -13.474  0.00  0.00    +0.199 C 
ENDBRANCH  24  29
ENDBRANCH   8  25
TORSDOF 4
ENDMDL
MODEL 5
REMARK VINA RESULT:     -11.7      4.261      8.860
REMARK  Name = 23658582
REMARK  4 active torsions:
REMARK  status: ('A' for Active; 'I' for Inactive)
REMARK    1  A    between atoms: N_3  and  C_13
REMARK    2  A    between atoms: C_8  and  C_25
REMARK    3  A    between atoms: C_15  and  C_22
REMARK    4  A    between atoms: N_24  and  C_29
REMARK                            x       y       z     vdW  Elec       q    Type
REMARK                         _______ _______ _______ _____ _____    ______ ____
ROOT
ATOM      1 CL   UNL     1      35.496 -19.460 -24.213  0.00  0.00    -0.082 Cl
ATOM      2  O   UNL     1      34.340 -15.621 -20.940  0.00  0.00    -0.352 OA
ATOM      3  N   UNL     1      33.514 -12.949 -23.030  0.00  0.00    -0.295 N 
ATOM      4  N   UNL     1      33.936 -14.301 -21.097  0.00  0.00    -0.062 NA
ATOM      5  C   UNL     1      34.219 -15.260 -23.147  0.00  0.00    +0.072 A 
ATOM      6  C   UNL     1      34.507 -16.191 -22.164  0.00  0.00    +0.183 A 
ATOM      7  C   UNL     1      33.871 -14.107 -22.417  0.00  0.00    +0.174 A 
ATOM      8  C   UNL     1      34.906 -17.501 -22.417  0.00  0.00    +0.101 C 
ATOM      9  C   UNL     1      34.327 -15.636 -24.494  0.00  0.00    +0.007 C 
ATOM     10  C   UNL     1      35.009 -17.861 -23.764  0.00  0.00    +0.065 C 
ATOM     11  C   UNL     1      34.726 -16.947 -24.785  0.00  0.00    +0.012 C 
ATOM     12  H   UNL     1      33.611 -12.970 -24.009  0.00  0.00    +0.154 HD
ENDROOT
BRANCH   3  13
ATOM     13  C   UNL     1      33.028 -11.708 -22.528  0.00  0.00    +0.049 C 
ATOM     14  C   UNL     1      32.379 -11.661 -21.295  0.00  0.00    +0.018 C 
ATOM     15  C   UNL     1      31.903 -10.446 -20.803  0.00  0.00    +0.073 C 
ATOM     16  C   UNL     1      33.202 -10.540 -23.270  0.00  0.00    +0.015 C 
ATOM     17  C   UNL     1      32.076  -9.278 -21.545  0.00  0.00    +0.004 C 
ATOM     18  C   UNL     1      32.726  -9.325 -22.779  0.00  0.00    +0.001 C 
BRANCH  15  22
ATOM     19  F   UNL     1      29.913 -10.828 -19.531  0.00  0.00    -0.166 F 
ATOM     20  F   UNL     1      31.803 -11.158 -18.522  0.00  0.00    -0.166 F 
ATOM     21  F   UNL     1      31.152  -9.132 -18.969  0.00  0.00    -0.166 F 
ATOM     22  C   UNL     1      31.207 -10.395 -19.485  0.00  0.00    +0.419 C 
ENDBRANCH  15  22
ENDBRANCH   3  13
BRANCH   8  25
ATOM     23  O   UNL     1      36.207 -18.274 -20.630  0.00  0.00    -0.270 OA
ATOM     24  N   UNL     1      34.256 -19.442 -21.151  0.00  0.00    -0.278 N 
ATOM     25  C   UNL     1      35.189 -18.411 -21.320  0.00  0.00    +0.253 C 
ATOM     26  H   UNL     1      33.490 -19.433 -21.769  0.00  0.00    +0.155 HD
BRANCH  24  29
ATOM     27  N   UNL     1      35.501 -22.103 -18.897  0.00  0.00    -0.221 NA
ATOM     28  N   UNL     1      33.101 -21.987 -18.722  0.00  0.00    -0.221 NA
ATOM     29  C   UNL     1      34.273 -20.496 -20.203  0.00  0.00    +0.089 C 
ATOM     30  C   UNL     1      35.446 -21.099 -19.796  0.00  0.00    +0.117 C 
ATOM     31  C   UNL     1      33.120 -20.986 -19.627  0.00  0.00    +0.117 C 
ATOM     32  C   UNL     1      34.308 -22.492 -18.407  0.00  0.00    +0.199 C 
ENDBRANCH  24  29
ENDBRANCH   8  25
TORSDOF 4
ENDMDL
MODEL 6
REMARK VINA RESULT:     -11.1      5.904      9.987
REMARK  Name = 23658582
REMARK  4 active torsions:
REMARK  status: ('A' for Active; 'I' for Inactive)
REMARK    1  A    between atoms: N_3  and  C_13
REMARK    2  A    between atoms: C_8  and  C_25
REMARK    3  A    between atoms: C_15  and  C_22
REMARK    4  A    between atoms: N_24  and  C_29
REMARK                            x       y       z     vdW  Elec       q    Type
REMARK                         _______ _______ _______ _____ _____    ______ ____
ROOT
ATOM      1 CL   UNL     1      35.969 -23.870 -15.696  0.00  0.00    -0.082 Cl
ATOM      2  O   UNL     1      33.281 -21.531 -19.450  0.00  0.00    -0.352 OA
ATOM      3  N   UNL     1      35.584 -19.345 -20.902  0.00  0.00    -0.295 N 
ATOM      4  N   UNL     1      33.582 -20.563 -20.400  0.00  0.00    -0.062 NA
ATOM      5  C   UNL     1      35.431 -20.990 -19.134  0.00  0.00    +0.072 A 
ATOM      6  C   UNL     1      34.386 -21.785 -18.697  0.00  0.00    +0.183 A 
ATOM      7  C   UNL     1      34.866 -20.255 -20.194  0.00  0.00    +0.174 A 
ATOM      8  C   UNL     1      34.478 -22.693 -17.645  0.00  0.00    +0.101 C 
ATOM      9  C   UNL     1      36.676 -21.088 -18.494  0.00  0.00    +0.007 C 
ATOM     10  C   UNL     1      35.724 -22.779 -17.017  0.00  0.00    +0.065 C 
ATOM     11  C   UNL     1      36.803 -21.992 -17.431  0.00  0.00    +0.012 C 
ATOM     12  H   UNL     1      36.489 -19.189 -20.547  0.00  0.00    +0.154 HD
ENDROOT
BRANCH   3  13
ATOM     13  C   UNL     1      35.279 -18.572 -22.057  0.00  0.00    +0.049 C 
ATOM     14  C   UNL     1      35.038 -17.203 -21.937  0.00  0.00    +0.018 C 
ATOM     15  C   UNL     1      34.741 -16.445 -23.069  0.00  0.00    +0.073 C 
ATOM     16  C   UNL     1      35.223 -19.182 -23.310  0.00  0.00    +0.015 C 
ATOM     17  C   UNL     1      34.684 -17.055 -24.322  0.00  0.00    +0.004 C 
ATOM     18  C   UNL     1      34.926 -18.425 -24.442  0.00  0.00    +0.001 C 
BRANCH  15  22
ATOM     19  F   UNL     1      35.012 -14.241 -23.958  0.00  0.00    -0.166 F 
ATOM     20  F   UNL     1      33.153 -14.662 -22.924  0.00  0.00    -0.166 F 
ATOM     21  F   UNL     1      35.000 -14.455 -21.794  0.00  0.00    -0.166 F 
ATOM     22  C   UNL     1      34.481 -14.982 -22.941  0.00  0.00    +0.419 C 
ENDBRANCH  15  22
ENDBRANCH   3  13
BRANCH   8  25
ATOM     23  O   UNL     1      33.052 -24.541 -17.842  0.00  0.00    -0.270 OA
ATOM     24  N   UNL     1      32.560 -22.945 -16.213  0.00  0.00    -0.278 N 
ATOM     25  C   UNL     1      33.325 -23.487 -17.254  0.00  0.00    +0.253 C 
ATOM     26  H   UNL     1      32.891 -22.099 -15.832  0.00  0.00    +0.155 HD
BRANCH  24  29
ATOM     27  N   UNL     1      30.277 -24.860 -14.016  0.00  0.00    -0.221 NA
ATOM     28  N   UNL     1      28.967 -23.567 -15.570  0.00  0.00    -0.221 NA
ATOM     29  C   UNL     1      31.370 -23.458 -15.638  0.00  0.00    +0.089 C 
ATOM     30  C   UNL     1      31.388 -24.352 -14.587  0.00  0.00    +0.117 C 
ATOM     31  C   UNL     1      30.119 -23.098 -16.094  0.00  0.00    +0.117 C 
ATOM     32  C   UNL     1      29.117 -24.432 -14.549  0.00  0.00    +0.199 C 
ENDBRANCH  24  29
ENDBRANCH   8  25
TORSDOF 4
ENDMDL
MODEL 7
REMARK VINA RESULT:     -10.8      4.942      9.346
REMARK  Name = 23658582
REMARK  4 active torsions:
REMARK  status: ('A' for Active; 'I' for Inactive)
REMARK    1  A    between atoms: N_3  and  C_13
REMARK    2  A    between atoms: C_8  and  C_25
REMARK    3  A    between atoms: C_15  and  C_22
REMARK    4  A    between atoms: N_24  and  C_29
REMARK                            x       y       z     vdW  Elec       q    Type
REMARK                         _______ _______ _______ _____ _____    ______ ____
ROOT
ATOM      1 CL   UNL     1      34.649 -18.973 -24.494  0.00  0.00    -0.082 Cl
ATOM      2  O   UNL     1      34.746 -14.580 -21.759  0.00  0.00    -0.352 OA
ATOM      3  N   UNL     1      34.310 -12.081 -24.159  0.00  0.00    -0.295 N 
ATOM      4  N   UNL     1      34.632 -13.233 -22.083  0.00  0.00    -0.062 NA
ATOM      5  C   UNL     1      34.465 -14.489 -23.980  0.00  0.00    +0.072 A 
ATOM      6  C   UNL     1      34.646 -15.326 -22.893  0.00  0.00    +0.183 A 
ATOM      7  C   UNL     1      34.466 -13.202 -23.408  0.00  0.00    +0.174 A 
ATOM      8  C   UNL     1      34.713 -16.715 -22.975  0.00  0.00    +0.101 C 
ATOM      9  C   UNL     1      34.338 -15.050 -25.259  0.00  0.00    +0.007 C 
ATOM     10  C   UNL     1      34.584 -17.260 -24.256  0.00  0.00    +0.065 C 
ATOM     11  C   UNL     1      34.400 -16.445 -25.378  0.00  0.00    +0.012 C 
ATOM     12  H   UNL     1      34.291 -12.252 -25.129  0.00  0.00    +0.154 HD
ENDROOT
BRANCH   3  13
ATOM     13  C   UNL     1      34.171 -10.707 -23.815  0.00  0.00    +0.049 C 
ATOM     14  C   UNL     1      33.047 -10.275 -23.112  0.00  0.00    +0.018 C 
ATOM     15  C   UNL     1      32.911  -8.928 -22.774  0.00  0.00    +0.073 C 
ATOM     16  C   UNL     1      35.160  -9.793 -24.178  0.00  0.00    +0.015 C 
ATOM     17  C   UNL     1      33.899  -8.014 -23.138  0.00  0.00    +0.004 C 
ATOM     18  C   UNL     1      35.025  -8.448 -23.841  0.00  0.00    +0.001 C 
BRANCH  15  22
ATOM     19  F   UNL     1      30.563  -8.467 -22.770  0.00  0.00    -0.166 F 
ATOM     20  F   UNL     1      31.418  -9.227 -20.929  0.00  0.00    -0.166 F 
ATOM     21  F   UNL     1      31.838  -7.189 -21.559  0.00  0.00    -0.166 F 
ATOM     22  C   UNL     1      31.707  -8.465 -22.025  0.00  0.00    +0.419 C 
ENDBRANCH  15  22
ENDBRANCH   3  13
BRANCH   8  25
ATOM     23  O   UNL     1      35.524 -17.065 -20.806  0.00  0.00    -0.270 OA
ATOM     24  N   UNL     1      34.380 -18.813 -21.844  0.00  0.00    -0.278 N 
ATOM     25  C   UNL     1      34.906 -17.517 -21.778  0.00  0.00    +0.253 C 
ATOM     26  H   UNL     1      33.909 -19.044 -22.677  0.00  0.00    +0.155 HD
BRANCH  24  29
ATOM     27  N   UNL     1      33.321 -21.421 -19.438  0.00  0.00    -0.221 NA
ATOM     28  N   UNL     1      35.724 -21.254 -19.405  0.00  0.00    -0.221 NA
ATOM     29  C   UNL     1      34.438 -19.835 -20.863  0.00  0.00    +0.089 C 
ATOM     30  C   UNL     1      33.303 -20.446 -20.370  0.00  0.00    +0.117 C 
ATOM     31  C   UNL     1      35.633 -20.283 -20.339  0.00  0.00    +0.117 C 
ATOM     32  C   UNL     1      34.547 -21.771 -19.005  0.00  0.00    +0.199 C 
ENDBRANCH  24  29
ENDBRANCH   8  25
TORSDOF 4
ENDMDL
MODEL 8
REMARK VINA RESULT:     -10.5      4.398      6.872
REMARK  Name = 23658582
REMARK  4 active torsions:
REMARK  status: ('A' for Active; 'I' for Inactive)
REMARK    1  A    between atoms: N_3  and  C_13
REMARK    2  A    between atoms: C_8  and  C_25
REMARK    3  A    between atoms: C_15  and  C_22
REMARK    4  A    between atoms: N_24  and  C_29
REMARK                            x       y       z     vdW  Elec       q    Type
REMARK                         _______ _______ _______ _____ _____    ______ ____
ROOT
ATOM      1 CL   UNL     1      31.461  -6.971 -20.842  0.00  0.00    -0.082 Cl
ATOM      2  O   UNL     1      34.214 -10.127 -23.884  0.00  0.00    -0.352 OA
ATOM      3  N   UNL     1      33.323 -13.327 -22.809  0.00  0.00    -0.295 N 
ATOM      4  N   UNL     1      34.336 -11.507 -23.993  0.00  0.00    -0.062 NA
ATOM      5  C   UNL     1      32.856 -11.001 -22.332  0.00  0.00    +0.072 A 
ATOM      6  C   UNL     1      33.330  -9.828 -22.893  0.00  0.00    +0.183 A 
ATOM      7  C   UNL     1      33.521 -12.007 -23.060  0.00  0.00    +0.174 A 
ATOM      8  C   UNL     1      32.946  -8.553 -22.487  0.00  0.00    +0.101 C 
ATOM      9  C   UNL     1      31.927 -10.928 -21.284  0.00  0.00    +0.007 C 
ATOM     10  C   UNL     1      32.020  -8.496 -21.441  0.00  0.00    +0.065 C 
ATOM     11  C   UNL     1      31.519  -9.660 -20.849  0.00  0.00    +0.012 C 
ATOM     12  H   UNL     1      32.753 -13.501 -22.025  0.00  0.00    +0.154 HD
ENDROOT
BRANCH   3  13
ATOM     13  C   UNL     1      33.781 -14.507 -23.460  0.00  0.00    +0.049 C 
ATOM     14  C   UNL     1      34.313 -15.555 -22.710  0.00  0.00    +0.018 C 
ATOM     15  C   UNL     1      34.762 -16.711 -23.348  0.00  0.00    +0.073 C 
ATOM     16  C   UNL     1      33.695 -14.615 -24.848  0.00  0.00    +0.015 C 
ATOM     17  C   UNL     1      34.677 -16.820 -24.736  0.00  0.00    +0.004 C 
ATOM     18  C   UNL     1      34.143 -15.771 -25.486  0.00  0.00    +0.001 C 
BRANCH  15  22
ATOM     19  F   UNL     1      36.623 -18.138 -22.876  0.00  0.00    -0.166 F 
ATOM     20  F   UNL     1      35.358 -17.587 -21.204  0.00  0.00    -0.166 F 
ATOM     21  F   UNL     1      34.633 -18.994 -22.695  0.00  0.00    -0.166 F 
ATOM     22  C   UNL     1      35.333 -17.832 -22.547  0.00  0.00    +0.419 C 
ENDBRANCH  15  22
ENDBRANCH   3  13
BRANCH   8  25
ATOM     23  O   UNL     1      34.658  -7.009 -22.904  0.00  0.00    -0.270 OA
ATOM     24  N   UNL     1      32.612  -6.695 -23.980  0.00  0.00    -0.278 N 
ATOM     25  C   UNL     1      33.498  -7.375 -23.134  0.00  0.00    +0.253 C 
ATOM     26  H   UNL     1      31.717  -7.095 -24.075  0.00  0.00    +0.155 HD
BRANCH  24  29
ATOM     27  N   UNL     1      32.469  -3.148 -25.034  0.00  0.00    -0.221 NA
ATOM     28  N   UNL     1      33.874  -4.366 -26.567  0.00  0.00    -0.221 NA
ATOM     29  C   UNL     1      32.839  -5.506 -24.718  0.00  0.00    +0.089 C 
ATOM     30  C   UNL     1      32.275  -4.299 -24.356  0.00  0.00    +0.117 C 
ATOM     31  C   UNL     1      33.636  -5.480 -25.843  0.00  0.00    +0.117 C 
ATOM     32  C   UNL     1      33.267  -3.252 -26.113  0.00  0.00    +0.199 C 
ENDBRANCH  24  29
ENDBRANCH   8  25
TORSDOF 4
ENDMDL
MODEL 9
REMARK VINA RESULT:     -10.5      4.330      7.221
REMARK  Name = 23658582
REMARK  4 active torsions:
REMARK  status: ('A' for Active; 'I' for Inactive)
REMARK    1  A    between atoms: N_3  and  C_13
REMARK    2  A    between atoms: C_8  and  C_25
REMARK    3  A    between atoms: C_15  and  C_22
REMARK    4  A    between atoms: N_24  and  C_29
REMARK                            x       y       z     vdW  Elec       q    Type
REMARK                         _______ _______ _______ _____ _____    ______ ____
ROOT
ATOM      1 CL   UNL     1      37.757 -19.787 -20.989  0.00  0.00    -0.082 Cl
ATOM      2  O   UNL     1      32.914 -20.850 -19.508  0.00  0.00    -0.352 OA
ATOM      3  N   UNL     1      33.313 -23.056 -16.831  0.00  0.00    -0.295 N 
ATOM      4  N   UNL     1      32.355 -21.646 -18.515  0.00  0.00    -0.062 NA
ATOM      5  C   UNL     1      34.630 -21.794 -18.421  0.00  0.00    +0.072 A 
ATOM      6  C   UNL     1      34.270 -20.940 -19.448  0.00  0.00    +0.183 A 
ATOM      7  C   UNL     1      33.393 -22.199 -17.881  0.00  0.00    +0.174 A 
ATOM      8  C   UNL     1      35.177 -20.287 -20.280  0.00  0.00    +0.101 C 
ATOM      9  C   UNL     1      35.990 -22.034 -18.179  0.00  0.00    +0.007 C 
ATOM     10  C   UNL     1      36.530 -20.537 -20.027  0.00  0.00    +0.065 C 
ATOM     11  C   UNL     1      36.931 -21.394 -18.997  0.00  0.00    +0.012 C 
ATOM     12  H   UNL     1      34.182 -23.428 -16.553  0.00  0.00    +0.154 HD
ENDROOT
BRANCH   3  13
ATOM     13  C   UNL     1      32.215 -23.522 -16.054  0.00  0.00    +0.049 C 
ATOM     14  C   UNL     1      30.909 -23.272 -16.474  0.00  0.00    +0.018 C 
ATOM     15  C   UNL     1      29.833 -23.730 -15.713  0.00  0.00    +0.073 C 
ATOM     16  C   UNL     1      32.446 -24.230 -14.875  0.00  0.00    +0.015 C 
ATOM     17  C   UNL     1      30.063 -24.437 -14.533  0.00  0.00    +0.004 C 
ATOM     18  C   UNL     1      31.371 -24.687 -14.114  0.00  0.00    +0.001 C 
BRANCH  15  22
ATOM     19  F   UNL     1      27.564 -23.240 -15.131  0.00  0.00    -0.166 F 
ATOM     20  F   UNL     1      28.320 -22.365 -16.965  0.00  0.00    -0.166 F 
ATOM     21  F   UNL     1      27.904 -24.497 -16.872  0.00  0.00    -0.166 F 
ATOM     22  C   UNL     1      28.435 -23.462 -16.160  0.00  0.00    +0.419 C 
ENDBRANCH  15  22
ENDBRANCH   3  13
BRANCH   8  25
ATOM     23  O   UNL     1      34.064 -19.854 -22.294  0.00  0.00    -0.270 OA
ATOM     24  N   UNL     1      35.077 -18.063 -21.194  0.00  0.00    -0.278 N 
ATOM     25  C   UNL     1      34.708 -19.407 -21.337  0.00  0.00    +0.253 C 
ATOM     26  H   UNL     1      35.589 -17.842 -20.383  0.00  0.00    +0.155 HD
BRANCH  24  29
ATOM     27  N   UNL     1      34.076 -14.712 -22.411  0.00  0.00    -0.221 NA
ATOM     28  N   UNL     1      34.736 -16.064 -24.292  0.00  0.00    -0.221 NA
ATOM     29  C   UNL     1      34.805 -16.980 -22.068  0.00  0.00    +0.089 C 
ATOM     30  C   UNL     1      34.344 -15.763 -21.609  0.00  0.00    +0.117 C 
ATOM     31  C   UNL     1      34.984 -17.075 -23.433  0.00  0.00    +0.117 C 
ATOM     32  C   UNL     1      34.290 -14.929 -23.722  0.00  0.00    +0.199 C 
ENDBRANCH  24  29
ENDBRANCH   8  25
TORSDOF 4
ENDMDL
