MODEL 1
REMARK VINA RESULT:     -12.6      0.000      0.000
REMARK  Name = 10156987
REMARK  5 active torsions:
REMARK  status: ('A' for Active; 'I' for Inactive)
REMARK    1  A    between atoms: C_2  and  C_23
REMARK    2  A    between atoms: C_9  and  C_13
REMARK    3  A    between atoms: C_23  and  N_24
REMARK    4  A    between atoms: C_25  and  C_31
REMARK    5  A    between atoms: C_31  and  N_32
REMARK                            x       y       z     vdW  Elec       q    Type
REMARK                         _______ _______ _______ _____ _____    ______ ____
ROOT
ATOM      1  N   UNL     1      36.486 -20.803 -19.199  0.00  0.00    -0.312 N 
ATOM      2  C   UNL     1      35.584 -18.631 -22.573  0.00  0.00    -0.043 C 
ATOM      3  C   UNL     1      34.638 -19.402 -21.896  0.00  0.00    -0.005 C 
ATOM      4  C   UNL     1      36.900 -18.554 -22.136  0.00  0.00    -0.005 C 
ATOM      5  C   UNL     1      35.035 -20.115 -20.747  0.00  0.00    +0.014 C 
ATOM      6  C   UNL     1      36.364 -20.023 -20.327  0.00  0.00    +0.048 C 
ATOM      7  C   UNL     1      37.318 -19.252 -21.000  0.00  0.00    +0.014 C 
ATOM      8  C   UNL     1      34.367 -20.975 -19.833  0.00  0.00    +0.016 C 
ATOM      9  C   UNL     1      35.284 -21.382 -18.893  0.00  0.00    +0.053 C 
ATOM     10  H   UNL     1      37.318 -20.926 -18.686  0.00  0.00    +0.152 HD
ENDROOT
BRANCH   9  13
ATOM     11  O   UNL     1      32.999 -22.962 -18.224  0.00  0.00    -0.270 OA
ATOM     12  N   UNL     1      33.996 -23.846 -16.359  0.00  0.00    -0.280 N 
ATOM     13  C   UNL     1      35.217 -22.234 -17.746  0.00  0.00    +0.067 C 
ATOM     14  C   UNL     1      36.271 -22.315 -16.915  0.00  0.00    +0.007 C 
ATOM     15  C   UNL     1      33.976 -23.037 -17.479  0.00  0.00    +0.251 C 
ATOM     16  C   UNL     1      36.239 -23.182 -15.739  0.00  0.00    +0.014 C 
ATOM     17  C   UNL     1      35.091 -23.939 -15.485  0.00  0.00    +0.051 C 
ATOM     18  C   UNL     1      37.328 -23.274 -14.867  0.00  0.00    +0.001 C 
ATOM     19  C   UNL     1      35.024 -24.781 -14.372  0.00  0.00    +0.015 C 
ATOM     20  C   UNL     1      37.263 -24.116 -13.754  0.00  0.00    +0.000 C 
ATOM     21  C   UNL     1      36.114 -24.867 -13.507  0.00  0.00    +0.001 C 
ATOM     22  H   UNL     1      33.197 -24.388 -16.163  0.00  0.00    +0.155 HD
ENDBRANCH   9  13
BRANCH   2  23
ATOM     23  C   UNL     1      35.167 -17.871 -23.798  0.00  0.00    -0.050 C 
BRANCH  23  24
ATOM     24  N   UNL     1      34.417 -16.660 -23.463  0.00  0.00    +0.390 N 
ATOM     25  C   UNL     1      34.080 -13.773 -23.074  0.00  0.00    -0.026 C 
ATOM     26  C   UNL     1      34.210 -14.751 -21.901  0.00  0.00    -0.025 C 
ATOM     27  C   UNL     1      33.532 -14.508 -24.302  0.00  0.00    -0.025 C 
ATOM     28  C   UNL     1      35.014 -15.991 -22.298  0.00  0.00    -0.077 C 
ATOM     29  C   UNL     1      34.358 -15.756 -24.619  0.00  0.00    -0.077 C 
ATOM     30  H   UNL     1      33.463 -16.923 -23.220  0.00  0.00    -0.079 HD
BRANCH  25  31
ATOM     31  C   UNL     1      33.194 -12.587 -22.703  0.00  0.00    -0.086 C 
BRANCH  31  32
ATOM     32  N   UNL     1      32.032 -13.024 -21.944  0.00  0.00    +0.380 N 
ATOM     33  H   UNL     1      31.457 -12.216 -21.709  0.00  0.00    -0.089 HD
ATOM     34  H   UNL     1      32.340 -13.483 -21.087  0.00  0.00    -0.089 HD
ATOM     35  H   UNL     1      31.486 -13.679 -22.504  0.00  0.00    -0.089 HD
ENDBRANCH  31  32
ENDBRANCH  25  31
ENDBRANCH  23  24
ENDBRANCH   2  23
TORSDOF 5
ENDMDL
MODEL 2
REMARK VINA RESULT:     -12.4      1.393      2.320
REMARK  Name = 10156987
REMARK  5 active torsions:
REMARK  status: ('A' for Active; 'I' for Inactive)
REMARK    1  A    between atoms: C_2  and  C_23
REMARK    2  A    between atoms: C_9  and  C_13
REMARK    3  A    between atoms: C_23  and  N_24
REMARK    4  A    between atoms: C_25  and  C_31
REMARK    5  A    between atoms: C_31  and  N_32
REMARK                            x       y       z     vdW  Elec       q    Type
REMARK                         _______ _______ _______ _____ _____    ______ ____
ROOT
ATOM      1  N   UNL     1      34.416 -22.185 -17.785  0.00  0.00    -0.312 N 
ATOM      2  C   UNL     1      35.082 -19.973 -21.188  0.00  0.00    -0.043 C 
ATOM      3  C   UNL     1      36.114 -20.404 -20.354  0.00  0.00    -0.005 C 
ATOM      4  C   UNL     1      33.754 -20.273 -20.911  0.00  0.00    -0.005 C 
ATOM      5  C   UNL     1      35.794 -21.158 -19.207  0.00  0.00    +0.014 C 
ATOM      6  C   UNL     1      34.452 -21.447 -18.948  0.00  0.00    +0.048 C 
ATOM      7  C   UNL     1      33.412 -21.019 -19.780  0.00  0.00    +0.014 C 
ATOM      8  C   UNL     1      36.558 -21.747 -18.162  0.00  0.00    +0.016 C 
ATOM      9  C   UNL     1      35.683 -22.371 -17.303  0.00  0.00    +0.053 C 
ATOM     10  H   UNL     1      33.595 -22.529 -17.362  0.00  0.00    +0.152 HD
ENDROOT
BRANCH   9  13
ATOM     11  O   UNL     1      33.505 -23.177 -15.638  0.00  0.00    -0.270 OA
ATOM     12  N   UNL     1      34.876 -24.240 -14.141  0.00  0.00    -0.280 N 
ATOM     13  C   UNL     1      35.844 -23.117 -16.095  0.00  0.00    +0.067 C 
ATOM     14  C   UNL     1      37.075 -23.473 -15.691  0.00  0.00    +0.007 C 
ATOM     15  C   UNL     1      34.638 -23.507 -15.287  0.00  0.00    +0.251 C 
ATOM     16  C   UNL     1      37.274 -24.244 -14.465  0.00  0.00    +0.014 C 
ATOM     17  C   UNL     1      36.158 -24.617 -13.710  0.00  0.00    +0.051 C 
ATOM     18  C   UNL     1      38.550 -24.618 -14.034  0.00  0.00    +0.001 C 
ATOM     19  C   UNL     1      36.308 -25.357 -12.534  0.00  0.00    +0.015 C 
ATOM     20  C   UNL     1      38.702 -25.358 -12.859  0.00  0.00    +0.000 C 
ATOM     21  C   UNL     1      37.584 -25.725 -12.111  0.00  0.00    +0.001 C 
ATOM     22  H   UNL     1      34.103 -24.514 -13.595  0.00  0.00    +0.155 HD
ENDBRANCH   9  13
BRANCH   2  23
ATOM     23  C   UNL     1      35.417 -19.168 -22.410  0.00  0.00    -0.050 C 
BRANCH  23  24
ATOM     24  N   UNL     1      34.754 -17.864 -22.405  0.00  0.00    +0.390 N 
ATOM     25  C   UNL     1      34.668 -14.934 -22.485  0.00  0.00    -0.026 C 
ATOM     26  C   UNL     1      34.455 -15.728 -21.192  0.00  0.00    -0.025 C 
ATOM     27  C   UNL     1      34.295 -15.801 -23.692  0.00  0.00    -0.025 C 
ATOM     28  C   UNL     1      35.180 -17.075 -21.240  0.00  0.00    -0.077 C 
ATOM     29  C   UNL     1      35.025 -17.146 -23.658  0.00  0.00    -0.077 C 
ATOM     30  H   UNL     1      33.747 -18.008 -22.337  0.00  0.00    -0.079 HD
BRANCH  25  31
ATOM     31  C   UNL     1      33.863 -13.637 -22.471  0.00  0.00    -0.086 C 
BRANCH  31  32
ATOM     32  N   UNL     1      34.437 -12.660 -23.384  0.00  0.00    +0.380 N 
ATOM     33  H   UNL     1      35.424 -12.530 -23.165  0.00  0.00    -0.089 HD
ATOM     34  H   UNL     1      33.946 -11.772 -23.283  0.00  0.00    -0.089 HD
ATOM     35  H   UNL     1      34.342 -12.994 -24.343  0.00  0.00    -0.089 HD
ENDBRANCH  31  32
ENDBRANCH  25  31
ENDBRANCH  23  24
ENDBRANCH   2  23
TORSDOF 5
ENDMDL
MODEL 3
REMARK VINA RESULT:     -12.4      2.298      3.142
REMARK  Name = 10156987
REMARK  5 active torsions:
REMARK  status: ('A' for Active; 'I' for Inactive)
REMARK    1  A    between atoms: C_2  and  C_23
REMARK    2  A    between atoms: C_9  and  C_13
REMARK    3  A    between atoms: C_23  and  N_24
REMARK    4  A    between atoms: C_25  and  C_31
REMARK    5  A    between atoms: C_31  and  N_32
REMARK                            x       y       z     vdW  Elec       q    Type
REMARK                         _______ _______ _______ _____ _____    ______ ____
ROOT
ATOM      1  N   UNL     1      35.047 -22.006 -18.136  0.00  0.00    -0.312 N 
ATOM      2  C   UNL     1      35.350 -19.796 -21.592  0.00  0.00    -0.043 C 
ATOM      3  C   UNL     1      34.124 -20.169 -21.040  0.00  0.00    -0.005 C 
ATOM      4  C   UNL     1      36.552 -20.155 -20.995  0.00  0.00    -0.005 C 
ATOM      5  C   UNL     1      34.114 -20.927 -19.852  0.00  0.00    +0.014 C 
ATOM      6  C   UNL     1      35.334 -21.278 -19.270  0.00  0.00    +0.048 C 
ATOM      7  C   UNL     1      36.567 -20.907 -19.817  0.00  0.00    +0.014 C 
ATOM      8  C   UNL     1      33.088 -21.470 -19.030  0.00  0.00    +0.016 C 
ATOM      9  C   UNL     1      33.692 -22.127 -17.984  0.00  0.00    +0.053 C 
ATOM     10  H   UNL     1      35.719 -22.385 -17.525  0.00  0.00    +0.152 HD
ENDROOT
BRANCH   9  13
ATOM     11  O   UNL     1      35.371 -23.163 -15.917  0.00  0.00    -0.270 OA
ATOM     12  N   UNL     1      33.606 -24.038 -14.745  0.00  0.00    -0.280 N 
ATOM     13  C   UNL     1      33.202 -22.856 -16.856  0.00  0.00    +0.067 C 
ATOM     14  C   UNL     1      31.883 -23.086 -16.734  0.00  0.00    +0.007 C 
ATOM     15  C   UNL     1      34.160 -23.355 -15.811  0.00  0.00    +0.251 C 
ATOM     16  C   UNL     1      31.348 -23.821 -15.590  0.00  0.00    +0.014 C 
ATOM     17  C   UNL     1      32.230 -24.283 -14.608  0.00  0.00    +0.051 C 
ATOM     18  C   UNL     1      29.979 -24.067 -15.453  0.00  0.00    +0.001 C 
ATOM     19  C   UNL     1      31.755 -24.987 -13.498  0.00  0.00    +0.015 C 
ATOM     20  C   UNL     1      29.502 -24.770 -14.343  0.00  0.00    +0.000 C 
ATOM     21  C   UNL     1      30.389 -25.229 -13.369  0.00  0.00    +0.001 C 
ATOM     22  H   UNL     1      34.210 -24.372 -14.042  0.00  0.00    +0.155 HD
ENDBRANCH   9  13
BRANCH   2  23
ATOM     23  C   UNL     1      35.367 -18.990 -22.858  0.00  0.00    -0.050 C 
BRANCH  23  24
ATOM     24  N   UNL     1      34.718 -17.690 -22.688  0.00  0.00    +0.390 N 
ATOM     25  C   UNL     1      34.649 -14.763 -22.522  0.00  0.00    -0.026 C 
ATOM     26  C   UNL     1      34.545 -15.660 -21.284  0.00  0.00    -0.025 C 
ATOM     27  C   UNL     1      34.164 -15.529 -23.757  0.00  0.00    -0.025 C 
ATOM     28  C   UNL     1      35.251 -16.999 -21.506  0.00  0.00    -0.077 C 
ATOM     29  C   UNL     1      34.882 -16.872 -23.898  0.00  0.00    -0.077 C 
ATOM     30  H   UNL     1      33.720 -17.839 -22.543  0.00  0.00    -0.079 HD
BRANCH  25  31
ATOM     31  C   UNL     1      33.858 -13.471 -22.332  0.00  0.00    -0.086 C 
BRANCH  31  32
ATOM     32  N   UNL     1      34.242 -12.478 -23.322  0.00  0.00    +0.380 N 
ATOM     33  H   UNL     1      35.249 -12.326 -23.279  0.00  0.00    -0.089 HD
ATOM     34  H   UNL     1      33.757 -11.601 -23.129  0.00  0.00    -0.089 HD
ATOM     35  H   UNL     1      33.987 -12.809 -24.253  0.00  0.00    -0.089 HD
ENDBRANCH  31  32
ENDBRANCH  25  31
ENDBRANCH  23  24
ENDBRANCH   2  23
TORSDOF 5
ENDMDL
MODEL 4
REMARK VINA RESULT:     -12.0      3.967     12.069
REMARK  Name = 10156987
REMARK  5 active torsions:
REMARK  status: ('A' for Active; 'I' for Inactive)
REMARK    1  A    between atoms: C_2  and  C_23
REMARK    2  A    between atoms: C_9  and  C_13
REMARK    3  A    between atoms: C_23  and  N_24
REMARK    4  A    between atoms: C_25  and  C_31
REMARK    5  A    between atoms: C_31  and  N_32
REMARK                            x       y       z     vdW  Elec       q    Type
REMARK                         _______ _______ _______ _____ _____    ______ ____
ROOT
ATOM      1  N   UNL     1      33.142 -12.443 -21.433  0.00  0.00    -0.312 N 
ATOM      2  C   UNL     1      34.743 -16.144 -22.246  0.00  0.00    -0.043 C 
ATOM      3  C   UNL     1      34.743 -15.101 -23.173  0.00  0.00    -0.005 C 
ATOM      4  C   UNL     1      34.194 -15.985 -20.979  0.00  0.00    -0.005 C 
ATOM      5  C   UNL     1      34.173 -13.865 -22.809  0.00  0.00    +0.014 C 
ATOM      6  C   UNL     1      33.626 -13.728 -21.531  0.00  0.00    +0.048 C 
ATOM      7  C   UNL     1      33.622 -14.769 -20.596  0.00  0.00    +0.014 C 
ATOM      8  C   UNL     1      33.999 -12.619 -23.473  0.00  0.00    +0.016 C 
ATOM      9  C   UNL     1      33.363 -11.765 -22.602  0.00  0.00    +0.053 C 
ATOM     10  H   UNL     1      32.701 -12.066 -20.638  0.00  0.00    +0.152 HD
ENDROOT
BRANCH   9  13
ATOM     11  O   UNL     1      30.833 -10.853 -21.635  0.00  0.00    -0.270 OA
ATOM     12  N   UNL     1      31.235  -8.683 -22.252  0.00  0.00    -0.280 N 
ATOM     13  C   UNL     1      32.924 -10.407 -22.688  0.00  0.00    +0.067 C 
ATOM     14  C   UNL     1      33.722  -9.484 -23.253  0.00  0.00    +0.007 C 
ATOM     15  C   UNL     1      31.580 -10.017 -22.143  0.00  0.00    +0.251 C 
ATOM     16  C   UNL     1      33.308  -8.086 -23.349  0.00  0.00    +0.014 C 
ATOM     17  C   UNL     1      32.062  -7.711 -22.839  0.00  0.00    +0.051 C 
ATOM     18  C   UNL     1      34.129  -7.118 -23.935  0.00  0.00    +0.001 C 
ATOM     19  C   UNL     1      31.633  -6.383 -22.911  0.00  0.00    +0.015 C 
ATOM     20  C   UNL     1      33.702  -5.790 -24.008  0.00  0.00    +0.000 C 
ATOM     21  C   UNL     1      32.457  -5.424 -23.497  0.00  0.00    +0.001 C 
ATOM     22  H   UNL     1      30.362  -8.398 -21.897  0.00  0.00    +0.155 HD
ENDBRANCH   9  13
BRANCH   2  23
ATOM     23  C   UNL     1      35.348 -17.463 -22.628  0.00  0.00    -0.050 C 
BRANCH  23  24
ATOM     24  N   UNL     1      35.525 -18.340 -21.470  0.00  0.00    +0.390 N 
ATOM     25  C   UNL     1      36.228 -20.851 -20.130  0.00  0.00    -0.026 C 
ATOM     26  C   UNL     1      34.776 -20.409 -20.340  0.00  0.00    -0.025 C 
ATOM     27  C   UNL     1      37.144 -19.624 -20.109  0.00  0.00    -0.025 C 
ATOM     28  C   UNL     1      34.641 -19.509 -21.569  0.00  0.00    -0.077 C 
ATOM     29  C   UNL     1      36.931 -18.749 -21.347  0.00  0.00    -0.077 C 
ATOM     30  H   UNL     1      35.272 -17.824 -20.627  0.00  0.00    -0.079 HD
BRANCH  25  31
ATOM     31  C   UNL     1      36.374 -21.666 -18.847  0.00  0.00    -0.086 C 
BRANCH  31  32
ATOM     32  N   UNL     1      35.166 -22.431 -18.578  0.00  0.00    +0.380 N 
ATOM     33  H   UNL     1      34.795 -22.171 -17.665  0.00  0.00    -0.089 HD
ATOM     34  H   UNL     1      35.387 -23.427 -18.584  0.00  0.00    -0.089 HD
ATOM     35  H   UNL     1      34.470 -22.233 -19.297  0.00  0.00    -0.089 HD
ENDBRANCH  31  32
ENDBRANCH  25  31
ENDBRANCH  23  24
ENDBRANCH   2  23
TORSDOF 5
ENDMDL
MODEL 5
REMARK VINA RESULT:     -11.9      3.195     10.941
REMARK  Name = 10156987
REMARK  5 active torsions:
REMARK  status: ('A' for Active; 'I' for Inactive)
REMARK    1  A    between atoms: C_2  and  C_23
REMARK    2  A    between atoms: C_9  and  C_13
REMARK    3  A    between atoms: C_23  and  N_24
REMARK    4  A    between atoms: C_25  and  C_31
REMARK    5  A    between atoms: C_31  and  N_32
REMARK                            x       y       z     vdW  Elec       q    Type
REMARK                         _______ _______ _______ _____ _____    ______ ____
ROOT
ATOM      1  N   UNL     1      33.746 -14.272 -23.247  0.00  0.00    -0.312 N 
ATOM      2  C   UNL     1      35.499 -17.837 -22.181  0.00  0.00    -0.043 C 
ATOM      3  C   UNL     1      35.221 -16.828 -21.259  0.00  0.00    -0.005 C 
ATOM      4  C   UNL     1      35.192 -17.691 -23.528  0.00  0.00    -0.005 C 
ATOM      5  C   UNL     1      34.618 -15.637 -21.713  0.00  0.00    +0.014 C 
ATOM      6  C   UNL     1      34.320 -15.512 -23.072  0.00  0.00    +0.048 C 
ATOM      7  C   UNL     1      34.596 -16.520 -24.002  0.00  0.00    +0.014 C 
ATOM      8  C   UNL     1      34.204 -14.432 -21.082  0.00  0.00    +0.016 C 
ATOM      9  C   UNL     1      33.672 -13.612 -22.050  0.00  0.00    +0.053 C 
ATOM     10  H   UNL     1      33.435 -13.912 -24.109  0.00  0.00    +0.152 HD
ENDROOT
BRANCH   9  13
ATOM     11  O   UNL     1      31.413 -12.885 -20.459  0.00  0.00    -0.270 OA
ATOM     12  N   UNL     1      31.436 -10.713 -21.189  0.00  0.00    -0.280 N 
ATOM     13  C   UNL     1      33.102 -12.301 -22.035  0.00  0.00    +0.067 C 
ATOM     14  C   UNL     1      33.634 -11.336 -22.804  0.00  0.00    +0.007 C 
ATOM     15  C   UNL     1      31.919 -12.007 -21.158  0.00  0.00    +0.251 C 
ATOM     16  C   UNL     1      33.082  -9.983 -22.807  0.00  0.00    +0.014 C 
ATOM     17  C   UNL     1      31.985  -9.697 -21.989  0.00  0.00    +0.051 C 
ATOM     18  C   UNL     1      33.626  -8.971 -23.603  0.00  0.00    +0.001 C 
ATOM     19  C   UNL     1      31.430  -8.414 -21.962  0.00  0.00    +0.015 C 
ATOM     20  C   UNL     1      33.073  -7.688 -23.578  0.00  0.00    +0.000 C 
ATOM     21  C   UNL     1      31.978  -7.411 -22.760  0.00  0.00    +0.001 C 
ATOM     22  H   UNL     1      30.664 -10.490 -20.619  0.00  0.00    +0.155 HD
ENDBRANCH   9  13
BRANCH   2  23
ATOM     23  C   UNL     1      36.141 -19.107 -21.704  0.00  0.00    -0.050 C 
BRANCH  23  24
ATOM     24  N   UNL     1      35.398 -19.716 -20.601  0.00  0.00    +0.390 N 
ATOM     25  C   UNL     1      33.935 -21.878 -19.265  0.00  0.00    -0.026 C 
ATOM     26  C   UNL     1      33.230 -20.662 -19.874  0.00  0.00    -0.025 C 
ATOM     27  C   UNL     1      35.376 -21.510 -18.897  0.00  0.00    -0.025 C 
ATOM     28  C   UNL     1      34.038 -20.072 -21.031  0.00  0.00    -0.077 C 
ATOM     29  C   UNL     1      36.114 -20.892 -20.086  0.00  0.00    -0.077 C 
ATOM     30  H   UNL     1      35.321 -19.038 -19.844  0.00  0.00    -0.079 HD
BRANCH  25  31
ATOM     31  C   UNL     1      33.175 -22.402 -18.049  0.00  0.00    -0.086 C 
BRANCH  31  32
ATOM     32  N   UNL     1      33.785 -23.620 -17.540  0.00  0.00    +0.380 N 
ATOM     33  H   UNL     1      34.577 -23.875 -18.130  0.00  0.00    -0.089 HD
ATOM     34  H   UNL     1      33.098 -24.374 -17.550  0.00  0.00    -0.089 HD
ATOM     35  H   UNL     1      34.108 -23.466 -16.585  0.00  0.00    -0.089 HD
ENDBRANCH  31  32
ENDBRANCH  25  31
ENDBRANCH  23  24
ENDBRANCH   2  23
TORSDOF 5
ENDMDL
MODEL 6
REMARK VINA RESULT:     -11.8      7.325     15.104
REMARK  Name = 10156987
REMARK  5 active torsions:
REMARK  status: ('A' for Active; 'I' for Inactive)
REMARK    1  A    between atoms: C_2  and  C_23
REMARK    2  A    between atoms: C_9  and  C_13
REMARK    3  A    between atoms: C_23  and  N_24
REMARK    4  A    between atoms: C_25  and  C_31
REMARK    5  A    between atoms: C_31  and  N_32
REMARK                            x       y       z     vdW  Elec       q    Type
REMARK                         _______ _______ _______ _____ _____    ______ ____
ROOT
ATOM      1  N   UNL     1      31.971  -7.325 -21.031  0.00  0.00    -0.312 N 
ATOM      2  C   UNL     1      31.806 -11.374 -20.326  0.00  0.00    -0.043 C 
ATOM      3  C   UNL     1      31.696 -10.825 -21.604  0.00  0.00    -0.005 C 
ATOM      4  C   UNL     1      31.982 -10.570 -19.206  0.00  0.00    -0.005 C 
ATOM      5  C   UNL     1      31.763  -9.425 -21.753  0.00  0.00    +0.014 C 
ATOM      6  C   UNL     1      31.939  -8.637 -20.614  0.00  0.00    +0.048 C 
ATOM      7  C   UNL     1      32.051  -9.180 -19.330  0.00  0.00    +0.014 C 
ATOM      8  C   UNL     1      31.691  -8.541 -22.865  0.00  0.00    +0.016 C 
ATOM      9  C   UNL     1      31.822  -7.257 -22.390  0.00  0.00    +0.053 C 
ATOM     10  H   UNL     1      32.085  -6.547 -20.437  0.00  0.00    +0.152 HD
ENDROOT
BRANCH   9  13
ATOM     11  O   UNL     1      30.281  -5.043 -21.448  0.00  0.00    -0.270 OA
ATOM     12  N   UNL     1      31.066  -3.638 -23.080  0.00  0.00    -0.280 N 
ATOM     13  C   UNL     1      31.828  -5.968 -23.007  0.00  0.00    +0.067 C 
ATOM     14  C   UNL     1      32.589  -5.754 -24.094  0.00  0.00    +0.007 C 
ATOM     15  C   UNL     1      30.993  -4.858 -22.435  0.00  0.00    +0.251 C 
ATOM     16  C   UNL     1      32.627  -4.446 -24.744  0.00  0.00    +0.014 C 
ATOM     17  C   UNL     1      31.858  -3.404 -24.216  0.00  0.00    +0.051 C 
ATOM     18  C   UNL     1      33.413  -4.212 -25.876  0.00  0.00    +0.001 C 
ATOM     19  C   UNL     1      31.869  -2.139 -24.808  0.00  0.00    +0.015 C 
ATOM     20  C   UNL     1      33.426  -2.948 -26.470  0.00  0.00    +0.000 C 
ATOM     21  C   UNL     1      32.656  -1.914 -25.937  0.00  0.00    +0.001 C 
ATOM     22  H   UNL     1      30.533  -2.891 -22.723  0.00  0.00    +0.155 HD
ENDBRANCH   9  13
BRANCH   2  23
ATOM     23  C   UNL     1      31.734 -12.864 -20.161  0.00  0.00    -0.050 C 
BRANCH  23  24
ATOM     24  N   UNL     1      32.871 -13.540 -20.783  0.00  0.00    +0.390 N 
ATOM     25  C   UNL     1      34.166 -15.648 -22.359  0.00  0.00    -0.026 C 
ATOM     26  C   UNL     1      34.255 -15.591 -20.830  0.00  0.00    -0.025 C 
ATOM     27  C   UNL     1      33.915 -14.242 -22.914  0.00  0.00    -0.025 C 
ATOM     28  C   UNL     1      33.036 -14.890 -20.227  0.00  0.00    -0.077 C 
ATOM     29  C   UNL     1      32.707 -13.585 -22.243  0.00  0.00    -0.077 C 
ATOM     30  H   UNL     1      33.719 -13.010 -20.579  0.00  0.00    -0.079 HD
BRANCH  25  31
ATOM     31  C   UNL     1      35.429 -16.258 -22.960  0.00  0.00    -0.086 C 
BRANCH  31  32
ATOM     32  N   UNL     1      35.305 -16.391 -24.403  0.00  0.00    +0.380 N 
ATOM     33  H   UNL     1      36.047 -16.996 -24.753  0.00  0.00    -0.089 HD
ATOM     34  H   UNL     1      35.383 -15.471 -24.837  0.00  0.00    -0.089 HD
ATOM     35  H   UNL     1      34.398 -16.799 -24.630  0.00  0.00    -0.089 HD
ENDBRANCH  31  32
ENDBRANCH  25  31
ENDBRANCH  23  24
ENDBRANCH   2  23
TORSDOF 5
ENDMDL
MODEL 7
REMARK VINA RESULT:     -11.6      3.119      6.047
REMARK  Name = 10156987
REMARK  5 active torsions:
REMARK  status: ('A' for Active; 'I' for Inactive)
REMARK    1  A    between atoms: C_2  and  C_23
REMARK    2  A    between atoms: C_9  and  C_13
REMARK    3  A    between atoms: C_23  and  N_24
REMARK    4  A    between atoms: C_25  and  C_31
REMARK    5  A    between atoms: C_31  and  N_32
REMARK                            x       y       z     vdW  Elec       q    Type
REMARK                         _______ _______ _______ _____ _____    ______ ____
ROOT
ATOM      1  N   UNL     1      34.517 -16.966 -23.322  0.00  0.00    -0.312 N 
ATOM      2  C   UNL     1      33.949 -12.977 -24.148  0.00  0.00    -0.043 C 
ATOM      3  C   UNL     1      34.320 -13.440 -22.886  0.00  0.00    -0.005 C 
ATOM      4  C   UNL     1      33.749 -13.850 -25.210  0.00  0.00    -0.005 C 
ATOM      5  C   UNL     1      34.493 -14.826 -22.692  0.00  0.00    +0.014 C 
ATOM      6  C   UNL     1      34.286 -15.685 -23.774  0.00  0.00    +0.048 C 
ATOM      7  C   UNL     1      33.914 -15.228 -25.042  0.00  0.00    +0.014 C 
ATOM      8  C   UNL     1      34.855 -15.634 -21.580  0.00  0.00    +0.016 C 
ATOM      9  C   UNL     1      34.861 -16.945 -21.998  0.00  0.00    +0.053 C 
ATOM     10  H   UNL     1      34.444 -17.779 -23.873  0.00  0.00    +0.152 HD
ENDROOT
BRANCH   9  13
ATOM     11  O   UNL     1      37.497 -17.985 -21.628  0.00  0.00    -0.270 OA
ATOM     12  N   UNL     1      36.744 -19.859 -20.545  0.00  0.00    -0.280 N 
ATOM     13  C   UNL     1      35.139 -18.190 -21.352  0.00  0.00    +0.067 C 
ATOM     14  C   UNL     1      34.124 -18.937 -20.884  0.00  0.00    +0.007 C 
ATOM     15  C   UNL     1      36.559 -18.653 -21.193  0.00  0.00    +0.251 C 
ATOM     16  C   UNL     1      34.373 -20.210 -20.211  0.00  0.00    +0.014 C 
ATOM     17  C   UNL     1      35.692 -20.647 -20.052  0.00  0.00    +0.051 C 
ATOM     18  C   UNL     1      33.326 -20.997 -19.721  0.00  0.00    +0.001 C 
ATOM     19  C   UNL     1      35.969 -21.857 -19.412  0.00  0.00    +0.015 C 
ATOM     20  C   UNL     1      33.602 -22.207 -19.080  0.00  0.00    +0.000 C 
ATOM     21  C   UNL     1      34.920 -22.636 -18.927  0.00  0.00    +0.001 C 
ATOM     22  H   UNL     1      37.666 -20.184 -20.422  0.00  0.00    +0.155 HD
ENDBRANCH   9  13
BRANCH   2  23
ATOM     23  C   UNL     1      33.762 -11.503 -24.360  0.00  0.00    -0.050 C 
BRANCH  23  24
ATOM     24  N   UNL     1      33.514 -10.796 -23.104  0.00  0.00    +0.390 N 
ATOM     25  C   UNL     1      32.007  -9.042 -21.300  0.00  0.00    -0.026 C 
ATOM     26  C   UNL     1      33.285  -8.587 -22.012  0.00  0.00    -0.025 C 
ATOM     27  C   UNL     1      32.014 -10.567 -21.150  0.00  0.00    -0.025 C 
ATOM     28  C   UNL     1      33.490  -9.343 -23.326  0.00  0.00    -0.077 C 
ATOM     29  C   UNL     1      32.261 -11.259 -22.492  0.00  0.00    -0.077 C 
ATOM     30  H   UNL     1      34.275 -11.003 -22.457  0.00  0.00    -0.079 HD
BRANCH  25  31
ATOM     31  C   UNL     1      31.860  -8.357 -19.944  0.00  0.00    -0.086 C 
BRANCH  31  32
ATOM     32  N   UNL     1      33.107  -7.724 -19.545  0.00  0.00    +0.380 N 
ATOM     33  H   UNL     1      33.893  -8.278 -19.884  0.00  0.00    -0.089 HD
ATOM     34  H   UNL     1      33.148  -7.665 -18.527  0.00  0.00    -0.089 HD
ATOM     35  H   UNL     1      33.155  -6.786 -19.942  0.00  0.00    -0.089 HD
ENDBRANCH  31  32
ENDBRANCH  25  31
ENDBRANCH  23  24
ENDBRANCH   2  23
TORSDOF 5
ENDMDL
MODEL 8
REMARK VINA RESULT:     -11.6      1.924      2.967
REMARK  Name = 10156987
REMARK  5 active torsions:
REMARK  status: ('A' for Active; 'I' for Inactive)
REMARK    1  A    between atoms: C_2  and  C_23
REMARK    2  A    between atoms: C_9  and  C_13
REMARK    3  A    between atoms: C_23  and  N_24
REMARK    4  A    between atoms: C_25  and  C_31
REMARK    5  A    between atoms: C_31  and  N_32
REMARK                            x       y       z     vdW  Elec       q    Type
REMARK                         _______ _______ _______ _____ _____    ______ ____
ROOT
ATOM      1  N   UNL     1      34.802 -22.195 -17.482  0.00  0.00    -0.312 N 
ATOM      2  C   UNL     1      35.098 -20.176 -21.053  0.00  0.00    -0.043 C 
ATOM      3  C   UNL     1      36.205 -20.461 -20.254  0.00  0.00    -0.005 C 
ATOM      4  C   UNL     1      33.817 -20.565 -20.682  0.00  0.00    -0.005 C 
ATOM      5  C   UNL     1      36.011 -21.159 -19.044  0.00  0.00    +0.014 C 
ATOM      6  C   UNL     1      34.715 -21.539 -18.690  0.00  0.00    +0.048 C 
ATOM      7  C   UNL     1      33.600 -21.257 -19.487  0.00  0.00    +0.014 C 
ATOM      8  C   UNL     1      36.876 -21.608 -18.009  0.00  0.00    +0.016 C 
ATOM      9  C   UNL     1      36.104 -22.241 -17.063  0.00  0.00    +0.053 C 
ATOM     10  H   UNL     1      34.037 -22.575 -16.991  0.00  0.00    +0.152 HD
ENDROOT
BRANCH   9  13
ATOM     11  O   UNL     1      38.735 -22.988 -16.236  0.00  0.00    -0.270 OA
ATOM     12  N   UNL     1      38.004 -23.843 -14.238  0.00  0.00    -0.280 N 
ATOM     13  C   UNL     1      36.390 -22.887 -15.820  0.00  0.00    +0.067 C 
ATOM     14  C   UNL     1      35.387 -23.175 -14.972  0.00  0.00    +0.007 C 
ATOM     15  C   UNL     1      37.808 -23.234 -15.464  0.00  0.00    +0.251 C 
ATOM     16  C   UNL     1      35.646 -23.826 -13.690  0.00  0.00    +0.014 C 
ATOM     17  C   UNL     1      36.963 -24.147 -13.346  0.00  0.00    +0.051 C 
ATOM     18  C   UNL     1      34.611 -24.131 -12.801  0.00  0.00    +0.001 C 
ATOM     19  C   UNL     1      37.250 -24.768 -12.128  0.00  0.00    +0.015 C 
ATOM     20  C   UNL     1      34.897 -24.751 -11.582  0.00  0.00    +0.000 C 
ATOM     21  C   UNL     1      36.212 -25.069 -11.247  0.00  0.00    +0.001 C 
ATOM     22  H   UNL     1      38.924 -24.076 -13.977  0.00  0.00    +0.155 HD
ENDBRANCH   9  13
BRANCH   2  23
ATOM     23  C   UNL     1      35.298 -19.433 -22.342  0.00  0.00    -0.050 C 
BRANCH  23  24
ATOM     24  N   UNL     1      34.711 -18.094 -22.298  0.00  0.00    +0.390 N 
ATOM     25  C   UNL     1      34.792 -15.162 -22.295  0.00  0.00    -0.026 C 
ATOM     26  C   UNL     1      34.535 -15.979 -21.024  0.00  0.00    -0.025 C 
ATOM     27  C   UNL     1      34.370 -15.972 -23.525  0.00  0.00    -0.025 C 
ATOM     28  C   UNL     1      35.182 -17.363 -21.113  0.00  0.00    -0.077 C 
ATOM     29  C   UNL     1      35.021 -17.357 -23.531  0.00  0.00    -0.077 C 
ATOM     30  H   UNL     1      33.698 -18.182 -22.232  0.00  0.00    -0.079 HD
BRANCH  25  31
ATOM     31  C   UNL     1      34.062 -13.822 -22.243  0.00  0.00    -0.086 C 
BRANCH  31  32
ATOM     32  N   UNL     1      34.452 -12.975 -23.359  0.00  0.00    +0.380 N 
ATOM     33  H   UNL     1      33.679 -12.908 -24.021  0.00  0.00    -0.089 HD
ATOM     34  H   UNL     1      35.264 -13.380 -23.826  0.00  0.00    -0.089 HD
ATOM     35  H   UNL     1      34.687 -12.044 -23.014  0.00  0.00    -0.089 HD
ENDBRANCH  31  32
ENDBRANCH  25  31
ENDBRANCH  23  24
ENDBRANCH   2  23
TORSDOF 5
ENDMDL
MODEL 9
REMARK VINA RESULT:     -11.4      5.459      9.874
REMARK  Name = 10156987
REMARK  5 active torsions:
REMARK  status: ('A' for Active; 'I' for Inactive)
REMARK    1  A    between atoms: C_2  and  C_23
REMARK    2  A    between atoms: C_9  and  C_13
REMARK    3  A    between atoms: C_23  and  N_24
REMARK    4  A    between atoms: C_25  and  C_31
REMARK    5  A    between atoms: C_31  and  N_32
REMARK                            x       y       z     vdW  Elec       q    Type
REMARK                         _______ _______ _______ _____ _____    ______ ____
ROOT
ATOM      1  N   UNL     1      32.700 -13.025 -22.119  0.00  0.00    -0.312 N 
ATOM      2  C   UNL     1      32.360  -8.941 -22.464  0.00  0.00    -0.043 C 
ATOM      3  C   UNL     1      33.255  -9.691 -23.228  0.00  0.00    -0.005 C 
ATOM      4  C   UNL     1      31.522  -9.542 -21.533  0.00  0.00    -0.005 C 
ATOM      5  C   UNL     1      33.304 -11.087 -23.044  0.00  0.00    +0.014 C 
ATOM      6  C   UNL     1      32.454 -11.670 -22.102  0.00  0.00    +0.048 C 
ATOM      7  C   UNL     1      31.554 -10.925 -21.333  0.00  0.00    +0.014 C 
ATOM      8  C   UNL     1      34.067 -12.138 -23.625  0.00  0.00    +0.016 C 
ATOM      9  C   UNL     1      33.673 -13.317 -23.036  0.00  0.00    +0.053 C 
ATOM     10  H   UNL     1      32.242 -13.688 -21.553  0.00  0.00    +0.152 HD
ENDROOT
BRANCH   9  13
ATOM     11  O   UNL     1      33.682 -14.681 -25.547  0.00  0.00    -0.270 OA
ATOM     12  N   UNL     1      34.455 -16.634 -24.628  0.00  0.00    -0.280 N 
ATOM     13  C   UNL     1      34.065 -14.683 -23.194  0.00  0.00    +0.067 C 
ATOM     14  C   UNL     1      34.453 -15.393 -22.121  0.00  0.00    +0.007 C 
ATOM     15  C   UNL     1      34.048 -15.315 -24.557  0.00  0.00    +0.251 C 
ATOM     16  C   UNL     1      34.868 -16.788 -22.249  0.00  0.00    +0.014 C 
ATOM     17  C   UNL     1      34.862 -17.384 -23.513  0.00  0.00    +0.051 C 
ATOM     18  C   UNL     1      35.272 -17.536 -21.139  0.00  0.00    +0.001 C 
ATOM     19  C   UNL     1      35.255 -18.715 -23.676  0.00  0.00    +0.015 C 
ATOM     20  C   UNL     1      35.665 -18.867 -21.300  0.00  0.00    +0.000 C 
ATOM     21  C   UNL     1      35.656 -19.455 -22.564  0.00  0.00    +0.001 C 
ATOM     22  H   UNL     1      34.459 -17.072 -25.511  0.00  0.00    +0.155 HD
ENDBRANCH   9  13
BRANCH   2  23
ATOM     23  C   UNL     1      32.303  -7.453 -22.655  0.00  0.00    -0.050 C 
BRANCH  23  24
ATOM     24  N   UNL     1      33.082  -7.020 -23.814  0.00  0.00    +0.390 N 
ATOM     25  C   UNL     1      34.622  -5.097 -25.406  0.00  0.00    -0.026 C 
ATOM     26  C   UNL     1      33.180  -5.485 -25.754  0.00  0.00    -0.025 C 
ATOM     27  C   UNL     1      35.286  -6.228 -24.615  0.00  0.00    -0.025 C 
ATOM     28  C   UNL     1      32.404  -5.915 -24.507  0.00  0.00    -0.077 C 
ATOM     29  C   UNL     1      34.440  -6.634 -23.406  0.00  0.00    -0.077 C 
ATOM     30  H   UNL     1      33.160  -7.800 -24.467  0.00  0.00    -0.079 HD
BRANCH  25  31
ATOM     31  C   UNL     1      35.419  -4.765 -26.664  0.00  0.00    -0.086 C 
BRANCH  31  32
ATOM     32  N   UNL     1      34.543  -4.292 -27.725  0.00  0.00    +0.380 N 
ATOM     33  H   UNL     1      33.949  -5.057 -28.041  0.00  0.00    -0.089 HD
ATOM     34  H   UNL     1      35.107  -3.954 -28.505  0.00  0.00    -0.089 HD
ATOM     35  H   UNL     1      33.961  -3.532 -27.372  0.00  0.00    -0.089 HD
ENDBRANCH  31  32
ENDBRANCH  25  31
ENDBRANCH  23  24
ENDBRANCH   2  23
TORSDOF 5
ENDMDL
