MODEL 1
REMARK VINA RESULT:     -11.9      0.000      0.000
REMARK  Name = 71360
REMARK  8 active torsions:
REMARK  status: ('A' for Active; 'I' for Inactive)
REMARK    1  A    between atoms: N_1  and  C_18
REMARK    2  A    between atoms: C_2  and  C_11
REMARK    3  A    between atoms: C_18  and  C_19
REMARK    4  A    between atoms: C_19  and  C_20
REMARK    5  A    between atoms: C_20  and  O_21
REMARK    6  A    between atoms: O_21  and  C_22
REMARK    7  A    between atoms: C_23  and  O_31
REMARK    8  A    between atoms: C_27  and  C_29
REMARK                            x       y       z     vdW  Elec       q    Type
REMARK                         _______ _______ _______ _____ _____    ______ ____
ROOT
ATOM      1  N   UNL     1      35.436 -19.922 -20.290  0.00  0.00    +0.387 N 
ATOM      2  C   UNL     1      34.090 -22.064 -18.805  0.00  0.00    +0.039 C 
ATOM      3  C   UNL     1      33.326 -20.883 -19.425  0.00  0.00    -0.017 C 
ATOM      4  C   UNL     1      35.545 -21.654 -18.526  0.00  0.00    -0.017 C 
ATOM      5  C   UNL     1      34.066 -20.319 -20.641  0.00  0.00    -0.077 C 
ATOM      6  C   UNL     1      36.205 -21.064 -19.774  0.00  0.00    -0.077 C 
ATOM      7  H   UNL     1      35.381 -19.220 -19.552  0.00  0.00    -0.080 HD
ENDROOT
BRANCH   2  11
ATOM      8  F   UNL     1      34.480 -24.751 -12.652  0.00  0.00    -0.204 F 
ATOM      9  O   UNL     1      31.761 -23.252 -16.326  0.00  0.00    -0.354 OA
ATOM     10  N   UNL     1      32.070 -22.696 -17.561  0.00  0.00    -0.081 NA
ATOM     11  C   UNL     1      33.399 -22.630 -17.585  0.00  0.00    +0.100 A 
ATOM     12  C   UNL     1      33.995 -23.119 -16.413  0.00  0.00    +0.054 A 
ATOM     13  C   UNL     1      32.911 -23.504 -15.643  0.00  0.00    +0.179 A 
ATOM     14  C   UNL     1      35.290 -23.291 -15.902  0.00  0.00    +0.007 C 
ATOM     15  C   UNL     1      33.011 -24.058 -14.370  0.00  0.00    +0.070 C 
ATOM     16  C   UNL     1      35.428 -23.847 -14.621  0.00  0.00    +0.030 C 
ATOM     17  C   UNL     1      34.308 -24.223 -13.872  0.00  0.00    +0.143 C 
ENDBRANCH   2  11
BRANCH   1  18
ATOM     18  C   UNL     1      36.111 -19.333 -21.448  0.00  0.00    -0.074 C 
BRANCH  18  19
ATOM     19  C   UNL     1      35.179 -18.364 -22.166  0.00  0.00    +0.025 C 
BRANCH  19  20
ATOM     20  C   UNL     1      35.089 -17.030 -21.438  0.00  0.00    +0.203 C 
BRANCH  20  21
ATOM     21  O   UNL     1      34.798 -16.009 -22.382  0.00  0.00    -0.472 OA
BRANCH  21  22
ATOM     22  C   UNL     1      33.981 -14.993 -21.962  0.00  0.00    +0.172 C 
ATOM     23  C   UNL     1      33.636 -13.966 -22.835  0.00  0.00    +0.172 C 
ATOM     24  C   UNL     1      33.505 -15.001 -20.656  0.00  0.00    +0.040 C 
ATOM     25  C   UNL     1      32.804 -12.936 -22.396  0.00  0.00    +0.043 C 
ATOM     26  C   UNL     1      32.672 -13.971 -20.217  0.00  0.00    +0.006 C 
ATOM     27  C   UNL     1      32.322 -12.939 -21.087  0.00  0.00    +0.038 C 
BRANCH  27  29
ATOM     28  O   UNL     1      30.658 -11.297 -21.404  0.00  0.00    -0.291 OA
ATOM     29  C   UNL     1      31.453 -11.865 -20.629  0.00  0.00    +0.174 C 
ATOM     30  C   UNL     1      31.498 -11.408 -19.175  0.00  0.00    +0.077 C 
ENDBRANCH  27  29
BRANCH  23  31
ATOM     31  O   UNL     1      34.099 -13.953 -24.116  0.00  0.00    -0.468 OA
ATOM     32  C   UNL     1      33.174 -14.301 -25.144  0.00  0.00    +0.253 C 
ENDBRANCH  23  31
ENDBRANCH  21  22
ENDBRANCH  20  21
ENDBRANCH  19  20
ENDBRANCH  18  19
ENDBRANCH   1  18
TORSDOF 8
ENDMDL
MODEL 2
REMARK VINA RESULT:     -11.9      1.371      1.748
REMARK  Name = 71360
REMARK  8 active torsions:
REMARK  status: ('A' for Active; 'I' for Inactive)
REMARK    1  A    between atoms: N_1  and  C_18
REMARK    2  A    between atoms: C_2  and  C_11
REMARK    3  A    between atoms: C_18  and  C_19
REMARK    4  A    between atoms: C_19  and  C_20
REMARK    5  A    between atoms: C_20  and  O_21
REMARK    6  A    between atoms: O_21  and  C_22
REMARK    7  A    between atoms: C_23  and  O_31
REMARK    8  A    between atoms: C_27  and  C_29
REMARK                            x       y       z     vdW  Elec       q    Type
REMARK                         _______ _______ _______ _____ _____    ______ ____
ROOT
ATOM      1  N   UNL     1      34.690 -20.154 -20.327  0.00  0.00    +0.387 N 
ATOM      2  C   UNL     1      34.353 -22.342 -18.402  0.00  0.00    +0.039 C 
ATOM      3  C   UNL     1      33.213 -21.378 -18.763  0.00  0.00    -0.017 C 
ATOM      4  C   UNL     1      35.710 -21.662 -18.650  0.00  0.00    -0.017 C 
ATOM      5  C   UNL     1      33.387 -20.815 -20.177  0.00  0.00    -0.077 C 
ATOM      6  C   UNL     1      35.794 -21.090 -20.067  0.00  0.00    -0.077 C 
ATOM      7  H   UNL     1      34.745 -19.405 -19.638  0.00  0.00    -0.080 HD
ENDROOT
BRANCH   2  11
ATOM      8  F   UNL     1      30.462 -24.273 -13.268  0.00  0.00    -0.204 F 
ATOM      9  O   UNL     1      34.871 -23.684 -15.098  0.00  0.00    -0.354 OA
ATOM     10  N   UNL     1      35.327 -23.209 -16.321  0.00  0.00    -0.081 NA
ATOM     11  C   UNL     1      34.226 -22.899 -17.001  0.00  0.00    +0.100 A 
ATOM     12  C   UNL     1      33.048 -23.149 -16.283  0.00  0.00    +0.054 A 
ATOM     13  C   UNL     1      33.510 -23.646 -15.078  0.00  0.00    +0.179 A 
ATOM     14  C   UNL     1      31.665 -23.022 -16.483  0.00  0.00    +0.007 C 
ATOM     15  C   UNL     1      32.690 -24.043 -14.026  0.00  0.00    +0.070 C 
ATOM     16  C   UNL     1      30.808 -23.411 -15.443  0.00  0.00    +0.030 C 
ATOM     17  C   UNL     1      31.313 -23.912 -14.238  0.00  0.00    +0.143 C 
ENDBRANCH   2  11
BRANCH   1  18
ATOM     18  C   UNL     1      34.818 -19.574 -21.664  0.00  0.00    -0.074 C 
BRANCH  18  19
ATOM     19  C   UNL     1      35.740 -18.360 -21.628  0.00  0.00    +0.025 C 
BRANCH  19  20
ATOM     20  C   UNL     1      35.042 -17.146 -21.031  0.00  0.00    +0.203 C 
BRANCH  20  21
ATOM     21  O   UNL     1      34.658 -16.272 -22.084  0.00  0.00    -0.472 OA
BRANCH  21  22
ATOM     22  C   UNL     1      33.892 -15.189 -21.741  0.00  0.00    +0.172 C 
ATOM     23  C   UNL     1      33.682 -14.162 -22.655  0.00  0.00    +0.172 C 
ATOM     24  C   UNL     1      33.330 -15.131 -20.470  0.00  0.00    +0.040 C 
ATOM     25  C   UNL     1      32.901 -13.064 -22.294  0.00  0.00    +0.043 C 
ATOM     26  C   UNL     1      32.548 -14.033 -20.109  0.00  0.00    +0.006 C 
ATOM     27  C   UNL     1      32.334 -13.000 -21.021  0.00  0.00    +0.038 C 
BRANCH  27  29
ATOM     28  O   UNL     1      30.771 -11.290 -21.469  0.00  0.00    -0.291 OA
ATOM     29  C   UNL     1      31.518 -11.856 -20.645  0.00  0.00    +0.174 C 
ATOM     30  C   UNL     1      31.559 -11.318 -19.219  0.00  0.00    +0.077 C 
ENDBRANCH  27  29
BRANCH  23  31
ATOM     31  O   UNL     1      34.230 -14.214 -23.901  0.00  0.00    -0.468 OA
ATOM     32  C   UNL     1      33.385 -14.653 -24.963  0.00  0.00    +0.253 C 
ENDBRANCH  23  31
ENDBRANCH  21  22
ENDBRANCH  20  21
ENDBRANCH  19  20
ENDBRANCH  18  19
ENDBRANCH   1  18
TORSDOF 8
ENDMDL
MODEL 3
REMARK VINA RESULT:     -11.8      2.445      4.105
REMARK  Name = 71360
REMARK  8 active torsions:
REMARK  status: ('A' for Active; 'I' for Inactive)
REMARK    1  A    between atoms: N_1  and  C_18
REMARK    2  A    between atoms: C_2  and  C_11
REMARK    3  A    between atoms: C_18  and  C_19
REMARK    4  A    between atoms: C_19  and  C_20
REMARK    5  A    between atoms: C_20  and  O_21
REMARK    6  A    between atoms: O_21  and  C_22
REMARK    7  A    between atoms: C_23  and  O_31
REMARK    8  A    between atoms: C_27  and  C_29
REMARK                            x       y       z     vdW  Elec       q    Type
REMARK                         _______ _______ _______ _____ _____    ______ ____
ROOT
ATOM      1  N   UNL     1      35.745 -22.210 -18.734  0.00  0.00    +0.387 N 
ATOM      2  C   UNL     1      34.102 -22.641 -16.342  0.00  0.00    +0.039 C 
ATOM      3  C   UNL     1      35.631 -22.795 -16.331  0.00  0.00    -0.017 C 
ATOM      4  C   UNL     1      33.565 -22.868 -17.765  0.00  0.00    -0.017 C 
ATOM      5  C   UNL     1      36.286 -21.915 -17.400  0.00  0.00    -0.077 C 
ATOM      6  C   UNL     1      34.293 -21.985 -18.780  0.00  0.00    -0.077 C 
ATOM      7  H   UNL     1      35.917 -23.196 -18.932  0.00  0.00    -0.080 HD
ENDROOT
BRANCH   2  11
ATOM      8  F   UNL     1      28.474 -25.395 -13.897  0.00  0.00    -0.204 F 
ATOM      9  O   UNL     1      33.241 -24.818 -13.603  0.00  0.00    -0.354 OA
ATOM     10  N   UNL     1      34.151 -24.099 -14.367  0.00  0.00    -0.081 NA
ATOM     11  C   UNL     1      33.420 -23.517 -15.314  0.00  0.00    +0.100 A 
ATOM     12  C   UNL     1      32.054 -23.817 -15.217  0.00  0.00    +0.054 A 
ATOM     13  C   UNL     1      31.989 -24.648 -14.112  0.00  0.00    +0.179 A 
ATOM     14  C   UNL     1      30.871 -23.503 -15.904  0.00  0.00    +0.007 C 
ATOM     15  C   UNL     1      30.815 -25.210 -13.621  0.00  0.00    +0.070 C 
ATOM     16  C   UNL     1      29.668 -24.052 -15.435  0.00  0.00    +0.030 C 
ATOM     17  C   UNL     1      29.643 -24.890 -14.315  0.00  0.00    +0.143 C 
ENDBRANCH   2  11
BRANCH   1  18
ATOM     18  C   UNL     1      36.420 -21.402 -19.749  0.00  0.00    -0.074 C 
BRANCH  18  19
ATOM     19  C   UNL     1      35.466 -20.354 -20.312  0.00  0.00    +0.025 C 
BRANCH  19  20
ATOM     20  C   UNL     1      36.213 -19.272 -21.080  0.00  0.00    +0.203 C 
BRANCH  20  21
ATOM     21  O   UNL     1      35.612 -18.015 -20.804  0.00  0.00    -0.472 OA
BRANCH  21  22
ATOM     22  C   UNL     1      35.191 -17.281 -21.882  0.00  0.00    +0.172 C 
ATOM     23  C   UNL     1      34.575 -16.048 -21.691  0.00  0.00    +0.172 C 
ATOM     24  C   UNL     1      35.385 -17.784 -23.163  0.00  0.00    +0.040 C 
ATOM     25  C   UNL     1      34.150 -15.310 -22.796  0.00  0.00    +0.043 C 
ATOM     26  C   UNL     1      34.960 -17.046 -24.268  0.00  0.00    +0.006 C 
ATOM     27  C   UNL     1      34.342 -15.810 -24.084  0.00  0.00    +0.038 C 
BRANCH  27  29
ATOM     28  O   UNL     1      33.890 -15.532 -26.383  0.00  0.00    -0.291 OA
ATOM     29  C   UNL     1      33.899 -15.040 -25.237  0.00  0.00    +0.174 C 
ATOM     30  C   UNL     1      33.432 -13.599 -25.064  0.00  0.00    +0.077 C 
ENDBRANCH  27  29
BRANCH  23  31
ATOM     31  O   UNL     1      34.382 -15.549 -20.438  0.00  0.00    -0.468 OA
ATOM     32  C   UNL     1      33.070 -15.091 -20.118  0.00  0.00    +0.253 C 
ENDBRANCH  23  31
ENDBRANCH  21  22
ENDBRANCH  20  21
ENDBRANCH  19  20
ENDBRANCH  18  19
ENDBRANCH   1  18
TORSDOF 8
ENDMDL
MODEL 4
REMARK VINA RESULT:     -11.6      3.861     10.760
REMARK  Name = 71360
REMARK  8 active torsions:
REMARK  status: ('A' for Active; 'I' for Inactive)
REMARK    1  A    between atoms: N_1  and  C_18
REMARK    2  A    between atoms: C_2  and  C_11
REMARK    3  A    between atoms: C_18  and  C_19
REMARK    4  A    between atoms: C_19  and  C_20
REMARK    5  A    between atoms: C_20  and  O_21
REMARK    6  A    between atoms: O_21  and  C_22
REMARK    7  A    between atoms: C_23  and  O_31
REMARK    8  A    between atoms: C_27  and  C_29
REMARK                            x       y       z     vdW  Elec       q    Type
REMARK                         _______ _______ _______ _____ _____    ______ ____
ROOT
ATOM      1  N   UNL     1      34.078 -22.490 -19.105  0.00  0.00    +0.387 N 
ATOM      2  C   UNL     1      34.623 -19.916 -20.402  0.00  0.00    +0.039 C 
ATOM      3  C   UNL     1      33.210 -20.511 -20.312  0.00  0.00    -0.017 C 
ATOM      4  C   UNL     1      35.669 -21.040 -20.327  0.00  0.00    -0.017 C 
ATOM      5  C   UNL     1      33.067 -21.424 -19.091  0.00  0.00    -0.077 C 
ATOM      6  C   UNL     1      35.438 -21.932 -19.105  0.00  0.00    -0.077 C 
ATOM      7  H   UNL     1      33.958 -23.026 -19.964  0.00  0.00    -0.080 HD
ENDROOT
BRANCH   2  11
ATOM      8  F   UNL     1      34.857 -13.751 -23.080  0.00  0.00    -0.204 F 
ATOM      9  O   UNL     1      35.165 -18.514 -23.677  0.00  0.00    -0.354 OA
ATOM     10  N   UNL     1      35.049 -19.583 -22.797  0.00  0.00    -0.081 NA
ATOM     11  C   UNL     1      34.807 -19.027 -21.612  0.00  0.00    +0.100 A 
ATOM     12  C   UNL     1      34.758 -17.627 -21.661  0.00  0.00    +0.054 A 
ATOM     13  C   UNL     1      34.991 -17.347 -22.997  0.00  0.00    +0.179 A 
ATOM     14  C   UNL     1      34.549 -16.564 -20.769  0.00  0.00    +0.007 C 
ATOM     15  C   UNL     1      35.037 -16.065 -23.533  0.00  0.00    +0.070 C 
ATOM     16  C   UNL     1      34.588 -15.257 -21.277  0.00  0.00    +0.030 C 
ATOM     17  C   UNL     1      34.827 -15.014 -22.633  0.00  0.00    +0.143 C 
ENDBRANCH   2  11
BRANCH   1  18
ATOM     18  C   UNL     1      33.893 -23.385 -17.962  0.00  0.00    -0.074 C 
BRANCH  18  19
ATOM     19  C   UNL     1      32.846 -22.819 -17.011  0.00  0.00    +0.025 C 
BRANCH  19  20
ATOM     20  C   UNL     1      32.960 -23.434 -15.623  0.00  0.00    +0.203 C 
BRANCH  20  21
ATOM     21  O   UNL     1      34.056 -22.837 -14.943  0.00  0.00    -0.472 OA
BRANCH  21  22
ATOM     22  C   UNL     1      35.198 -23.586 -14.834  0.00  0.00    +0.172 C 
ATOM     23  C   UNL     1      36.426 -23.046 -15.200  0.00  0.00    +0.172 C 
ATOM     24  C   UNL     1      35.112 -24.888 -14.354  0.00  0.00    +0.040 C 
ATOM     25  C   UNL     1      37.583 -23.818 -15.085  0.00  0.00    +0.043 C 
ATOM     26  C   UNL     1      36.268 -25.660 -14.238  0.00  0.00    +0.006 C 
ATOM     27  C   UNL     1      37.503 -25.126 -14.604  0.00  0.00    +0.038 C 
BRANCH  27  29
ATOM     28  O   UNL     1      38.654 -27.151 -14.229  0.00  0.00    -0.291 OA
ATOM     29  C   UNL     1      38.709 -25.931 -14.482  0.00  0.00    +0.174 C 
ATOM     30  C   UNL     1      40.081 -25.291 -14.665  0.00  0.00    +0.077 C 
ENDBRANCH  27  29
BRANCH  23  31
ATOM     31  O   UNL     1      36.517 -21.771 -15.671  0.00  0.00    -0.468 OA
ATOM     32  C   UNL     1      37.739 -21.399 -16.304  0.00  0.00    +0.253 C 
ENDBRANCH  23  31
ENDBRANCH  21  22
ENDBRANCH  20  21
ENDBRANCH  19  20
ENDBRANCH  18  19
ENDBRANCH   1  18
TORSDOF 8
ENDMDL
MODEL 5
REMARK VINA RESULT:     -11.5      3.342      5.806
REMARK  Name = 71360
REMARK  8 active torsions:
REMARK  status: ('A' for Active; 'I' for Inactive)
REMARK    1  A    between atoms: N_1  and  C_18
REMARK    2  A    between atoms: C_2  and  C_11
REMARK    3  A    between atoms: C_18  and  C_19
REMARK    4  A    between atoms: C_19  and  C_20
REMARK    5  A    between atoms: C_20  and  O_21
REMARK    6  A    between atoms: O_21  and  C_22
REMARK    7  A    between atoms: C_23  and  O_31
REMARK    8  A    between atoms: C_27  and  C_29
REMARK                            x       y       z     vdW  Elec       q    Type
REMARK                         _______ _______ _______ _____ _____    ______ ____
ROOT
ATOM      1  N   UNL     1      33.958 -15.832 -23.213  0.00  0.00    +0.387 N 
ATOM      2  C   UNL     1      35.743 -17.670 -21.784  0.00  0.00    +0.039 C 
ATOM      3  C   UNL     1      35.157 -17.997 -23.166  0.00  0.00    -0.017 C 
ATOM      4  C   UNL     1      34.832 -16.670 -21.054  0.00  0.00    -0.017 C 
ATOM      5  C   UNL     1      34.858 -16.722 -23.959  0.00  0.00    -0.077 C 
ATOM      6  C   UNL     1      34.546 -15.443 -21.922  0.00  0.00    -0.077 C 
ATOM      7  H   UNL     1      33.096 -16.343 -23.024  0.00  0.00    -0.080 HD
ENDROOT
BRANCH   2  11
ATOM      8  F   UNL     1      33.490 -23.123 -18.557  0.00  0.00    -0.204 F 
ATOM      9  O   UNL     1      37.201 -20.375 -19.901  0.00  0.00    -0.354 OA
ATOM     10  N   UNL     1      37.285 -19.201 -20.640  0.00  0.00    -0.081 NA
ATOM     11  C   UNL     1      36.028 -18.908 -20.963  0.00  0.00    +0.100 A 
ATOM     12  C   UNL     1      35.102 -19.840 -20.471  0.00  0.00    +0.054 A 
ATOM     13  C   UNL     1      35.897 -20.754 -19.801  0.00  0.00    +0.179 A 
ATOM     14  C   UNL     1      33.713 -20.036 -20.497  0.00  0.00    +0.007 C 
ATOM     15  C   UNL     1      35.414 -21.878 -19.139  0.00  0.00    +0.070 C 
ATOM     16  C   UNL     1      33.190 -21.159 -19.839  0.00  0.00    +0.030 C 
ATOM     17  C   UNL     1      34.027 -22.062 -19.174  0.00  0.00    +0.143 C 
ENDBRANCH   2  11
BRANCH   1  18
ATOM     18  C   UNL     1      33.638 -14.645 -24.006  0.00  0.00    -0.074 C 
BRANCH  18  19
ATOM     19  C   UNL     1      34.540 -13.483 -23.607  0.00  0.00    +0.025 C 
BRANCH  19  20
ATOM     20  C   UNL     1      33.921 -12.142 -23.979  0.00  0.00    +0.203 C 
BRANCH  20  21
ATOM     21  O   UNL     1      33.125 -11.686 -22.895  0.00  0.00    -0.472 OA
BRANCH  21  22
ATOM     22  C   UNL     1      32.967 -10.331 -22.770  0.00  0.00    +0.172 C 
ATOM     23  C   UNL     1      31.872  -9.814 -22.085  0.00  0.00    +0.172 C 
ATOM     24  C   UNL     1      33.912  -9.483 -23.337  0.00  0.00    +0.040 C 
ATOM     25  C   UNL     1      31.722  -8.432 -21.965  0.00  0.00    +0.043 C 
ATOM     26  C   UNL     1      33.762  -8.101 -23.218  0.00  0.00    +0.006 C 
ATOM     27  C   UNL     1      32.667  -7.576 -22.532  0.00  0.00    +0.038 C 
BRANCH  27  29
ATOM     28  O   UNL     1      32.452  -5.581 -21.290  0.00  0.00    -0.291 OA
ATOM     29  C   UNL     1      32.510  -6.135 -22.407  0.00  0.00    +0.174 C 
ATOM     30  C   UNL     1      32.414  -5.261 -23.652  0.00  0.00    +0.077 C 
ENDBRANCH  27  29
BRANCH  23  31
ATOM     31  O   UNL     1      30.944 -10.639 -21.527  0.00  0.00    -0.468 OA
ATOM     32  C   UNL     1      31.107 -10.959 -20.147  0.00  0.00    +0.253 C 
ENDBRANCH  23  31
ENDBRANCH  21  22
ENDBRANCH  20  21
ENDBRANCH  19  20
ENDBRANCH  18  19
ENDBRANCH   1  18
TORSDOF 8
ENDMDL
MODEL 6
REMARK VINA RESULT:     -11.4      3.961     10.551
REMARK  Name = 71360
REMARK  8 active torsions:
REMARK  status: ('A' for Active; 'I' for Inactive)
REMARK    1  A    between atoms: N_1  and  C_18
REMARK    2  A    between atoms: C_2  and  C_11
REMARK    3  A    between atoms: C_18  and  C_19
REMARK    4  A    between atoms: C_19  and  C_20
REMARK    5  A    between atoms: C_20  and  O_21
REMARK    6  A    between atoms: O_21  and  C_22
REMARK    7  A    between atoms: C_23  and  O_31
REMARK    8  A    between atoms: C_27  and  C_29
REMARK                            x       y       z     vdW  Elec       q    Type
REMARK                         _______ _______ _______ _____ _____    ______ ____
ROOT
ATOM      1  N   UNL     1      35.705 -17.241 -22.597  0.00  0.00    +0.387 N 
ATOM      2  C   UNL     1      33.822 -14.991 -22.648  0.00  0.00    +0.039 C 
ATOM      3  C   UNL     1      34.575 -15.465 -23.901  0.00  0.00    -0.017 C 
ATOM      4  C   UNL     1      34.611 -15.379 -21.387  0.00  0.00    -0.017 C 
ATOM      5  C   UNL     1      34.925 -16.953 -23.809  0.00  0.00    -0.077 C 
ATOM      6  C   UNL     1      34.959 -16.870 -21.385  0.00  0.00    -0.077 C 
ATOM      7  H   UNL     1      36.555 -16.678 -22.628  0.00  0.00    -0.080 HD
ENDROOT
BRANCH   2  11
ATOM      8  F   UNL     1      31.017  -9.603 -19.763  0.00  0.00    -0.204 F 
ATOM      9  O   UNL     1      33.394 -11.512 -23.483  0.00  0.00    -0.354 OA
ATOM     10  N   UNL     1      33.848 -12.798 -23.750  0.00  0.00    -0.081 NA
ATOM     11  C   UNL     1      33.482 -13.518 -22.693  0.00  0.00    +0.100 A 
ATOM     12  C   UNL     1      32.801 -12.767 -21.725  0.00  0.00    +0.054 A 
ATOM     13  C   UNL     1      32.769 -11.496 -22.274  0.00  0.00    +0.179 A 
ATOM     14  C   UNL     1      32.209 -12.982 -20.471  0.00  0.00    +0.007 C 
ATOM     15  C   UNL     1      32.185 -10.392 -21.661  0.00  0.00    +0.070 C 
ATOM     16  C   UNL     1      31.610 -11.891 -19.825  0.00  0.00    +0.030 C 
ATOM     17  C   UNL     1      31.599 -10.621 -20.411  0.00  0.00    +0.143 C 
ENDBRANCH   2  11
BRANCH   1  18
ATOM     18  C   UNL     1      36.079 -18.655 -22.553  0.00  0.00    -0.074 C 
BRANCH  18  19
ATOM     19  C   UNL     1      36.249 -19.112 -21.109  0.00  0.00    +0.025 C 
BRANCH  19  20
ATOM     20  C   UNL     1      35.339 -20.289 -20.784  0.00  0.00    +0.203 C 
BRANCH  20  21
ATOM     21  O   UNL     1      36.015 -21.159 -19.887  0.00  0.00    -0.472 OA
BRANCH  21  22
ATOM     22  C   UNL     1      35.265 -21.722 -18.888  0.00  0.00    +0.172 C 
ATOM     23  C   UNL     1      35.871 -22.130 -17.704  0.00  0.00    +0.172 C 
ATOM     24  C   UNL     1      33.896 -21.879 -19.074  0.00  0.00    +0.040 C 
ATOM     25  C   UNL     1      35.097 -22.702 -16.694  0.00  0.00    +0.043 C 
ATOM     26  C   UNL     1      33.122 -22.451 -18.063  0.00  0.00    +0.006 C 
ATOM     27  C   UNL     1      33.723 -22.862 -16.874  0.00  0.00    +0.038 C 
BRANCH  27  29
ATOM     28  O   UNL     1      33.440 -24.025 -14.840  0.00  0.00    -0.291 OA
ATOM     29  C   UNL     1      32.916 -23.458 -15.820  0.00  0.00    +0.174 C 
ATOM     30  C   UNL     1      31.394 -23.399 -15.892  0.00  0.00    +0.077 C 
ENDBRANCH  27  29
BRANCH  23  31
ATOM     31  O   UNL     1      37.211 -21.978 -17.516  0.00  0.00    -0.468 OA
ATOM     32  C   UNL     1      37.632 -21.420 -16.273  0.00  0.00    +0.253 C 
ENDBRANCH  23  31
ENDBRANCH  21  22
ENDBRANCH  20  21
ENDBRANCH  19  20
ENDBRANCH  18  19
ENDBRANCH   1  18
TORSDOF 8
ENDMDL
MODEL 7
REMARK VINA RESULT:     -11.4      7.592     13.982
REMARK  Name = 71360
REMARK  8 active torsions:
REMARK  status: ('A' for Active; 'I' for Inactive)
REMARK    1  A    between atoms: N_1  and  C_18
REMARK    2  A    between atoms: C_2  and  C_11
REMARK    3  A    between atoms: C_18  and  C_19
REMARK    4  A    between atoms: C_19  and  C_20
REMARK    5  A    between atoms: C_20  and  O_21
REMARK    6  A    between atoms: O_21  and  C_22
REMARK    7  A    between atoms: C_23  and  O_31
REMARK    8  A    between atoms: C_27  and  C_29
REMARK                            x       y       z     vdW  Elec       q    Type
REMARK                         _______ _______ _______ _____ _____    ______ ____
ROOT
ATOM      1  N   UNL     1      31.574  -9.472 -20.488  0.00  0.00    +0.387 N 
ATOM      2  C   UNL     1      32.445  -7.279 -22.231  0.00  0.00    +0.039 C 
ATOM      3  C   UNL     1      32.221  -7.094 -20.722  0.00  0.00    -0.017 C 
ATOM      4  C   UNL     1      31.597  -8.454 -22.744  0.00  0.00    -0.017 C 
ATOM      5  C   UNL     1      32.439  -8.406 -19.963  0.00  0.00    -0.077 C 
ATOM      6  C   UNL     1      31.838  -9.717 -21.913  0.00  0.00    -0.077 C 
ATOM      7  H   UNL     1      30.605  -9.165 -20.396  0.00  0.00    -0.080 HD
ENDROOT
BRANCH   2  11
ATOM      8  F   UNL     1      34.257  -3.131 -27.206  0.00  0.00    -0.204 F 
ATOM      9  O   UNL     1      31.262  -4.155 -23.583  0.00  0.00    -0.354 OA
ATOM     10  N   UNL     1      31.197  -5.214 -22.687  0.00  0.00    -0.081 NA
ATOM     11  C   UNL     1      32.214  -6.006 -23.016  0.00  0.00    +0.100 A 
ATOM     12  C   UNL     1      32.960  -5.522 -24.100  0.00  0.00    +0.054 A 
ATOM     13  C   UNL     1      32.316  -4.340 -24.426  0.00  0.00    +0.179 A 
ATOM     14  C   UNL     1      34.083  -5.913 -24.844  0.00  0.00    +0.007 C 
ATOM     15  C   UNL     1      32.704  -3.495 -25.460  0.00  0.00    +0.070 C 
ATOM     16  C   UNL     1      34.503  -5.084 -25.895  0.00  0.00    +0.030 C 
ATOM     17  C   UNL     1      33.825  -3.897 -26.195  0.00  0.00    +0.143 C 
ENDBRANCH   2  11
BRANCH   1  18
ATOM     18  C   UNL     1      31.753 -10.702 -19.716  0.00  0.00    -0.074 C 
BRANCH  18  19
ATOM     19  C   UNL     1      31.381 -11.915 -20.561  0.00  0.00    +0.025 C 
BRANCH  19  20
ATOM     20  C   UNL     1      32.433 -13.011 -20.459  0.00  0.00    +0.203 C 
BRANCH  20  21
ATOM     21  O   UNL     1      33.014 -13.212 -21.740  0.00  0.00    -0.472 OA
BRANCH  21  22
ATOM     22  C   UNL     1      33.650 -14.408 -21.950  0.00  0.00    +0.172 C 
ATOM     23  C   UNL     1      33.870 -14.866 -23.245  0.00  0.00    +0.172 C 
ATOM     24  C   UNL     1      34.070 -15.154 -20.854  0.00  0.00    +0.040 C 
ATOM     25  C   UNL     1      34.519 -16.084 -23.446  0.00  0.00    +0.043 C 
ATOM     26  C   UNL     1      34.719 -16.373 -21.055  0.00  0.00    +0.006 C 
ATOM     27  C   UNL     1      34.942 -16.838 -22.351  0.00  0.00    +0.038 C 
BRANCH  27  29
ATOM     28  O   UNL     1      36.760 -18.321 -22.102  0.00  0.00    -0.291 OA
ATOM     29  C   UNL     1      35.619 -18.109 -22.561  0.00  0.00    +0.174 C 
ATOM     30  C   UNL     1      34.940 -19.219 -23.354  0.00  0.00    +0.077 C 
ENDBRANCH  27  29
BRANCH  23  31
ATOM     31  O   UNL     1      33.461 -14.139 -24.322  0.00  0.00    -0.468 OA
ATOM     32  C   UNL     1      33.365 -14.825 -25.568  0.00  0.00    +0.253 C 
ENDBRANCH  23  31
ENDBRANCH  21  22
ENDBRANCH  20  21
ENDBRANCH  19  20
ENDBRANCH  18  19
ENDBRANCH   1  18
TORSDOF 8
ENDMDL
MODEL 8
REMARK VINA RESULT:     -11.3      3.866     10.785
REMARK  Name = 71360
REMARK  8 active torsions:
REMARK  status: ('A' for Active; 'I' for Inactive)
REMARK    1  A    between atoms: N_1  and  C_18
REMARK    2  A    between atoms: C_2  and  C_11
REMARK    3  A    between atoms: C_18  and  C_19
REMARK    4  A    between atoms: C_19  and  C_20
REMARK    5  A    between atoms: C_20  and  O_21
REMARK    6  A    between atoms: O_21  and  C_22
REMARK    7  A    between atoms: C_23  and  O_31
REMARK    8  A    between atoms: C_27  and  C_29
REMARK                            x       y       z     vdW  Elec       q    Type
REMARK                         _______ _______ _______ _____ _____    ______ ____
ROOT
ATOM      1  N   UNL     1      35.982 -19.890 -20.233  0.00  0.00    +0.387 N 
ATOM      2  C   UNL     1      35.557 -18.549 -22.807  0.00  0.00    +0.039 C 
ATOM      3  C   UNL     1      36.663 -18.125 -21.829  0.00  0.00    -0.017 C 
ATOM      4  C   UNL     1      34.419 -19.243 -22.040  0.00  0.00    -0.017 C 
ATOM      5  C   UNL     1      37.116 -19.300 -20.958  0.00  0.00    -0.077 C 
ATOM      6  C   UNL     1      34.953 -20.378 -21.163  0.00  0.00    -0.077 C 
ATOM      7  H   UNL     1      35.564 -19.161 -19.655  0.00  0.00    -0.080 HD
ENDROOT
BRANCH   2  11
ATOM      8  F   UNL     1      33.382 -12.206 -23.318  0.00  0.00    -0.204 F 
ATOM      9  O   UNL     1      34.498 -16.362 -25.468  0.00  0.00    -0.354 OA
ATOM     10  N   UNL     1      34.963 -17.577 -24.982  0.00  0.00    -0.081 NA
ATOM     11  C   UNL     1      35.068 -17.405 -23.667  0.00  0.00    +0.100 A 
ATOM     12  C   UNL     1      34.693 -16.120 -23.250  0.00  0.00    +0.054 A 
ATOM     13  C   UNL     1      34.337 -15.493 -24.431  0.00  0.00    +0.179 A 
ATOM     14  C   UNL     1      34.603 -15.405 -22.046  0.00  0.00    +0.007 C 
ATOM     15  C   UNL     1      33.890 -14.179 -24.518  0.00  0.00    +0.070 C 
ATOM     16  C   UNL     1      34.156 -14.077 -22.096  0.00  0.00    +0.030 C 
ATOM     17  C   UNL     1      33.806 -13.477 -23.310  0.00  0.00    +0.143 C 
ENDBRANCH   2  11
BRANCH   1  18
ATOM     18  C   UNL     1      36.439 -20.975 -19.363  0.00  0.00    -0.074 C 
BRANCH  18  19
ATOM     19  C   UNL     1      35.455 -22.138 -19.406  0.00  0.00    +0.025 C 
BRANCH  19  20
ATOM     20  C   UNL     1      34.390 -22.009 -18.325  0.00  0.00    +0.203 C 
BRANCH  20  21
ATOM     21  O   UNL     1      34.828 -22.698 -17.163  0.00  0.00    -0.472 OA
BRANCH  21  22
ATOM     22  C   UNL     1      33.857 -23.162 -16.315  0.00  0.00    +0.172 C 
ATOM     23  C   UNL     1      34.200 -23.662 -15.063  0.00  0.00    +0.172 C 
ATOM     24  C   UNL     1      32.528 -23.127 -16.723  0.00  0.00    +0.040 C 
ATOM     25  C   UNL     1      33.202 -24.131 -14.209  0.00  0.00    +0.043 C 
ATOM     26  C   UNL     1      31.530 -23.597 -15.869  0.00  0.00    +0.006 C 
ATOM     27  C   UNL     1      31.867 -24.100 -14.613  0.00  0.00    +0.038 C 
BRANCH  27  29
ATOM     28  O   UNL     1      30.977 -24.591 -12.484  0.00  0.00    -0.291 OA
ATOM     29  C   UNL     1      30.826 -24.589 -13.722  0.00  0.00    +0.174 C 
ATOM     30  C   UNL     1      29.513 -25.115 -14.291  0.00  0.00    +0.077 C 
ENDBRANCH  27  29
BRANCH  23  31
ATOM     31  O   UNL     1      35.500 -23.697 -14.658  0.00  0.00    -0.468 OA
ATOM     32  C   UNL     1      35.739 -23.746 -13.253  0.00  0.00    +0.253 C 
ENDBRANCH  23  31
ENDBRANCH  21  22
ENDBRANCH  20  21
ENDBRANCH  19  20
ENDBRANCH  18  19
ENDBRANCH   1  18
TORSDOF 8
ENDMDL
MODEL 9
REMARK VINA RESULT:     -11.2      3.964     10.880
REMARK  Name = 71360
REMARK  8 active torsions:
REMARK  status: ('A' for Active; 'I' for Inactive)
REMARK    1  A    between atoms: N_1  and  C_18
REMARK    2  A    between atoms: C_2  and  C_11
REMARK    3  A    between atoms: C_18  and  C_19
REMARK    4  A    between atoms: C_19  and  C_20
REMARK    5  A    between atoms: C_20  and  O_21
REMARK    6  A    between atoms: O_21  and  C_22
REMARK    7  A    between atoms: C_23  and  O_31
REMARK    8  A    between atoms: C_27  and  C_29
REMARK                            x       y       z     vdW  Elec       q    Type
REMARK                         _______ _______ _______ _____ _____    ______ ____
ROOT
ATOM      1  N   UNL     1      35.697 -17.612 -22.297  0.00  0.00    +0.387 N 
ATOM      2  C   UNL     1      33.949 -15.279 -22.631  0.00  0.00    +0.039 C 
ATOM      3  C   UNL     1      34.734 -15.896 -23.799  0.00  0.00    -0.017 C 
ATOM      4  C   UNL     1      34.653 -15.600 -21.303  0.00  0.00    -0.017 C 
ATOM      5  C   UNL     1      34.995 -17.387 -23.568  0.00  0.00    -0.077 C 
ATOM      6  C   UNL     1      34.915 -17.101 -21.161  0.00  0.00    -0.077 C 
ATOM      7  H   UNL     1      36.578 -17.099 -22.329  0.00  0.00    -0.080 HD
ENDROOT
BRANCH   2  11
ATOM      8  F   UNL     1      31.128  -9.573 -20.461  0.00  0.00    -0.204 F 
ATOM      9  O   UNL     1      33.806 -11.854 -23.742  0.00  0.00    -0.354 OA
ATOM     10  N   UNL     1      34.217 -13.175 -23.868  0.00  0.00    -0.081 NA
ATOM     11  C   UNL     1      33.696 -13.799 -22.815  0.00  0.00    +0.100 A 
ATOM     12  C   UNL     1      32.951 -12.949 -21.985  0.00  0.00    +0.054 A 
ATOM     13  C   UNL     1      33.049 -11.722 -22.618  0.00  0.00    +0.179 A 
ATOM     14  C   UNL     1      32.211 -13.046 -20.797  0.00  0.00    +0.007 C 
ATOM     15  C   UNL     1      32.459 -10.551 -22.153  0.00  0.00    +0.070 C 
ATOM     16  C   UNL     1      31.602 -11.884 -20.300  0.00  0.00    +0.030 C 
ATOM     17  C   UNL     1      31.725 -10.661 -20.967  0.00  0.00    +0.143 C 
ENDBRANCH   2  11
BRANCH   1  18
ATOM     18  C   UNL     1      35.988 -19.035 -22.118  0.00  0.00    -0.074 C 
BRANCH  18  19
ATOM     19  C   UNL     1      35.190 -19.594 -20.946  0.00  0.00    +0.025 C 
BRANCH  19  20
ATOM     20  C   UNL     1      35.907 -20.767 -20.291  0.00  0.00    +0.203 C 
BRANCH  20  21
ATOM     21  O   UNL     1      34.987 -21.463 -19.462  0.00  0.00    -0.472 OA
BRANCH  21  22
ATOM     22  C   UNL     1      35.459 -21.916 -18.258  0.00  0.00    +0.172 C 
ATOM     23  C   UNL     1      34.613 -22.589 -17.383  0.00  0.00    +0.172 C 
ATOM     24  C   UNL     1      36.791 -21.693 -17.924  0.00  0.00    +0.040 C 
ATOM     25  C   UNL     1      35.105 -23.045 -16.159  0.00  0.00    +0.043 C 
ATOM     26  C   UNL     1      37.283 -22.150 -16.701  0.00  0.00    +0.006 C 
ATOM     27  C   UNL     1      36.440 -22.825 -15.819  0.00  0.00    +0.038 C 
BRANCH  27  29
ATOM     28  O   UNL     1      38.164 -23.556 -14.384  0.00  0.00    -0.291 OA
ATOM     29  C   UNL     1      36.954 -23.301 -14.543  0.00  0.00    +0.174 C 
ATOM     30  C   UNL     1      36.011 -23.501 -13.362  0.00  0.00    +0.077 C 
ENDBRANCH  27  29
BRANCH  23  31
ATOM     31  O   UNL     1      33.308 -22.811 -17.704  0.00  0.00    -0.468 OA
ATOM     32  C   UNL     1      32.404 -23.036 -16.625  0.00  0.00    +0.253 C 
ENDBRANCH  23  31
ENDBRANCH  21  22
ENDBRANCH  20  21
ENDBRANCH  19  20
ENDBRANCH  18  19
ENDBRANCH   1  18
TORSDOF 8
ENDMDL
