MODEL 1
REMARK VINA RESULT:     -12.7      0.000      0.000
REMARK  Name = 448407
REMARK  4 active torsions:
REMARK  status: ('A' for Active; 'I' for Inactive)
REMARK    1  A    between atoms: C_1  and  N_8
REMARK    2  A    between atoms: C_2  and  C_23
REMARK    3  A    between atoms: N_22  and  C_25
REMARK    4  A    between atoms: C_25  and  C_28
REMARK                            x       y       z     vdW  Elec       q    Type
REMARK                         _______ _______ _______ _____ _____    ______ ____
ROOT
ATOM      1  C   UNL     1      35.755 -18.341 -21.551  0.00  0.00    +0.090 C 
ATOM      2  C   UNL     1      34.926 -20.239 -20.270  0.00  0.00    +0.055 C 
ATOM      3  C   UNL     1      34.687 -19.109 -21.053  0.00  0.00    +0.023 C 
ATOM      4  C   UNL     1      37.068 -18.738 -21.242  0.00  0.00    +0.018 C 
ATOM      5  C   UNL     1      36.235 -20.618 -19.974  0.00  0.00    +0.005 C 
ATOM      6  C   UNL     1      37.306 -19.867 -20.460  0.00  0.00    +0.002 C 
ENDROOT
BRANCH   1   8
ATOM      7  O   UNL     1      33.327 -13.748 -21.610  0.00  0.00    -0.207 OA
ATOM      8  N   UNL     1      35.517 -17.216 -22.332  0.00  0.00    -0.137 N 
ATOM      9  N   UNL     1      35.333 -17.234 -23.679  0.00  0.00    -0.215 N 
ATOM     10  N   UNL     1      34.880 -16.125 -21.745  0.00  0.00    -0.143 NA
ATOM     11  N   UNL     1      34.084 -15.655 -25.091  0.00  0.00    -0.309 NA
ATOM     12  N   UNL     1      33.045 -13.825 -23.910  0.00  0.00    -0.251 NA
ATOM     13  N   UNL     1      32.829 -14.001 -26.205  0.00  0.00    -0.283 N 
ATOM     14  C   UNL     1      34.575 -16.163 -24.022  0.00  0.00    +0.243 C 
ATOM     15  C   UNL     1      34.323 -15.498 -22.734  0.00  0.00    +0.241 C 
ATOM     16  C   UNL     1      33.516 -14.271 -22.698  0.00  0.00    +0.239 C 
ATOM     17  C   UNL     1      33.322 -14.487 -25.015  0.00  0.00    +0.208 C 
ATOM     18  H   UNL     1      35.689 -17.909 -24.300  0.00  0.00    +0.175 HD
ATOM     19  H   UNL     1      33.019 -14.475 -27.048  0.00  0.00    +0.156 HD
ATOM     20  H   UNL     1      32.285 -13.181 -26.215  0.00  0.00    +0.156 HD
ENDBRANCH   1   8
BRANCH   2  23
ATOM     21  O   UNL     1      32.673 -20.887 -20.250  0.00  0.00    -0.270 OA
ATOM     22  N   UNL     1      34.087 -21.935 -18.740  0.00  0.00    -0.297 N 
ATOM     23  C   UNL     1      33.810 -21.022 -19.765  0.00  0.00    +0.246 C 
ATOM     24  H   UNL     1      35.010 -21.989 -18.402  0.00  0.00    +0.150 HD
BRANCH  22  25
ATOM     25  C   UNL     1      33.091 -22.799 -18.150  0.00  0.00    +0.117 C 
BRANCH  25  28
ATOM     26 CL   UNL     1      36.593 -23.414 -14.356  0.00  0.00    -0.082 Cl
ATOM     27 CL   UNL     1      31.306 -23.889 -13.389  0.00  0.00    -0.082 Cl
ATOM     28  C   UNL     1      33.381 -23.087 -16.705  0.00  0.00    -0.001 C 
ATOM     29  C   UNL     1      32.330 -23.325 -15.827  0.00  0.00    +0.009 C 
ATOM     30  C   UNL     1      34.697 -23.113 -16.260  0.00  0.00    +0.009 C 
ATOM     31  C   UNL     1      34.967 -23.380 -14.918  0.00  0.00    +0.058 C 
ATOM     32  C   UNL     1      32.599 -23.593 -14.485  0.00  0.00    +0.058 C 
ATOM     33  C   UNL     1      33.918 -23.620 -14.030  0.00  0.00    +0.023 C 
ENDBRANCH  25  28
ENDBRANCH  22  25
ENDBRANCH   2  23
TORSDOF 4
ENDMDL
MODEL 2
REMARK VINA RESULT:     -12.6      4.723     10.465
REMARK  Name = 448407
REMARK  4 active torsions:
REMARK  status: ('A' for Active; 'I' for Inactive)
REMARK    1  A    between atoms: C_1  and  N_8
REMARK    2  A    between atoms: C_2  and  C_23
REMARK    3  A    between atoms: N_22  and  C_25
REMARK    4  A    between atoms: C_25  and  C_28
REMARK                            x       y       z     vdW  Elec       q    Type
REMARK                         _______ _______ _______ _____ _____    ______ ____
ROOT
ATOM      1  C   UNL     1      34.845 -22.407 -17.772  0.00  0.00    +0.090 C 
ATOM      2  C   UNL     1      35.048 -20.892 -19.668  0.00  0.00    +0.055 C 
ATOM      3  C   UNL     1      35.628 -21.594 -18.610  0.00  0.00    +0.023 C 
ATOM      4  C   UNL     1      33.465 -22.498 -18.025  0.00  0.00    +0.018 C 
ATOM      5  C   UNL     1      33.678 -20.994 -19.904  0.00  0.00    +0.005 C 
ATOM      6  C   UNL     1      32.886 -21.797 -19.082  0.00  0.00    +0.002 C 
ENDROOT
BRANCH   1   8
ATOM      7  O   UNL     1      33.878 -24.417 -13.080  0.00  0.00    -0.207 OA
ATOM      8  N   UNL     1      35.422 -23.106 -16.719  0.00  0.00    -0.137 N 
ATOM      9  N   UNL     1      36.702 -22.943 -16.291  0.00  0.00    -0.215 N 
ATOM     10  N   UNL     1      34.596 -23.561 -15.694  0.00  0.00    -0.143 NA
ATOM     11  N   UNL     1      37.647 -23.337 -14.055  0.00  0.00    -0.309 NA
ATOM     12  N   UNL     1      36.075 -24.123 -12.401  0.00  0.00    -0.251 NA
ATOM     13  N   UNL     1      38.292 -23.792 -11.835  0.00  0.00    -0.283 N 
ATOM     14  C   UNL     1      36.761 -23.281 -14.979  0.00  0.00    +0.243 C 
ATOM     15  C   UNL     1      35.377 -23.668 -14.664  0.00  0.00    +0.241 C 
ATOM     16  C   UNL     1      35.038 -24.106 -13.304  0.00  0.00    +0.239 C 
ATOM     17  C   UNL     1      37.286 -23.759 -12.773  0.00  0.00    +0.208 C 
ATOM     18  H   UNL     1      37.457 -22.631 -16.839  0.00  0.00    +0.175 HD
ATOM     19  H   UNL     1      39.207 -23.525 -12.084  0.00  0.00    +0.156 HD
ATOM     20  H   UNL     1      38.098 -24.081 -10.914  0.00  0.00    +0.156 HD
ENDBRANCH   1   8
BRANCH   2  23
ATOM     21  O   UNL     1      37.059 -19.825 -20.229  0.00  0.00    -0.270 OA
ATOM     22  N   UNL     1      35.278 -19.559 -21.691  0.00  0.00    -0.297 N 
ATOM     23  C   UNL     1      35.874 -20.057 -20.526  0.00  0.00    +0.246 C 
ATOM     24  H   UNL     1      34.335 -19.781 -21.863  0.00  0.00    +0.150 HD
BRANCH  22  25
ATOM     25  C   UNL     1      35.974 -18.735 -22.653  0.00  0.00    +0.117 C 
BRANCH  25  28
ATOM     26 CL   UNL     1      34.185 -14.334 -20.538  0.00  0.00    -0.082 Cl
ATOM     27 CL   UNL     1      33.826 -15.238 -25.846  0.00  0.00    -0.082 Cl
ATOM     28  C   UNL     1      35.309 -17.401 -22.835  0.00  0.00    -0.001 C 
ATOM     29  C   UNL     1      34.924 -16.992 -24.107  0.00  0.00    +0.009 C 
ATOM     30  C   UNL     1      35.084 -16.588 -21.730  0.00  0.00    +0.009 C 
ATOM     31  C   UNL     1      34.467 -15.349 -21.899  0.00  0.00    +0.058 C 
ATOM     32  C   UNL     1      34.307 -15.754 -24.277  0.00  0.00    +0.058 C 
ATOM     33  C   UNL     1      34.078 -14.931 -23.173  0.00  0.00    +0.023 C 
ENDBRANCH  25  28
ENDBRANCH  22  25
ENDBRANCH   2  23
TORSDOF 4
ENDMDL
MODEL 3
REMARK VINA RESULT:     -12.6      4.726     10.457
REMARK  Name = 448407
REMARK  4 active torsions:
REMARK  status: ('A' for Active; 'I' for Inactive)
REMARK    1  A    between atoms: C_1  and  N_8
REMARK    2  A    between atoms: C_2  and  C_23
REMARK    3  A    between atoms: N_22  and  C_25
REMARK    4  A    between atoms: C_25  and  C_28
REMARK                            x       y       z     vdW  Elec       q    Type
REMARK                         _______ _______ _______ _____ _____    ______ ____
ROOT
ATOM      1  C   UNL     1      34.842 -22.384 -17.786  0.00  0.00    +0.090 C 
ATOM      2  C   UNL     1      35.037 -20.870 -19.682  0.00  0.00    +0.055 C 
ATOM      3  C   UNL     1      35.624 -21.583 -18.637  0.00  0.00    +0.023 C 
ATOM      4  C   UNL     1      33.457 -22.452 -18.015  0.00  0.00    +0.018 C 
ATOM      5  C   UNL     1      33.662 -20.949 -19.895  0.00  0.00    +0.005 C 
ATOM      6  C   UNL     1      32.871 -21.741 -19.061  0.00  0.00    +0.002 C 
ENDROOT
BRANCH   1   8
ATOM      7  O   UNL     1      33.903 -24.458 -13.116  0.00  0.00    -0.207 OA
ATOM      8  N   UNL     1      35.427 -23.095 -16.744  0.00  0.00    -0.137 N 
ATOM      9  N   UNL     1      36.708 -22.933 -16.319  0.00  0.00    -0.215 N 
ATOM     10  N   UNL     1      34.607 -23.566 -15.722  0.00  0.00    -0.143 NA
ATOM     11  N   UNL     1      37.664 -23.352 -14.092  0.00  0.00    -0.309 NA
ATOM     12  N   UNL     1      36.101 -24.164 -12.442  0.00  0.00    -0.251 NA
ATOM     13  N   UNL     1      38.320 -23.833 -11.881  0.00  0.00    -0.283 N 
ATOM     14  C   UNL     1      36.774 -23.287 -15.012  0.00  0.00    +0.243 C 
ATOM     15  C   UNL     1      35.392 -23.683 -14.696  0.00  0.00    +0.241 C 
ATOM     16  C   UNL     1      35.061 -24.140 -13.340  0.00  0.00    +0.239 C 
ATOM     17  C   UNL     1      37.310 -23.791 -12.815  0.00  0.00    +0.208 C 
ATOM     18  H   UNL     1      37.460 -22.611 -16.867  0.00  0.00    +0.175 HD
ATOM     19  H   UNL     1      39.233 -23.560 -12.131  0.00  0.00    +0.156 HD
ATOM     20  H   UNL     1      38.130 -24.134 -10.964  0.00  0.00    +0.156 HD
ENDBRANCH   1   8
BRANCH   2  23
ATOM     21  O   UNL     1      37.056 -19.837 -20.279  0.00  0.00    -0.270 OA
ATOM     22  N   UNL     1      35.253 -19.535 -21.706  0.00  0.00    -0.297 N 
ATOM     23  C   UNL     1      35.861 -20.047 -20.554  0.00  0.00    +0.246 C 
ATOM     24  H   UNL     1      34.303 -19.741 -21.861  0.00  0.00    +0.150 HD
BRANCH  22  25
ATOM     25  C   UNL     1      35.944 -18.721 -22.679  0.00  0.00    +0.117 C 
BRANCH  25  28
ATOM     26 CL   UNL     1      33.835 -15.212 -25.886  0.00  0.00    -0.082 Cl
ATOM     27 CL   UNL     1      34.146 -14.320 -20.573  0.00  0.00    -0.082 Cl
ATOM     28  C   UNL     1      35.284 -17.385 -22.864  0.00  0.00    -0.001 C 
ATOM     29  C   UNL     1      35.051 -16.573 -21.760  0.00  0.00    +0.009 C 
ATOM     30  C   UNL     1      34.913 -16.973 -24.139  0.00  0.00    +0.009 C 
ATOM     31  C   UNL     1      34.300 -15.732 -24.312  0.00  0.00    +0.058 C 
ATOM     32  C   UNL     1      34.438 -15.332 -21.932  0.00  0.00    +0.058 C 
ATOM     33  C   UNL     1      34.062 -14.911 -23.209  0.00  0.00    +0.023 C 
ENDBRANCH  25  28
ENDBRANCH  22  25
ENDBRANCH   2  23
TORSDOF 4
ENDMDL
MODEL 4
REMARK VINA RESULT:     -12.3      4.189      9.711
REMARK  Name = 448407
REMARK  4 active torsions:
REMARK  status: ('A' for Active; 'I' for Inactive)
REMARK    1  A    between atoms: C_1  and  N_8
REMARK    2  A    between atoms: C_2  and  C_23
REMARK    3  A    between atoms: N_22  and  C_25
REMARK    4  A    between atoms: C_25  and  C_28
REMARK                            x       y       z     vdW  Elec       q    Type
REMARK                         _______ _______ _______ _____ _____    ______ ____
ROOT
ATOM      1  C   UNL     1      34.594 -22.204 -18.118  0.00  0.00    +0.090 C 
ATOM      2  C   UNL     1      35.221 -20.812 -20.014  0.00  0.00    +0.055 C 
ATOM      3  C   UNL     1      34.267 -21.559 -19.323  0.00  0.00    +0.023 C 
ATOM      4  C   UNL     1      35.904 -22.077 -17.624  0.00  0.00    +0.018 C 
ATOM      5  C   UNL     1      36.516 -20.697 -19.510  0.00  0.00    +0.005 C 
ATOM      6  C   UNL     1      36.857 -21.330 -18.314  0.00  0.00    +0.002 C 
ENDROOT
BRANCH   1   8
ATOM      7  O   UNL     1      29.579 -22.324 -16.765  0.00  0.00    -0.207 OA
ATOM      8  N   UNL     1      33.643 -22.948 -17.428  0.00  0.00    -0.137 N 
ATOM      9  N   UNL     1      33.881 -23.633 -16.279  0.00  0.00    -0.215 N 
ATOM     10  N   UNL     1      32.307 -22.569 -17.528  0.00  0.00    -0.143 NA
ATOM     11  N   UNL     1      32.312 -24.233 -14.482  0.00  0.00    -0.309 NA
ATOM     12  N   UNL     1      30.038 -23.498 -14.819  0.00  0.00    -0.251 NA
ATOM     13  N   UNL     1      30.611 -24.677 -12.914  0.00  0.00    -0.283 N 
ATOM     14  C   UNL     1      32.718 -23.727 -15.588  0.00  0.00    +0.243 C 
ATOM     15  C   UNL     1      31.753 -23.025 -16.448  0.00  0.00    +0.241 C 
ATOM     16  C   UNL     1      30.351 -22.916 -16.025  0.00  0.00    +0.239 C 
ATOM     17  C   UNL     1      30.971 -24.108 -14.114  0.00  0.00    +0.208 C 
ATOM     18  H   UNL     1      34.750 -23.997 -15.995  0.00  0.00    +0.175 HD
ATOM     19  H   UNL     1      31.286 -25.139 -12.365  0.00  0.00    +0.156 HD
ATOM     20  H   UNL     1      29.679 -24.621 -12.602  0.00  0.00    +0.156 HD
ENDBRANCH   1   8
BRANCH   2  23
ATOM     21  O   UNL     1      33.686 -20.147 -21.657  0.00  0.00    -0.270 OA
ATOM     22  N   UNL     1      35.896 -19.512 -21.958  0.00  0.00    -0.297 N 
ATOM     23  C   UNL     1      34.865 -20.150 -21.259  0.00  0.00    +0.246 C 
ATOM     24  H   UNL     1      36.806 -19.556 -21.586  0.00  0.00    +0.150 HD
BRANCH  22  25
ATOM     25  C   UNL     1      35.697 -18.795 -23.196  0.00  0.00    +0.117 C 
BRANCH  25  28
ATOM     26 CL   UNL     1      33.577 -14.475 -25.168  0.00  0.00    -0.082 Cl
ATOM     27 CL   UNL     1      34.415 -15.013 -19.864  0.00  0.00    -0.082 Cl
ATOM     28  C   UNL     1      35.123 -17.426 -22.966  0.00  0.00    -0.001 C 
ATOM     29  C   UNL     1      35.046 -16.920 -21.673  0.00  0.00    +0.009 C 
ATOM     30  C   UNL     1      34.673 -16.679 -24.048  0.00  0.00    +0.009 C 
ATOM     31  C   UNL     1      34.138 -15.408 -23.835  0.00  0.00    +0.058 C 
ATOM     32  C   UNL     1      34.513 -15.650 -21.460  0.00  0.00    +0.058 C 
ATOM     33  C   UNL     1      34.058 -14.893 -22.541  0.00  0.00    +0.023 C 
ENDBRANCH  25  28
ENDBRANCH  22  25
ENDBRANCH   2  23
TORSDOF 4
ENDMDL
MODEL 5
REMARK VINA RESULT:     -12.3      4.193      9.720
REMARK  Name = 448407
REMARK  4 active torsions:
REMARK  status: ('A' for Active; 'I' for Inactive)
REMARK    1  A    between atoms: C_1  and  N_8
REMARK    2  A    between atoms: C_2  and  C_23
REMARK    3  A    between atoms: N_22  and  C_25
REMARK    4  A    between atoms: C_25  and  C_28
REMARK                            x       y       z     vdW  Elec       q    Type
REMARK                         _______ _______ _______ _____ _____    ______ ____
ROOT
ATOM      1  C   UNL     1      34.537 -22.245 -18.089  0.00  0.00    +0.090 C 
ATOM      2  C   UNL     1      35.169 -20.849 -19.981  0.00  0.00    +0.055 C 
ATOM      3  C   UNL     1      34.210 -21.590 -19.289  0.00  0.00    +0.023 C 
ATOM      4  C   UNL     1      35.851 -22.135 -17.601  0.00  0.00    +0.018 C 
ATOM      5  C   UNL     1      36.467 -20.751 -19.483  0.00  0.00    +0.005 C 
ATOM      6  C   UNL     1      36.809 -21.394 -18.293  0.00  0.00    +0.002 C 
ENDROOT
BRANCH   1   8
ATOM      7  O   UNL     1      29.517 -22.347 -16.755  0.00  0.00    -0.207 OA
ATOM      8  N   UNL     1      33.582 -22.983 -17.399  0.00  0.00    -0.137 N 
ATOM      9  N   UNL     1      33.815 -23.661 -16.244  0.00  0.00    -0.215 N 
ATOM     10  N   UNL     1      32.247 -22.602 -17.506  0.00  0.00    -0.143 NA
ATOM     11  N   UNL     1      32.237 -24.247 -14.450  0.00  0.00    -0.309 NA
ATOM     12  N   UNL     1      29.966 -23.510 -14.801  0.00  0.00    -0.251 NA
ATOM     13  N   UNL     1      30.529 -24.678 -12.885  0.00  0.00    -0.283 N 
ATOM     14  C   UNL     1      32.648 -23.749 -15.557  0.00  0.00    +0.243 C 
ATOM     15  C   UNL     1      31.688 -23.050 -16.425  0.00  0.00    +0.241 C 
ATOM     16  C   UNL     1      30.285 -22.936 -16.008  0.00  0.00    +0.239 C 
ATOM     17  C   UNL     1      30.894 -24.117 -14.088  0.00  0.00    +0.208 C 
ATOM     18  H   UNL     1      34.682 -24.026 -15.954  0.00  0.00    +0.175 HD
ATOM     19  H   UNL     1      31.201 -25.138 -12.331  0.00  0.00    +0.156 HD
ATOM     20  H   UNL     1      29.596 -24.618 -12.578  0.00  0.00    +0.156 HD
ENDBRANCH   1   8
BRANCH   2  23
ATOM     21  O   UNL     1      33.629 -20.140 -21.601  0.00  0.00    -0.270 OA
ATOM     22  N   UNL     1      35.852 -19.565 -21.932  0.00  0.00    -0.297 N 
ATOM     23  C   UNL     1      34.813 -20.176 -21.220  0.00  0.00    +0.246 C 
ATOM     24  H   UNL     1      36.765 -19.634 -21.573  0.00  0.00    +0.150 HD
BRANCH  22  25
ATOM     25  C   UNL     1      35.654 -18.841 -23.167  0.00  0.00    +0.117 C 
BRANCH  25  28
ATOM     26 CL   UNL     1      34.448 -15.056 -19.811  0.00  0.00    -0.082 Cl
ATOM     27 CL   UNL     1      33.606 -14.474 -25.109  0.00  0.00    -0.082 Cl
ATOM     28  C   UNL     1      35.104 -17.464 -22.928  0.00  0.00    -0.001 C 
ATOM     29  C   UNL     1      34.665 -16.703 -24.005  0.00  0.00    +0.009 C 
ATOM     30  C   UNL     1      35.041 -16.964 -21.633  0.00  0.00    +0.009 C 
ATOM     31  C   UNL     1      34.530 -15.685 -21.411  0.00  0.00    +0.058 C 
ATOM     32  C   UNL     1      34.154 -15.424 -23.784  0.00  0.00    +0.058 C 
ATOM     33  C   UNL     1      34.087 -14.914 -22.486  0.00  0.00    +0.023 C 
ENDBRANCH  25  28
ENDBRANCH  22  25
ENDBRANCH   2  23
TORSDOF 4
ENDMDL
MODEL 6
REMARK VINA RESULT:     -12.3      4.837     10.589
REMARK  Name = 448407
REMARK  4 active torsions:
REMARK  status: ('A' for Active; 'I' for Inactive)
REMARK    1  A    between atoms: C_1  and  N_8
REMARK    2  A    between atoms: C_2  and  C_23
REMARK    3  A    between atoms: N_22  and  C_25
REMARK    4  A    between atoms: C_25  and  C_28
REMARK                            x       y       z     vdW  Elec       q    Type
REMARK                         _______ _______ _______ _____ _____    ______ ____
ROOT
ATOM      1  C   UNL     1      34.916 -22.335 -17.542  0.00  0.00    +0.090 C 
ATOM      2  C   UNL     1      35.173 -20.999 -19.561  0.00  0.00    +0.055 C 
ATOM      3  C   UNL     1      35.696 -21.512 -18.374  0.00  0.00    +0.023 C 
ATOM      4  C   UNL     1      33.599 -22.630 -17.935  0.00  0.00    +0.018 C 
ATOM      5  C   UNL     1      33.865 -21.301 -19.936  0.00  0.00    +0.005 C 
ATOM      6  C   UNL     1      33.077 -22.117 -19.122  0.00  0.00    +0.002 C 
ENDROOT
BRANCH   1   8
ATOM      7  O   UNL     1      39.338 -23.716 -15.192  0.00  0.00    -0.207 OA
ATOM      8  N   UNL     1      35.436 -22.847 -16.360  0.00  0.00    -0.137 N 
ATOM      9  N   UNL     1      34.835 -23.799 -15.598  0.00  0.00    -0.215 N 
ATOM     10  N   UNL     1      36.819 -22.865 -16.198  0.00  0.00    -0.143 NA
ATOM     11  N   UNL     1      35.857 -25.433 -14.070  0.00  0.00    -0.309 NA
ATOM     12  N   UNL     1      38.263 -25.321 -13.911  0.00  0.00    -0.251 NA
ATOM     13  N   UNL     1      37.085 -26.884 -12.678  0.00  0.00    -0.283 N 
ATOM     14  C   UNL     1      35.795 -24.470 -14.913  0.00  0.00    +0.243 C 
ATOM     15  C   UNL     1      37.040 -23.818 -15.346  0.00  0.00    +0.241 C 
ATOM     16  C   UNL     1      38.325 -24.281 -14.807  0.00  0.00    +0.239 C 
ATOM     17  C   UNL     1      37.099 -25.845 -13.580  0.00  0.00    +0.208 C 
ATOM     18  H   UNL     1      33.867 -23.972 -15.551  0.00  0.00    +0.175 HD
ATOM     19  H   UNL     1      36.231 -27.295 -12.413  0.00  0.00    +0.156 HD
ATOM     20  H   UNL     1      37.930 -27.217 -12.299  0.00  0.00    +0.156 HD
ENDBRANCH   1   8
BRANCH   2  23
ATOM     21  O   UNL     1      37.194 -19.961 -20.141  0.00  0.00    -0.270 OA
ATOM     22  N   UNL     1      35.378 -19.590 -21.535  0.00  0.00    -0.297 N 
ATOM     23  C   UNL     1      35.994 -20.150 -20.410  0.00  0.00    +0.246 C 
ATOM     24  H   UNL     1      34.425 -19.782 -21.687  0.00  0.00    +0.150 HD
BRANCH  22  25
ATOM     25  C   UNL     1      36.066 -18.746 -22.485  0.00  0.00    +0.117 C 
BRANCH  25  28
ATOM     26 CL   UNL     1      33.878 -15.339 -25.748  0.00  0.00    -0.082 Cl
ATOM     27 CL   UNL     1      34.060 -14.408 -20.435  0.00  0.00    -0.082 Cl
ATOM     28  C   UNL     1      35.358 -17.437 -22.689  0.00  0.00    -0.001 C 
ATOM     29  C   UNL     1      35.073 -16.630 -21.594  0.00  0.00    +0.009 C 
ATOM     30  C   UNL     1      34.993 -17.047 -23.973  0.00  0.00    +0.009 C 
ATOM     31  C   UNL     1      34.335 -15.832 -24.163  0.00  0.00    +0.058 C 
ATOM     32  C   UNL     1      34.416 -15.415 -21.784  0.00  0.00    +0.058 C 
ATOM     33  C   UNL     1      34.046 -15.015 -23.069  0.00  0.00    +0.023 C 
ENDBRANCH  25  28
ENDBRANCH  22  25
ENDBRANCH   2  23
TORSDOF 4
ENDMDL
MODEL 7
REMARK VINA RESULT:     -11.9      5.190     10.229
REMARK  Name = 448407
REMARK  4 active torsions:
REMARK  status: ('A' for Active; 'I' for Inactive)
REMARK    1  A    between atoms: C_1  and  N_8
REMARK    2  A    between atoms: C_2  and  C_23
REMARK    3  A    between atoms: N_22  and  C_25
REMARK    4  A    between atoms: C_25  and  C_28
REMARK                            x       y       z     vdW  Elec       q    Type
REMARK                         _______ _______ _______ _____ _____    ______ ____
ROOT
ATOM      1  C   UNL     1      35.158 -18.193 -22.033  0.00  0.00    +0.090 C 
ATOM      2  C   UNL     1      34.422 -15.872 -22.036  0.00  0.00    +0.055 C 
ATOM      3  C   UNL     1      34.702 -17.053 -21.348  0.00  0.00    +0.023 C 
ATOM      4  C   UNL     1      35.326 -18.116 -23.427  0.00  0.00    +0.018 C 
ATOM      5  C   UNL     1      34.595 -15.813 -23.418  0.00  0.00    +0.005 C 
ATOM      6  C   UNL     1      35.047 -16.935 -24.114  0.00  0.00    +0.002 C 
ENDROOT
BRANCH   1   8
ATOM      7  O   UNL     1      32.973 -22.087 -19.376  0.00  0.00    -0.207 OA
ATOM      8  N   UNL     1      35.438 -19.369 -21.348  0.00  0.00    -0.137 N 
ATOM      9  N   UNL     1      36.536 -19.571 -20.572  0.00  0.00    -0.215 N 
ATOM     10  N   UNL     1      34.372 -20.167 -20.938  0.00  0.00    -0.143 NA
ATOM     11  N   UNL     1      36.821 -21.087 -18.657  0.00  0.00    -0.309 NA
ATOM     12  N   UNL     1      34.874 -22.393 -18.085  0.00  0.00    -0.251 NA
ATOM     13  N   UNL     1      36.826 -22.616 -16.865  0.00  0.00    -0.283 N 
ATOM     14  C   UNL     1      36.233 -20.500 -19.632  0.00  0.00    +0.243 C 
ATOM     15  C   UNL     1      34.831 -20.837 -19.927  0.00  0.00    +0.241 C 
ATOM     16  C   UNL     1      34.137 -21.834 -19.101  0.00  0.00    +0.239 C 
ATOM     17  C   UNL     1      36.127 -22.029 -17.894  0.00  0.00    +0.208 C 
ATOM     18  H   UNL     1      37.404 -19.118 -20.674  0.00  0.00    +0.175 HD
ATOM     19  H   UNL     1      37.764 -22.363 -16.698  0.00  0.00    +0.156 HD
ATOM     20  H   UNL     1      36.389 -23.288 -16.293  0.00  0.00    +0.156 HD
ENDBRANCH   1   8
BRANCH   2  23
ATOM     21  O   UNL     1      34.628 -14.223 -20.382  0.00  0.00    -0.270 OA
ATOM     22  N   UNL     1      32.738 -14.144 -21.724  0.00  0.00    -0.297 N 
ATOM     23  C   UNL     1      33.953 -14.702 -21.311  0.00  0.00    +0.246 C 
ATOM     24  H   UNL     1      32.256 -14.575 -22.466  0.00  0.00    +0.150 HD
BRANCH  22  25
ATOM     25  C   UNL     1      32.153 -12.969 -21.119  0.00  0.00    +0.117 C 
BRANCH  25  28
ATOM     26 CL   UNL     1      34.945 -10.658 -24.848  0.00  0.00    -0.082 Cl
ATOM     27 CL   UNL     1      31.461  -7.863 -21.820  0.00  0.00    -0.082 Cl
ATOM     28  C   UNL     1      32.507 -11.716 -21.867  0.00  0.00    -0.001 C 
ATOM     29  C   UNL     1      31.890 -10.517 -21.532  0.00  0.00    +0.009 C 
ATOM     30  C   UNL     1      33.450 -11.768 -22.887  0.00  0.00    +0.009 C 
ATOM     31  C   UNL     1      33.780 -10.605 -23.583  0.00  0.00    +0.058 C 
ATOM     32  C   UNL     1      32.219  -9.353 -22.227  0.00  0.00    +0.058 C 
ATOM     33  C   UNL     1      33.164  -9.397 -23.253  0.00  0.00    +0.023 C 
ENDBRANCH  25  28
ENDBRANCH  22  25
ENDBRANCH   2  23
TORSDOF 4
ENDMDL
MODEL 8
REMARK VINA RESULT:     -11.9      5.192     10.334
REMARK  Name = 448407
REMARK  4 active torsions:
REMARK  status: ('A' for Active; 'I' for Inactive)
REMARK    1  A    between atoms: C_1  and  N_8
REMARK    2  A    between atoms: C_2  and  C_23
REMARK    3  A    between atoms: N_22  and  C_25
REMARK    4  A    between atoms: C_25  and  C_28
REMARK                            x       y       z     vdW  Elec       q    Type
REMARK                         _______ _______ _______ _____ _____    ______ ____
ROOT
ATOM      1  C   UNL     1      35.161 -18.202 -22.002  0.00  0.00    +0.090 C 
ATOM      2  C   UNL     1      34.404 -15.889 -22.007  0.00  0.00    +0.055 C 
ATOM      3  C   UNL     1      34.695 -17.066 -21.318  0.00  0.00    +0.023 C 
ATOM      4  C   UNL     1      35.327 -18.125 -23.396  0.00  0.00    +0.018 C 
ATOM      5  C   UNL     1      34.574 -15.830 -23.390  0.00  0.00    +0.005 C 
ATOM      6  C   UNL     1      35.036 -16.948 -24.084  0.00  0.00    +0.002 C 
ENDROOT
BRANCH   1   8
ATOM      7  O   UNL     1      33.011 -22.136 -19.375  0.00  0.00    -0.207 OA
ATOM      8  N   UNL     1      35.453 -19.375 -21.315  0.00  0.00    -0.137 N 
ATOM      9  N   UNL     1      36.545 -19.560 -20.528  0.00  0.00    -0.215 N 
ATOM     10  N   UNL     1      34.396 -20.191 -20.919  0.00  0.00    -0.143 NA
ATOM     11  N   UNL     1      36.834 -21.074 -18.612  0.00  0.00    -0.309 NA
ATOM     12  N   UNL     1      34.903 -22.413 -18.064  0.00  0.00    -0.251 NA
ATOM     13  N   UNL     1      36.844 -22.606 -16.822  0.00  0.00    -0.283 N 
ATOM     14  C   UNL     1      36.247 -20.496 -19.593  0.00  0.00    +0.243 C 
ATOM     15  C   UNL     1      34.855 -20.855 -19.904  0.00  0.00    +0.241 C 
ATOM     16  C   UNL     1      34.168 -21.865 -19.088  0.00  0.00    +0.239 C 
ATOM     17  C   UNL     1      36.147 -22.029 -17.859  0.00  0.00    +0.208 C 
ATOM     18  H   UNL     1      37.407 -19.093 -20.620  0.00  0.00    +0.175 HD
ATOM     19  H   UNL     1      37.775 -22.339 -16.645  0.00  0.00    +0.156 HD
ATOM     20  H   UNL     1      36.411 -23.286 -16.256  0.00  0.00    +0.156 HD
ENDBRANCH   1   8
BRANCH   2  23
ATOM     21  O   UNL     1      34.566 -14.270 -20.318  0.00  0.00    -0.270 OA
ATOM     22  N   UNL     1      32.738 -14.135 -21.740  0.00  0.00    -0.297 N 
ATOM     23  C   UNL     1      33.924 -14.722 -21.284  0.00  0.00    +0.246 C 
ATOM     24  H   UNL     1      32.281 -14.545 -22.509  0.00  0.00    +0.150 HD
BRANCH  22  25
ATOM     25  C   UNL     1      32.148 -12.959 -21.141  0.00  0.00    +0.117 C 
BRANCH  25  28
ATOM     26 CL   UNL     1      31.509  -7.842 -21.808  0.00  0.00    -0.082 Cl
ATOM     27 CL   UNL     1      34.944 -10.658 -24.872  0.00  0.00    -0.082 Cl
ATOM     28  C   UNL     1      32.513 -11.706 -21.884  0.00  0.00    -0.001 C 
ATOM     29  C   UNL     1      33.449 -11.763 -22.910  0.00  0.00    +0.009 C 
ATOM     30  C   UNL     1      31.910 -10.503 -21.539  0.00  0.00    +0.009 C 
ATOM     31  C   UNL     1      32.248  -9.338 -22.229  0.00  0.00    +0.058 C 
ATOM     32  C   UNL     1      33.787 -10.600 -23.600  0.00  0.00    +0.058 C 
ATOM     33  C   UNL     1      33.187  -9.386 -23.260  0.00  0.00    +0.023 C 
ENDBRANCH  25  28
ENDBRANCH  22  25
ENDBRANCH   2  23
TORSDOF 4
ENDMDL
MODEL 9
REMARK VINA RESULT:     -11.8      4.891     10.624
REMARK  Name = 448407
REMARK  4 active torsions:
REMARK  status: ('A' for Active; 'I' for Inactive)
REMARK    1  A    between atoms: C_1  and  N_8
REMARK    2  A    between atoms: C_2  and  C_23
REMARK    3  A    between atoms: N_22  and  C_25
REMARK    4  A    between atoms: C_25  and  C_28
REMARK                            x       y       z     vdW  Elec       q    Type
REMARK                         _______ _______ _______ _____ _____    ______ ____
ROOT
ATOM      1  C   UNL     1      34.554 -22.798 -16.900  0.00  0.00    +0.090 C 
ATOM      2  C   UNL     1      34.940 -21.537 -18.946  0.00  0.00    +0.055 C 
ATOM      3  C   UNL     1      35.429 -22.167 -17.801  0.00  0.00    +0.023 C 
ATOM      4  C   UNL     1      33.176 -22.782 -17.179  0.00  0.00    +0.018 C 
ATOM      5  C   UNL     1      33.571 -21.530 -19.207  0.00  0.00    +0.005 C 
ATOM      6  C   UNL     1      32.688 -22.152 -18.324  0.00  0.00    +0.002 C 
ENDROOT
BRANCH   1   8
ATOM      7  O   UNL     1      37.540 -22.093 -12.707  0.00  0.00    -0.207 OA
ATOM      8  N   UNL     1      35.040 -23.427 -15.759  0.00  0.00    -0.137 N 
ATOM      9  N   UNL     1      35.404 -24.735 -15.693  0.00  0.00    -0.215 N 
ATOM     10  N   UNL     1      35.726 -22.659 -14.821  0.00  0.00    -0.143 NA
ATOM     11  N   UNL     1      37.030 -25.814 -14.196  0.00  0.00    -0.309 NA
ATOM     12  N   UNL     1      38.124 -24.335 -12.634  0.00  0.00    -0.251 NA
ATOM     13  N   UNL     1      38.630 -26.592 -12.651  0.00  0.00    -0.283 N 
ATOM     14  C   UNL     1      36.335 -24.872 -14.715  0.00  0.00    +0.243 C 
ATOM     15  C   UNL     1      36.491 -23.502 -14.201  0.00  0.00    +0.241 C 
ATOM     16  C   UNL     1      37.437 -23.243 -13.107  0.00  0.00    +0.239 C 
ATOM     17  C   UNL     1      37.920 -25.528 -13.157  0.00  0.00    +0.208 C 
ATOM     18  H   UNL     1      35.053 -25.460 -16.258  0.00  0.00    +0.175 HD
ATOM     19  H   UNL     1      38.498 -27.494 -13.022  0.00  0.00    +0.156 HD
ATOM     20  H   UNL     1      39.272 -26.451 -11.918  0.00  0.00    +0.156 HD
ENDBRANCH   1   8
BRANCH   2  23
ATOM     21  O   UNL     1      37.033 -21.288 -19.973  0.00  0.00    -0.270 OA
ATOM     22  N   UNL     1      35.353 -19.832 -20.632  0.00  0.00    -0.297 N 
ATOM     23  C   UNL     1      35.859 -20.890 -19.868  0.00  0.00    +0.246 C 
ATOM     24  H   UNL     1      34.415 -19.568 -20.498  0.00  0.00    +0.150 HD
BRANCH  22  25
ATOM     25  C   UNL     1      36.135 -19.105 -21.606  0.00  0.00    +0.117 C 
BRANCH  25  28
ATOM     26 CL   UNL     1      33.946 -14.608 -20.185  0.00  0.00    -0.082 Cl
ATOM     27 CL   UNL     1      34.439 -15.961 -25.385  0.00  0.00    -0.082 Cl
ATOM     28  C   UNL     1      35.479 -17.815 -22.005  0.00  0.00    -0.001 C 
ATOM     29  C   UNL     1      35.289 -17.526 -23.351  0.00  0.00    +0.009 C 
ATOM     30  C   UNL     1      35.067 -16.921 -21.023  0.00  0.00    +0.009 C 
ATOM     31  C   UNL     1      34.458 -15.722 -21.392  0.00  0.00    +0.058 C 
ATOM     32  C   UNL     1      34.679 -16.328 -23.721  0.00  0.00    +0.058 C 
ATOM     33  C   UNL     1      34.264 -15.425 -22.742  0.00  0.00    +0.023 C 
ENDBRANCH  25  28
ENDBRANCH  22  25
ENDBRANCH   2  23
TORSDOF 4
ENDMDL
