MODEL 1
REMARK VINA RESULT:     -12.1      0.000      0.000
REMARK  Name = 3478
REMARK  7 active torsions:
REMARK  status: ('A' for Active; 'I' for Inactive)
REMARK    1  A    between atoms: C_1  and  S_7
REMARK    2  A    between atoms: C_2  and  C_22
REMARK    3  A    between atoms: S_7  and  N_12
REMARK    4  A    between atoms: N_11  and  C_16
REMARK    5  A    between atoms: C_22  and  C_23
REMARK    6  A    between atoms: C_23  and  N_25
REMARK    7  A    between atoms: C_26  and  C_30
REMARK                            x       y       z     vdW  Elec       q    Type
REMARK                         _______ _______ _______ _____ _____    ______ ____
ROOT
ATOM      1  C   UNL     1      32.331 -12.657 -21.148  0.00  0.00    +0.125 C 
ATOM      2  C   UNL     1      33.644 -14.904 -22.151  0.00  0.00    -0.020 C 
ATOM      3  C   UNL     1      32.504 -13.782 -20.342  0.00  0.00    +0.020 C 
ATOM      4  C   UNL     1      32.814 -12.655 -22.456  0.00  0.00    +0.020 C 
ATOM      5  C   UNL     1      33.160 -14.906 -20.843  0.00  0.00    -0.003 C 
ATOM      6  C   UNL     1      33.471 -13.780 -22.958  0.00  0.00    -0.003 C 
ENDROOT
BRANCH   1   7
ATOM      7  S   UNL     1      31.499 -11.232 -20.512  0.00  0.00    +0.077 S 
ATOM      8  O   UNL     1      32.076 -10.912 -19.221  0.00  0.00    -0.150 OA
ATOM      9  O   UNL     1      30.077 -11.486 -20.640  0.00  0.00    -0.150 OA
BRANCH   7  12
ATOM     10  O   UNL     1      32.859  -8.459 -20.190  0.00  0.00    -0.251 OA
ATOM     11  N   UNL     1      32.852  -8.039 -22.463  0.00  0.00    -0.289 N 
ATOM     12  N   UNL     1      31.965 -10.047 -21.651  0.00  0.00    -0.169 N 
ATOM     13  C   UNL     1      32.590  -8.798 -21.339  0.00  0.00    +0.319 C 
ATOM     14  H   UNL     1      32.597  -8.400 -23.343  0.00  0.00    +0.151 HD
ATOM     15  H   UNL     1      31.788 -10.238 -22.601  0.00  0.00    +0.178 HD
BRANCH  11  16
ATOM     16  C   UNL     1      33.484  -6.740 -22.406  0.00  0.00    +0.073 C 
ATOM     17  C   UNL     1      32.652  -5.689 -23.149  0.00  0.00    +0.020 C 
ATOM     18  C   UNL     1      34.916  -6.800 -22.948  0.00  0.00    +0.020 C 
ATOM     19  C   UNL     1      32.700  -5.872 -24.666  0.00  0.00    +0.002 C 
ATOM     20  C   UNL     1      34.960  -6.981 -24.465  0.00  0.00    +0.002 C 
ATOM     21  C   UNL     1      34.135  -5.917 -25.183  0.00  0.00    +0.000 C 
ENDBRANCH  11  16
ENDBRANCH   7  12
ENDBRANCH   1   7
BRANCH   2  22
ATOM     22  C   UNL     1      34.346 -16.106 -22.688  0.00  0.00    +0.048 C 
BRANCH  22  23
ATOM     23  C   UNL     1      35.496 -16.593 -21.797  0.00  0.00    +0.094 C 
BRANCH  23  25
ATOM     24  O   UNL     1      35.413 -19.339 -22.633  0.00  0.00    -0.269 OA
ATOM     25  N   UNL     1      35.121 -17.725 -20.992  0.00  0.00    -0.300 N 
ATOM     26  C   UNL     1      35.110 -19.025 -21.484  0.00  0.00    +0.261 C 
ATOM     27  H   UNL     1      34.861 -17.573 -20.054  0.00  0.00    +0.150 HD
BRANCH  26  30
ATOM     28  N   UNL     1      35.647 -20.763 -19.901  0.00  0.00    -0.262 NA
ATOM     29  N   UNL     1      32.929 -21.294 -19.455  0.00  0.00    -0.270 NA
ATOM     30  C   UNL     1      34.673 -20.080 -20.534  0.00  0.00    +0.132 C 
ATOM     31  C   UNL     1      33.338 -20.340 -20.315  0.00  0.00    +0.174 C 
ATOM     32  C   UNL     1      33.903 -21.978 -18.822  0.00  0.00    +0.057 C 
ATOM     33  C   UNL     1      35.238 -21.717 -19.042  0.00  0.00    +0.166 C 
ATOM     34  C   UNL     1      33.488 -23.039 -17.864  0.00  0.00    +0.049 C 
ENDBRANCH  26  30
ENDBRANCH  23  25
ENDBRANCH  22  23
ENDBRANCH   2  22
TORSDOF 7
ENDMDL
MODEL 2
REMARK VINA RESULT:     -12.0      4.962     13.162
REMARK  Name = 3478
REMARK  7 active torsions:
REMARK  status: ('A' for Active; 'I' for Inactive)
REMARK    1  A    between atoms: C_1  and  S_7
REMARK    2  A    between atoms: C_2  and  C_22
REMARK    3  A    between atoms: S_7  and  N_12
REMARK    4  A    between atoms: N_11  and  C_16
REMARK    5  A    between atoms: C_22  and  C_23
REMARK    6  A    between atoms: C_23  and  N_25
REMARK    7  A    between atoms: C_26  and  C_30
REMARK                            x       y       z     vdW  Elec       q    Type
REMARK                         _______ _______ _______ _____ _____    ______ ____
ROOT
ATOM      1  C   UNL     1      34.357 -21.978 -18.766  0.00  0.00    +0.125 C 
ATOM      2  C   UNL     1      35.639 -20.171 -20.460  0.00  0.00    -0.020 C 
ATOM      3  C   UNL     1      35.750 -21.899 -18.777  0.00  0.00    +0.020 C 
ATOM      4  C   UNL     1      33.605 -21.154 -19.602  0.00  0.00    +0.020 C 
ATOM      5  C   UNL     1      36.391 -20.996 -19.624  0.00  0.00    -0.003 C 
ATOM      6  C   UNL     1      34.247 -20.250 -20.450  0.00  0.00    -0.003 C 
ENDROOT
BRANCH   1   7
ATOM      7  S   UNL     1      33.545 -23.123 -17.692  0.00  0.00    +0.077 S 
ATOM      8  O   UNL     1      33.430 -24.390 -18.388  0.00  0.00    -0.150 OA
ATOM      9  O   UNL     1      32.364 -22.454 -17.182  0.00  0.00    -0.150 OA
BRANCH   7  12
ATOM     10  O   UNL     1      33.445 -24.540 -14.930  0.00  0.00    -0.251 OA
ATOM     11  N   UNL     1      35.600 -23.914 -14.378  0.00  0.00    -0.289 N 
ATOM     12  N   UNL     1      34.696 -23.268 -16.438  0.00  0.00    -0.169 N 
ATOM     13  C   UNL     1      34.494 -23.964 -15.203  0.00  0.00    +0.319 C 
ATOM     14  H   UNL     1      36.397 -23.425 -14.690  0.00  0.00    +0.151 HD
ATOM     15  H   UNL     1      35.571 -22.837 -16.575  0.00  0.00    +0.178 HD
BRANCH  11  16
ATOM     16  C   UNL     1      35.643 -24.547 -13.079  0.00  0.00    +0.073 C 
ATOM     17  C   UNL     1      35.921 -23.521 -11.975  0.00  0.00    +0.020 C 
ATOM     18  C   UNL     1      36.670 -25.683 -13.053  0.00  0.00    +0.020 C 
ATOM     19  C   UNL     1      37.362 -23.012 -12.000  0.00  0.00    +0.002 C 
ATOM     20  C   UNL     1      38.110 -25.171 -13.077  0.00  0.00    +0.002 C 
ATOM     21  C   UNL     1      38.366 -24.161 -11.962  0.00  0.00    +0.000 C 
ENDBRANCH  11  16
ENDBRANCH   7  12
ENDBRANCH   1   7
BRANCH   2  22
ATOM     22  C   UNL     1      36.324 -19.204 -21.367  0.00  0.00    +0.048 C 
BRANCH  22  23
ATOM     23  C   UNL     1      35.537 -18.905 -22.649  0.00  0.00    +0.094 C 
BRANCH  23  25
ATOM     24  O   UNL     1      34.742 -17.518 -25.034  0.00  0.00    -0.269 OA
ATOM     25  N   UNL     1      35.172 -17.517 -22.755  0.00  0.00    -0.300 N 
ATOM     26  C   UNL     1      34.799 -16.929 -23.958  0.00  0.00    +0.261 C 
ATOM     27  H   UNL     1      35.189 -16.961 -21.942  0.00  0.00    +0.150 HD
BRANCH  26  30
ATOM     28  N   UNL     1      34.876 -14.814 -22.803  0.00  0.00    -0.262 NA
ATOM     29  N   UNL     1      33.510 -13.541 -24.897  0.00  0.00    -0.270 NA
ATOM     30  C   UNL     1      34.478 -15.480 -23.904  0.00  0.00    +0.132 C 
ATOM     31  C   UNL     1      33.807 -14.855 -24.933  0.00  0.00    +0.174 C 
ATOM     32  C   UNL     1      33.907 -12.874 -23.795  0.00  0.00    +0.057 C 
ATOM     33  C   UNL     1      34.579 -13.499 -22.766  0.00  0.00    +0.166 C 
ATOM     34  C   UNL     1      33.597 -11.420 -23.721  0.00  0.00    +0.049 C 
ENDBRANCH  26  30
ENDBRANCH  23  25
ENDBRANCH  22  23
ENDBRANCH   2  22
TORSDOF 7
ENDMDL
MODEL 3
REMARK VINA RESULT:     -11.9      4.671     12.896
REMARK  Name = 3478
REMARK  7 active torsions:
REMARK  status: ('A' for Active; 'I' for Inactive)
REMARK    1  A    between atoms: C_1  and  S_7
REMARK    2  A    between atoms: C_2  and  C_22
REMARK    3  A    between atoms: S_7  and  N_12
REMARK    4  A    between atoms: N_11  and  C_16
REMARK    5  A    between atoms: C_22  and  C_23
REMARK    6  A    between atoms: C_23  and  N_25
REMARK    7  A    between atoms: C_26  and  C_30
REMARK                            x       y       z     vdW  Elec       q    Type
REMARK                         _______ _______ _______ _____ _____    ______ ____
ROOT
ATOM      1  C   UNL     1      34.666 -21.325 -19.541  0.00  0.00    +0.125 C 
ATOM      2  C   UNL     1      35.876 -19.321 -21.057  0.00  0.00    -0.020 C 
ATOM      3  C   UNL     1      36.056 -21.211 -19.565  0.00  0.00    +0.020 C 
ATOM      4  C   UNL     1      33.880 -20.437 -20.274  0.00  0.00    +0.020 C 
ATOM      5  C   UNL     1      36.661 -20.210 -20.323  0.00  0.00    -0.003 C 
ATOM      6  C   UNL     1      34.486 -19.434 -21.033  0.00  0.00    -0.003 C 
ENDROOT
BRANCH   1   7
ATOM      7  S   UNL     1      33.899 -22.595 -18.579  0.00  0.00    +0.077 S 
ATOM      8  O   UNL     1      33.750 -23.768 -19.418  0.00  0.00    -0.150 OA
ATOM      9  O   UNL     1      32.743 -21.996 -17.939  0.00  0.00    -0.150 OA
BRANCH   7  12
ATOM     10  O   UNL     1      33.803 -23.983 -15.803  0.00  0.00    -0.251 OA
ATOM     11  N   UNL     1      36.055 -23.645 -15.404  0.00  0.00    -0.289 N 
ATOM     12  N   UNL     1      35.104 -22.889 -17.404  0.00  0.00    -0.169 N 
ATOM     13  C   UNL     1      34.897 -23.551 -16.152  0.00  0.00    +0.319 C 
ATOM     14  H   UNL     1      36.885 -23.265 -15.774  0.00  0.00    +0.151 HD
ATOM     15  H   UNL     1      36.016 -22.576 -17.604  0.00  0.00    +0.178 HD
BRANCH  11  16
ATOM     16  C   UNL     1      36.102 -24.276 -14.105  0.00  0.00    +0.073 C 
ATOM     17  C   UNL     1      37.449 -24.024 -13.417  0.00  0.00    +0.020 C 
ATOM     18  C   UNL     1      35.805 -25.776 -14.210  0.00  0.00    +0.020 C 
ATOM     19  C   UNL     1      38.591 -24.807 -14.066  0.00  0.00    +0.002 C 
ATOM     20  C   UNL     1      36.949 -26.556 -14.856  0.00  0.00    +0.002 C 
ATOM     21  C   UNL     1      38.276 -26.298 -14.149  0.00  0.00    +0.000 C 
ENDBRANCH  11  16
ENDBRANCH   7  12
ENDBRANCH   1   7
BRANCH   2  22
ATOM     22  C   UNL     1      36.522 -18.249 -21.868  0.00  0.00    +0.048 C 
BRANCH  22  23
ATOM     23  C   UNL     1      35.569 -17.575 -22.863  0.00  0.00    +0.094 C 
BRANCH  23  25
ATOM     24  O   UNL     1      34.090 -15.536 -24.240  0.00  0.00    -0.269 OA
ATOM     25  N   UNL     1      34.825 -16.500 -22.263  0.00  0.00    -0.300 N 
ATOM     26  C   UNL     1      34.136 -15.554 -23.013  0.00  0.00    +0.261 C 
ATOM     27  H   UNL     1      34.804 -16.430 -21.280  0.00  0.00    +0.150 HD
BRANCH  26  30
ATOM     28  N   UNL     1      33.015 -14.820 -21.008  0.00  0.00    -0.262 NA
ATOM     29  N   UNL     1      32.611 -12.262 -22.085  0.00  0.00    -0.270 NA
ATOM     30  C   UNL     1      33.439 -14.491 -22.244  0.00  0.00    +0.132 C 
ATOM     31  C   UNL     1      33.242 -13.235 -22.773  0.00  0.00    +0.174 C 
ATOM     32  C   UNL     1      32.186 -12.591 -20.849  0.00  0.00    +0.057 C 
ATOM     33  C   UNL     1      32.384 -13.848 -20.320  0.00  0.00    +0.166 C 
ATOM     34  C   UNL     1      31.486 -11.540 -20.060  0.00  0.00    +0.049 C 
ENDBRANCH  26  30
ENDBRANCH  23  25
ENDBRANCH  22  23
ENDBRANCH   2  22
TORSDOF 7
ENDMDL
MODEL 4
REMARK VINA RESULT:     -11.9      5.254     13.284
REMARK  Name = 3478
REMARK  7 active torsions:
REMARK  status: ('A' for Active; 'I' for Inactive)
REMARK    1  A    between atoms: C_1  and  S_7
REMARK    2  A    between atoms: C_2  and  C_22
REMARK    3  A    between atoms: S_7  and  N_12
REMARK    4  A    between atoms: N_11  and  C_16
REMARK    5  A    between atoms: C_22  and  C_23
REMARK    6  A    between atoms: C_23  and  N_25
REMARK    7  A    between atoms: C_26  and  C_30
REMARK                            x       y       z     vdW  Elec       q    Type
REMARK                         _______ _______ _______ _____ _____    ______ ____
ROOT
ATOM      1  C   UNL     1      34.270 -22.201 -18.448  0.00  0.00    +0.125 C 
ATOM      2  C   UNL     1      35.524 -20.480 -20.249  0.00  0.00    -0.020 C 
ATOM      3  C   UNL     1      35.662 -22.123 -18.486  0.00  0.00    +0.020 C 
ATOM      4  C   UNL     1      33.504 -21.417 -19.312  0.00  0.00    +0.020 C 
ATOM      5  C   UNL     1      36.289 -21.264 -19.386  0.00  0.00    -0.003 C 
ATOM      6  C   UNL     1      34.132 -20.557 -20.213  0.00  0.00    -0.003 C 
ENDROOT
BRANCH   1   7
ATOM      7  S   UNL     1      33.474 -23.291 -17.307  0.00  0.00    +0.077 S 
ATOM      8  O   UNL     1      33.196 -24.538 -17.993  0.00  0.00    -0.150 OA
ATOM      9  O   UNL     1      32.402 -22.538 -16.685  0.00  0.00    -0.150 OA
BRANCH   7  12
ATOM     10  O   UNL     1      33.476 -24.532 -14.460  0.00  0.00    -0.251 OA
ATOM     11  N   UNL     1      35.746 -24.202 -14.169  0.00  0.00    -0.289 N 
ATOM     12  N   UNL     1      34.723 -23.539 -16.167  0.00  0.00    -0.169 N 
ATOM     13  C   UNL     1      34.560 -24.132 -14.875  0.00  0.00    +0.319 C 
ATOM     14  H   UNL     1      36.565 -23.853 -14.591  0.00  0.00    +0.151 HD
ATOM     15  H   UNL     1      35.630 -23.249 -16.420  0.00  0.00    +0.178 HD
BRANCH  11  16
ATOM     16  C   UNL     1      35.840 -24.766 -12.842  0.00  0.00    +0.073 C 
ATOM     17  C   UNL     1      35.922 -23.665 -11.779  0.00  0.00    +0.020 C 
ATOM     18  C   UNL     1      37.026 -25.730 -12.735  0.00  0.00    +0.020 C 
ATOM     19  C   UNL     1      37.269 -22.943 -11.789  0.00  0.00    +0.002 C 
ATOM     20  C   UNL     1      38.372 -25.005 -12.743  0.00  0.00    +0.002 C 
ATOM     21  C   UNL     1      38.434 -23.922 -11.671  0.00  0.00    +0.000 C 
ENDBRANCH  11  16
ENDBRANCH   7  12
ENDBRANCH   1   7
BRANCH   2  22
ATOM     22  C   UNL     1      36.195 -19.559 -21.213  0.00  0.00    +0.048 C 
BRANCH  22  23
ATOM     23  C   UNL     1      35.917 -18.076 -20.937  0.00  0.00    +0.094 C 
BRANCH  23  25
ATOM     24  O   UNL     1      34.690 -15.481 -21.002  0.00  0.00    -0.269 OA
ATOM     25  N   UNL     1      35.428 -17.386 -22.101  0.00  0.00    -0.300 N 
ATOM     26  C   UNL     1      34.845 -16.126 -22.036  0.00  0.00    +0.261 C 
ATOM     27  H   UNL     1      35.508 -17.825 -22.979  0.00  0.00    +0.150 HD
BRANCH  26  30
ATOM     28  N   UNL     1      33.595 -14.458 -23.249  0.00  0.00    -0.262 NA
ATOM     29  N   UNL     1      34.270 -15.636 -25.703  0.00  0.00    -0.270 NA
ATOM     30  C   UNL     1      34.366 -15.561 -23.323  0.00  0.00    +0.132 C 
ATOM     31  C   UNL     1      34.698 -16.140 -24.529  0.00  0.00    +0.174 C 
ATOM     32  C   UNL     1      33.498 -14.533 -25.630  0.00  0.00    +0.057 C 
ATOM     33  C   UNL     1      33.167 -13.955 -24.424  0.00  0.00    +0.166 C 
ATOM     34  C   UNL     1      33.008 -13.949 -26.908  0.00  0.00    +0.049 C 
ENDBRANCH  26  30
ENDBRANCH  23  25
ENDBRANCH  22  23
ENDBRANCH   2  22
TORSDOF 7
ENDMDL
MODEL 5
REMARK VINA RESULT:     -11.7      4.733     13.125
REMARK  Name = 3478
REMARK  7 active torsions:
REMARK  status: ('A' for Active; 'I' for Inactive)
REMARK    1  A    between atoms: C_1  and  S_7
REMARK    2  A    between atoms: C_2  and  C_22
REMARK    3  A    between atoms: S_7  and  N_12
REMARK    4  A    between atoms: N_11  and  C_16
REMARK    5  A    between atoms: C_22  and  C_23
REMARK    6  A    between atoms: C_23  and  N_25
REMARK    7  A    between atoms: C_26  and  C_30
REMARK                            x       y       z     vdW  Elec       q    Type
REMARK                         _______ _______ _______ _____ _____    ______ ____
ROOT
ATOM      1  C   UNL     1      34.044 -21.868 -18.927  0.00  0.00    +0.125 C 
ATOM      2  C   UNL     1      34.796 -19.993 -20.850  0.00  0.00    -0.020 C 
ATOM      3  C   UNL     1      35.391 -21.691 -19.239  0.00  0.00    +0.020 C 
ATOM      4  C   UNL     1      33.072 -21.109 -19.577  0.00  0.00    +0.020 C 
ATOM      5  C   UNL     1      35.768 -20.754 -20.200  0.00  0.00    -0.003 C 
ATOM      6  C   UNL     1      33.448 -20.171 -20.539  0.00  0.00    -0.003 C 
ENDROOT
BRANCH   1   7
ATOM      7  S   UNL     1      33.567 -23.057 -17.709  0.00  0.00    +0.077 S 
ATOM      8  O   UNL     1      33.366 -24.330 -18.374  0.00  0.00    -0.150 OA
ATOM      9  O   UNL     1      32.499 -22.456 -16.932  0.00  0.00    -0.150 OA
BRANCH   7  12
ATOM     10  O   UNL     1      34.152 -24.371 -14.956  0.00  0.00    -0.251 OA
ATOM     11  N   UNL     1      36.360 -23.685 -14.945  0.00  0.00    -0.289 N 
ATOM     12  N   UNL     1      34.982 -23.134 -16.755  0.00  0.00    -0.169 N 
ATOM     13  C   UNL     1      35.093 -23.787 -15.486  0.00  0.00    +0.319 C 
ATOM     14  H   UNL     1      37.048 -23.194 -15.450  0.00  0.00    +0.151 HD
ATOM     15  H   UNL     1      35.789 -22.692 -17.107  0.00  0.00    +0.178 HD
BRANCH  11  16
ATOM     16  C   UNL     1      36.721 -24.268 -13.673  0.00  0.00    +0.073 C 
ATOM     17  C   UNL     1      38.211 -24.065 -13.376  0.00  0.00    +0.020 C 
ATOM     18  C   UNL     1      36.341 -25.752 -13.619  0.00  0.00    +0.020 C 
ATOM     19  C   UNL     1      39.106 -24.934 -14.259  0.00  0.00    +0.002 C 
ATOM     20  C   UNL     1      37.239 -26.618 -14.501  0.00  0.00    +0.002 C 
ATOM     21  C   UNL     1      38.716 -26.407 -14.180  0.00  0.00    +0.000 C 
ENDBRANCH  11  16
ENDBRANCH   7  12
ENDBRANCH   1   7
BRANCH   2  22
ATOM     22  C   UNL     1      35.198 -18.990 -21.878  0.00  0.00    +0.048 C 
BRANCH  22  23
ATOM     23  C   UNL     1      35.865 -17.741 -21.287  0.00  0.00    +0.094 C 
BRANCH  23  25
ATOM     24  O   UNL     1      35.413 -15.582 -23.125  0.00  0.00    -0.269 OA
ATOM     25  N   UNL     1      34.939 -16.653 -21.123  0.00  0.00    -0.300 N 
ATOM     26  C   UNL     1      34.787 -15.647 -22.071  0.00  0.00    +0.261 C 
ATOM     27  H   UNL     1      34.391 -16.619 -20.306  0.00  0.00    +0.150 HD
BRANCH  26  30
ATOM     28  N   UNL     1      33.680 -13.580 -22.634  0.00  0.00    -0.262 NA
ATOM     29  N   UNL     1      32.180 -13.657 -20.264  0.00  0.00    -0.270 NA
ATOM     30  C   UNL     1      33.808 -14.580 -21.739  0.00  0.00    +0.132 C 
ATOM     31  C   UNL     1      33.072 -14.618 -20.576  0.00  0.00    +0.174 C 
ATOM     32  C   UNL     1      32.052 -12.656 -21.158  0.00  0.00    +0.057 C 
ATOM     33  C   UNL     1      32.789 -12.618 -22.322  0.00  0.00    +0.166 C 
ATOM     34  C   UNL     1      31.075 -11.576 -20.847  0.00  0.00    +0.049 C 
ENDBRANCH  26  30
ENDBRANCH  23  25
ENDBRANCH  22  23
ENDBRANCH   2  22
TORSDOF 7
ENDMDL
MODEL 6
REMARK VINA RESULT:     -11.6      4.846      8.242
REMARK  Name = 3478
REMARK  7 active torsions:
REMARK  status: ('A' for Active; 'I' for Inactive)
REMARK    1  A    between atoms: C_1  and  S_7
REMARK    2  A    between atoms: C_2  and  C_22
REMARK    3  A    between atoms: S_7  and  N_12
REMARK    4  A    between atoms: N_11  and  C_16
REMARK    5  A    between atoms: C_22  and  C_23
REMARK    6  A    between atoms: C_23  and  N_25
REMARK    7  A    between atoms: C_26  and  C_30
REMARK                            x       y       z     vdW  Elec       q    Type
REMARK                         _______ _______ _______ _____ _____    ______ ____
ROOT
ATOM      1  C   UNL     1      34.810 -20.306 -20.606  0.00  0.00    +0.125 C 
ATOM      2  C   UNL     1      33.943 -22.200 -18.752  0.00  0.00    -0.020 C 
ATOM      3  C   UNL     1      35.735 -21.126 -19.962  0.00  0.00    +0.020 C 
ATOM      4  C   UNL     1      33.450 -20.432 -20.323  0.00  0.00    +0.020 C 
ATOM      5  C   UNL     1      35.303 -22.073 -19.035  0.00  0.00    -0.003 C 
ATOM      6  C   UNL     1      33.017 -21.380 -19.395  0.00  0.00    -0.003 C 
ENDROOT
BRANCH   1   7
ATOM      7  S   UNL     1      35.359 -19.105 -21.782  0.00  0.00    +0.077 S 
ATOM      8  O   UNL     1      34.683 -19.362 -23.038  0.00  0.00    -0.150 OA
ATOM      9  O   UNL     1      36.808 -19.086 -21.716  0.00  0.00    -0.150 OA
BRANCH   7  12
ATOM     10  O   UNL     1      35.797 -16.110 -22.480  0.00  0.00    -0.251 OA
ATOM     11  N   UNL     1      34.408 -15.372 -20.786  0.00  0.00    -0.289 N 
ATOM     12  N   UNL     1      34.745 -17.667 -21.092  0.00  0.00    -0.169 N 
ATOM     13  C   UNL     1      35.049 -16.340 -21.534  0.00  0.00    +0.319 C 
ATOM     14  H   UNL     1      33.826 -15.659 -20.044  0.00  0.00    +0.151 HD
ATOM     15  H   UNL     1      34.132 -17.759 -20.326  0.00  0.00    +0.178 HD
BRANCH  11  16
ATOM     16  C   UNL     1      34.552 -13.956 -21.042  0.00  0.00    +0.073 C 
ATOM     17  C   UNL     1      33.534 -13.143 -20.235  0.00  0.00    +0.020 C 
ATOM     18  C   UNL     1      34.441 -13.654 -22.540  0.00  0.00    +0.020 C 
ATOM     19  C   UNL     1      32.108 -13.302 -20.764  0.00  0.00    +0.002 C 
ATOM     20  C   UNL     1      33.015 -13.811 -23.066  0.00  0.00    +0.002 C 
ATOM     21  C   UNL     1      32.022 -12.984 -22.254  0.00  0.00    +0.000 C 
ENDBRANCH  11  16
ENDBRANCH   7  12
ENDBRANCH   1   7
BRANCH   2  22
ATOM     22  C   UNL     1      33.479 -23.213 -17.761  0.00  0.00    +0.048 C 
BRANCH  22  23
ATOM     23  C   UNL     1      33.886 -22.890 -16.317  0.00  0.00    +0.094 C 
BRANCH  23  25
ATOM     24  O   UNL     1      34.425 -24.831 -14.272  0.00  0.00    -0.269 OA
ATOM     25  N   UNL     1      35.169 -23.443 -15.975  0.00  0.00    -0.300 N 
ATOM     26  C   UNL     1      35.335 -24.382 -14.964  0.00  0.00    +0.261 C 
ATOM     27  H   UNL     1      35.962 -23.143 -16.476  0.00  0.00    +0.150 HD
BRANCH  26  30
ATOM     28  N   UNL     1      36.890 -26.128 -14.373  0.00  0.00    -0.262 NA
ATOM     29  N   UNL     1      39.063 -24.370 -14.611  0.00  0.00    -0.270 NA
ATOM     30  C   UNL     1      36.728 -24.835 -14.716  0.00  0.00    +0.132 C 
ATOM     31  C   UNL     1      37.795 -23.971 -14.833  0.00  0.00    +0.174 C 
ATOM     32  C   UNL     1      39.226 -25.663 -14.267  0.00  0.00    +0.057 C 
ATOM     33  C   UNL     1      38.158 -26.527 -14.151  0.00  0.00    +0.166 C 
ATOM     34  C   UNL     1      40.614 -26.139 -14.015  0.00  0.00    +0.049 C 
ENDBRANCH  26  30
ENDBRANCH  23  25
ENDBRANCH  22  23
ENDBRANCH   2  22
TORSDOF 7
ENDMDL
MODEL 7
REMARK VINA RESULT:     -11.2      6.735     13.669
REMARK  Name = 3478
REMARK  7 active torsions:
REMARK  status: ('A' for Active; 'I' for Inactive)
REMARK    1  A    between atoms: C_1  and  S_7
REMARK    2  A    between atoms: C_2  and  C_22
REMARK    3  A    between atoms: S_7  and  N_12
REMARK    4  A    between atoms: N_11  and  C_16
REMARK    5  A    between atoms: C_22  and  C_23
REMARK    6  A    between atoms: C_23  and  N_25
REMARK    7  A    between atoms: C_26  and  C_30
REMARK                            x       y       z     vdW  Elec       q    Type
REMARK                         _______ _______ _______ _____ _____    ______ ____
ROOT
ATOM      1  C   UNL     1      36.459 -23.844 -14.876  0.00  0.00    +0.125 C 
ATOM      2  C   UNL     1      36.962 -22.048 -16.949  0.00  0.00    -0.020 C 
ATOM      3  C   UNL     1      35.424 -23.448 -15.722  0.00  0.00    +0.020 C 
ATOM      4  C   UNL     1      37.746 -23.343 -15.066  0.00  0.00    +0.020 C 
ATOM      5  C   UNL     1      35.675 -22.549 -16.758  0.00  0.00    -0.003 C 
ATOM      6  C   UNL     1      37.998 -22.444 -16.103  0.00  0.00    -0.003 C 
ENDROOT
BRANCH   1   7
ATOM      7  S   UNL     1      36.141 -24.983 -13.561  0.00  0.00    +0.077 S 
ATOM      8  O   UNL     1      36.238 -24.263 -12.307  0.00  0.00    -0.150 OA
ATOM      9  O   UNL     1      36.969 -26.148 -13.806  0.00  0.00    -0.150 OA
BRANCH   7  12
ATOM     10  O   UNL     1      33.480 -23.792 -12.492  0.00  0.00    -0.251 OA
ATOM     11  N   UNL     1      32.175 -25.263 -13.707  0.00  0.00    -0.289 N 
ATOM     12  N   UNL     1      34.507 -25.381 -13.862  0.00  0.00    -0.169 N 
ATOM     13  C   UNL     1      33.374 -24.727 -13.280  0.00  0.00    +0.319 C 
ATOM     14  H   UNL     1      32.196 -26.016 -14.342  0.00  0.00    +0.151 HD
ATOM     15  H   UNL     1      34.329 -26.121 -14.487  0.00  0.00    +0.178 HD
BRANCH  11  16
ATOM     16  C   UNL     1      30.890 -24.770 -13.264  0.00  0.00    +0.073 C 
ATOM     17  C   UNL     1      29.744 -25.502 -13.969  0.00  0.00    +0.020 C 
ATOM     18  C   UNL     1      30.785 -23.253 -13.461  0.00  0.00    +0.020 C 
ATOM     19  C   UNL     1      29.617 -25.108 -15.441  0.00  0.00    +0.002 C 
ATOM     20  C   UNL     1      30.656 -22.862 -14.933  0.00  0.00    +0.002 C 
ATOM     21  C   UNL     1      29.502 -23.596 -15.611  0.00  0.00    +0.000 C 
ENDBRANCH  11  16
ENDBRANCH   7  12
ENDBRANCH   1   7
BRANCH   2  22
ATOM     22  C   UNL     1      37.231 -21.087 -18.058  0.00  0.00    +0.048 C 
BRANCH  22  23
ATOM     23  C   UNL     1      36.438 -21.388 -19.336  0.00  0.00    +0.094 C 
BRANCH  23  25
ATOM     24  O   UNL     1      33.972 -20.499 -20.507  0.00  0.00    -0.269 OA
ATOM     25  N   UNL     1      36.246 -20.217 -20.149  0.00  0.00    -0.300 N 
ATOM     26  C   UNL     1      35.010 -19.864 -20.676  0.00  0.00    +0.261 C 
ATOM     27  H   UNL     1      37.023 -19.643 -20.340  0.00  0.00    +0.150 HD
BRANCH  26  30
ATOM     28  N   UNL     1      34.977 -17.460 -20.866  0.00  0.00    -0.262 NA
ATOM     29  N   UNL     1      34.945 -17.611 -23.667  0.00  0.00    -0.270 NA
ATOM     30  C   UNL     1      34.984 -18.640 -21.517  0.00  0.00    +0.132 C 
ATOM     31  C   UNL     1      34.968 -18.715 -22.892  0.00  0.00    +0.174 C 
ATOM     32  C   UNL     1      34.938 -16.431 -23.016  0.00  0.00    +0.057 C 
ATOM     33  C   UNL     1      34.954 -16.357 -21.640  0.00  0.00    +0.166 C 
ATOM     34  C   UNL     1      34.914 -15.191 -23.840  0.00  0.00    +0.049 C 
ENDBRANCH  26  30
ENDBRANCH  23  25
ENDBRANCH  22  23
ENDBRANCH   2  22
TORSDOF 7
ENDMDL
MODEL 8
REMARK VINA RESULT:     -10.9      2.615     11.076
REMARK  Name = 3478
REMARK  7 active torsions:
REMARK  status: ('A' for Active; 'I' for Inactive)
REMARK    1  A    between atoms: C_1  and  S_7
REMARK    2  A    between atoms: C_2  and  C_22
REMARK    3  A    between atoms: S_7  and  N_12
REMARK    4  A    between atoms: N_11  and  C_16
REMARK    5  A    between atoms: C_22  and  C_23
REMARK    6  A    between atoms: C_23  and  N_25
REMARK    7  A    between atoms: C_26  and  C_30
REMARK                            x       y       z     vdW  Elec       q    Type
REMARK                         _______ _______ _______ _____ _____    ______ ____
ROOT
ATOM      1  C   UNL     1      32.943 -12.904 -22.480  0.00  0.00    +0.125 C 
ATOM      2  C   UNL     1      31.715 -11.520 -20.393  0.00  0.00    -0.020 C 
ATOM      3  C   UNL     1      32.559 -11.575 -22.655  0.00  0.00    +0.020 C 
ATOM      4  C   UNL     1      32.714 -13.542 -21.261  0.00  0.00    +0.020 C 
ATOM      5  C   UNL     1      31.945 -10.883 -21.612  0.00  0.00    -0.003 C 
ATOM      6  C   UNL     1      32.099 -12.849 -20.217  0.00  0.00    -0.003 C 
ENDROOT
BRANCH   1   7
ATOM      7  S   UNL     1      33.722 -13.782 -23.802  0.00  0.00    +0.077 S 
ATOM      8  O   UNL     1      34.720 -12.912 -24.394  0.00  0.00    -0.150 OA
ATOM      9  O   UNL     1      32.660 -14.344 -24.615  0.00  0.00    -0.150 OA
BRANCH   7  12
ATOM     10  O   UNL     1      34.770 -16.567 -24.693  0.00  0.00    -0.251 OA
ATOM     11  N   UNL     1      35.529 -17.109 -22.578  0.00  0.00    -0.289 N 
ATOM     12  N   UNL     1      34.502 -15.039 -22.947  0.00  0.00    -0.169 N 
ATOM     13  C   UNL     1      34.928 -16.284 -23.509  0.00  0.00    +0.319 C 
ATOM     14  H   UNL     1      35.608 -16.789 -21.649  0.00  0.00    +0.151 HD
ATOM     15  H   UNL     1      34.672 -14.895 -21.987  0.00  0.00    +0.178 HD
BRANCH  11  16
ATOM     16  C   UNL     1      36.047 -18.418 -22.905  0.00  0.00    +0.073 C 
ATOM     17  C   UNL     1      34.965 -19.493 -22.757  0.00  0.00    +0.020 C 
ATOM     18  C   UNL     1      37.279 -18.750 -22.056  0.00  0.00    +0.020 C 
ATOM     19  C   UNL     1      34.615 -19.772 -21.295  0.00  0.00    +0.002 C 
ATOM     20  C   UNL     1      36.926 -19.030 -20.596  0.00  0.00    +0.002 C 
ATOM     21  C   UNL     1      35.855 -20.111 -20.473  0.00  0.00    +0.000 C 
ENDBRANCH  11  16
ENDBRANCH   7  12
ENDBRANCH   1   7
BRANCH   2  22
ATOM     22  C   UNL     1      31.059 -10.780 -19.276  0.00  0.00    +0.048 C 
BRANCH  22  23
ATOM     23  C   UNL     1      31.688  -9.410 -18.996  0.00  0.00    +0.094 C 
BRANCH  23  25
ATOM     24  O   UNL     1      33.173  -6.961 -19.202  0.00  0.00    -0.269 OA
ATOM     25  N   UNL     1      32.002  -8.695 -20.204  0.00  0.00    -0.300 N 
ATOM     26  C   UNL     1      32.730  -7.511 -20.207  0.00  0.00    +0.261 C 
ATOM     27  H   UNL     1      31.689  -9.060 -21.063  0.00  0.00    +0.150 HD
BRANCH  26  30
ATOM     28  N   UNL     1      33.940  -7.394 -22.290  0.00  0.00    -0.262 NA
ATOM     29  N   UNL     1      32.357  -5.251 -23.169  0.00  0.00    -0.270 NA
ATOM     30  C   UNL     1      32.948  -6.882 -21.535  0.00  0.00    +0.132 C 
ATOM     31  C   UNL     1      32.170  -5.830 -21.967  0.00  0.00    +0.174 C 
ATOM     32  C   UNL     1      33.349  -5.761 -23.925  0.00  0.00    +0.057 C 
ATOM     33  C   UNL     1      34.127  -6.815 -23.493  0.00  0.00    +0.166 C 
ATOM     34  C   UNL     1      33.584  -5.147 -25.261  0.00  0.00    +0.049 C 
ENDBRANCH  26  30
ENDBRANCH  23  25
ENDBRANCH  22  23
ENDBRANCH   2  22
TORSDOF 7
ENDMDL
MODEL 9
REMARK VINA RESULT:     -10.8      4.563     12.451
REMARK  Name = 3478
REMARK  7 active torsions:
REMARK  status: ('A' for Active; 'I' for Inactive)
REMARK    1  A    between atoms: C_1  and  S_7
REMARK    2  A    between atoms: C_2  and  C_22
REMARK    3  A    between atoms: S_7  and  N_12
REMARK    4  A    between atoms: N_11  and  C_16
REMARK    5  A    between atoms: C_22  and  C_23
REMARK    6  A    between atoms: C_23  and  N_25
REMARK    7  A    between atoms: C_26  and  C_30
REMARK                            x       y       z     vdW  Elec       q    Type
REMARK                         _______ _______ _______ _____ _____    ______ ____
ROOT
ATOM      1  C   UNL     1      34.425 -21.681 -19.376  0.00  0.00    +0.125 C 
ATOM      2  C   UNL     1      34.817 -19.594 -21.185  0.00  0.00    -0.020 C 
ATOM      3  C   UNL     1      33.328 -21.002 -19.907  0.00  0.00    +0.020 C 
ATOM      4  C   UNL     1      35.718 -21.317 -19.750  0.00  0.00    +0.020 C 
ATOM      5  C   UNL     1      33.524 -19.958 -20.810  0.00  0.00    -0.003 C 
ATOM      6  C   UNL     1      35.914 -20.272 -20.654  0.00  0.00    -0.003 C 
ENDROOT
BRANCH   1   7
ATOM      7  S   UNL     1      34.177 -23.004 -18.230  0.00  0.00    +0.077 S 
ATOM      8  O   UNL     1      35.099 -22.824 -17.126  0.00  0.00    -0.150 OA
ATOM      9  O   UNL     1      34.183 -24.233 -19.001  0.00  0.00    -0.150 OA
BRANCH   7  12
ATOM     10  O   UNL     1      32.841 -23.189 -15.433  0.00  0.00    -0.251 OA
ATOM     11  N   UNL     1      30.783 -22.489 -16.218  0.00  0.00    -0.289 N 
ATOM     12  N   UNL     1      32.585 -22.682 -17.698  0.00  0.00    -0.169 N 
ATOM     13  C   UNL     1      32.117 -22.819 -16.353  0.00  0.00    +0.319 C 
ATOM     14  H   UNL     1      30.287 -22.203 -17.020  0.00  0.00    +0.151 HD
ATOM     15  H   UNL     1      31.936 -22.376 -18.373  0.00  0.00    +0.178 HD
BRANCH  11  16
ATOM     16  C   UNL     1      30.082 -22.542 -14.955  0.00  0.00    +0.073 C 
ATOM     17  C   UNL     1      30.584 -23.707 -14.095  0.00  0.00    +0.020 C 
ATOM     18  C   UNL     1      28.567 -22.623 -15.169  0.00  0.00    +0.020 C 
ATOM     19  C   UNL     1      30.137 -25.066 -14.633  0.00  0.00    +0.002 C 
ATOM     20  C   UNL     1      28.123 -23.983 -15.706  0.00  0.00    +0.002 C 
ATOM     21  C   UNL     1      28.625 -25.126 -14.827  0.00  0.00    +0.000 C 
ENDBRANCH  11  16
ENDBRANCH   7  12
ENDBRANCH   1   7
BRANCH   2  22
ATOM     22  C   UNL     1      35.027 -18.478 -22.152  0.00  0.00    +0.048 C 
BRANCH  22  23
ATOM     23  C   UNL     1      35.697 -17.246 -21.529  0.00  0.00    +0.094 C 
BRANCH  23  25
ATOM     24  O   UNL     1      35.104 -14.971 -23.176  0.00  0.00    -0.269 OA
ATOM     25  N   UNL     1      34.753 -16.199 -21.240  0.00  0.00    -0.300 N 
ATOM     26  C   UNL     1      34.532 -15.131 -22.101  0.00  0.00    +0.261 C 
ATOM     27  H   UNL     1      34.244 -16.241 -20.398  0.00  0.00    +0.150 HD
BRANCH  26  30
ATOM     28  N   UNL     1      33.318 -13.081 -22.475  0.00  0.00    -0.262 NA
ATOM     29  N   UNL     1      31.997 -13.332 -20.013  0.00  0.00    -0.270 NA
ATOM     30  C   UNL     1      33.544 -14.119 -21.646  0.00  0.00    +0.132 C 
ATOM     31  C   UNL     1      32.895 -14.243 -20.437  0.00  0.00    +0.174 C 
ATOM     32  C   UNL     1      31.771 -12.293 -20.841  0.00  0.00    +0.057 C 
ATOM     33  C   UNL     1      32.420 -12.169 -22.051  0.00  0.00    +0.166 C 
ATOM     34  C   UNL     1      30.783 -11.267 -20.405  0.00  0.00    +0.049 C 
ENDBRANCH  26  30
ENDBRANCH  23  25
ENDBRANCH  22  23
ENDBRANCH   2  22
TORSDOF 7
ENDMDL
