MODEL 1
REMARK VINA RESULT:     -11.4      0.000      0.000
REMARK  Name = 4261
REMARK  8 active torsions:
REMARK  status: ('A' for Active; 'I' for Inactive)
REMARK    1  A    between atoms: C_1  and  C_20
REMARK    2  A    between atoms: C_2  and  C_9
REMARK    3  A    between atoms: N_8  and  C_11
REMARK    4  A    between atoms: C_12  and  N_17
REMARK    5  A    between atoms: C_20  and  N_22
REMARK    6  A    between atoms: C_23  and  O_25
REMARK    7  A    between atoms: O_25  and  C_26
REMARK    8  A    between atoms: C_26  and  C_28
REMARK                            x       y       z     vdW  Elec       q    Type
REMARK                         _______ _______ _______ _____ _____    ______ ____
ROOT
ATOM      1  C   UNL     1      35.074 -21.270 -19.608  0.00  0.00    -0.002 C 
ATOM      2  C   UNL     1      35.364 -22.494 -17.128  0.00  0.00    +0.054 C 
ATOM      3  C   UNL     1      33.976 -21.877 -19.008  0.00  0.00    -0.002 C 
ATOM      4  C   UNL     1      36.315 -21.269 -18.981  0.00  0.00    -0.002 C 
ATOM      5  C   UNL     1      34.122 -22.491 -17.764  0.00  0.00    +0.004 C 
ATOM      6  C   UNL     1      36.460 -21.882 -17.737  0.00  0.00    +0.004 C 
ENDROOT
BRANCH   2   9
ATOM      7  O   UNL     1      34.629 -22.983 -14.976  0.00  0.00    -0.270 OA
ATOM      8  N   UNL     1      36.672 -23.912 -15.666  0.00  0.00    -0.279 N 
ATOM      9  C   UNL     1      35.516 -23.135 -15.833  0.00  0.00    +0.250 C 
ATOM     10  H   UNL     1      37.284 -23.937 -16.436  0.00  0.00    +0.155 HD
BRANCH   8  11
ATOM     11  C   UNL     1      37.072 -24.664 -14.535  0.00  0.00    +0.064 C 
ATOM     12  C   UNL     1      36.967 -26.046 -14.540  0.00  0.00    +0.055 C 
ATOM     13  C   UNL     1      37.568 -23.984 -13.434  0.00  0.00    +0.016 C 
ATOM     14  C   UNL     1      37.368 -26.766 -13.414  0.00  0.00    +0.015 C 
ATOM     15  C   UNL     1      37.969 -24.704 -12.309  0.00  0.00    +0.001 C 
ATOM     16  C   UNL     1      37.868 -26.095 -12.299  0.00  0.00    +0.001 C 
BRANCH  12  17
ATOM     17  N   UNL     1      36.463 -26.747 -15.659  0.00  0.00    -0.356 N 
ATOM     18  H   UNL     1      36.085 -26.250 -16.420  0.00  0.00    +0.142 HD
ATOM     19  H   UNL     1      36.491 -27.730 -15.678  0.00  0.00    +0.142 HD
ENDBRANCH  12  17
ENDBRANCH   8  11
ENDBRANCH   2   9
BRANCH   1  20
ATOM     20  C   UNL     1      34.917 -20.608 -20.946  0.00  0.00    +0.119 C 
BRANCH  20  22
ATOM     21  O   UNL     1      36.758 -18.554 -21.856  0.00  0.00    -0.226 OA
ATOM     22  N   UNL     1      34.774 -19.175 -20.826  0.00  0.00    -0.267 N 
ATOM     23  C   UNL     1      35.706 -18.272 -21.291  0.00  0.00    +0.402 C 
ATOM     24  H   UNL     1      33.965 -18.824 -20.388  0.00  0.00    +0.153 HD
BRANCH  23  25
ATOM     25  O   UNL     1      35.285 -16.999 -21.029  0.00  0.00    -0.430 OA
BRANCH  25  26
ATOM     26  C   UNL     1      35.019 -16.180 -22.174  0.00  0.00    +0.238 C 
BRANCH  26  28
ATOM     27  N   UNL     1      32.706 -13.219 -22.456  0.00  0.00    -0.243 NA
ATOM     28  C   UNL     1      34.013 -15.131 -21.803  0.00  0.00    +0.040 C 
ATOM     29  C   UNL     1      33.477 -15.089 -20.527  0.00  0.00    +0.002 C 
ATOM     30  C   UNL     1      33.606 -14.190 -22.725  0.00  0.00    +0.098 C 
ATOM     31  C   UNL     1      32.547 -14.106 -20.212  0.00  0.00    +0.020 C 
ATOM     32  C   UNL     1      32.198 -13.202 -21.203  0.00  0.00    +0.099 C 
ENDBRANCH  26  28
ENDBRANCH  25  26
ENDBRANCH  23  25
ENDBRANCH  20  22
ENDBRANCH   1  20
TORSDOF 8
ENDMDL
MODEL 2
REMARK VINA RESULT:     -11.2      4.133     13.002
REMARK  Name = 4261
REMARK  8 active torsions:
REMARK  status: ('A' for Active; 'I' for Inactive)
REMARK    1  A    between atoms: C_1  and  C_20
REMARK    2  A    between atoms: C_2  and  C_9
REMARK    3  A    between atoms: N_8  and  C_11
REMARK    4  A    between atoms: C_12  and  N_17
REMARK    5  A    between atoms: C_20  and  N_22
REMARK    6  A    between atoms: C_23  and  O_25
REMARK    7  A    between atoms: O_25  and  C_26
REMARK    8  A    between atoms: C_26  and  C_28
REMARK                            x       y       z     vdW  Elec       q    Type
REMARK                         _______ _______ _______ _____ _____    ______ ____
ROOT
ATOM      1  C   UNL     1      33.962 -14.350 -22.843  0.00  0.00    -0.002 C 
ATOM      2  C   UNL     1      32.572 -12.064 -22.086  0.00  0.00    +0.054 C 
ATOM      3  C   UNL     1      34.137 -13.170 -23.558  0.00  0.00    -0.002 C 
ATOM      4  C   UNL     1      33.099 -14.399 -21.754  0.00  0.00    -0.002 C 
ATOM      5  C   UNL     1      33.440 -12.024 -23.177  0.00  0.00    +0.004 C 
ATOM      6  C   UNL     1      32.402 -13.253 -21.374  0.00  0.00    +0.004 C 
ENDROOT
BRANCH   2   9
ATOM      7  O   UNL     1      30.855 -10.983 -20.949  0.00  0.00    -0.270 OA
ATOM      8  N   UNL     1      32.353  -9.655 -22.175  0.00  0.00    -0.279 N 
ATOM      9  C   UNL     1      31.845 -10.870 -21.691  0.00  0.00    +0.250 C 
ATOM     10  H   UNL     1      33.146  -9.725 -22.754  0.00  0.00    +0.155 HD
BRANCH   8  11
ATOM     11  C   UNL     1      31.875  -8.344 -21.940  0.00  0.00    +0.064 C 
ATOM     12  C   UNL     1      32.192  -7.683 -20.764  0.00  0.00    +0.055 C 
ATOM     13  C   UNL     1      31.089  -7.745 -22.913  0.00  0.00    +0.016 C 
ATOM     14  C   UNL     1      31.709  -6.391 -20.555  0.00  0.00    +0.015 C 
ATOM     15  C   UNL     1      30.607  -6.454 -22.704  0.00  0.00    +0.001 C 
ATOM     16  C   UNL     1      30.916  -5.776 -21.525  0.00  0.00    +0.001 C 
BRANCH  12  17
ATOM     17  N   UNL     1      32.993  -8.285 -19.769  0.00  0.00    -0.356 N 
ATOM     18  H   UNL     1      32.766  -9.182 -19.431  0.00  0.00    +0.142 HD
ATOM     19  H   UNL     1      33.777  -7.809 -19.413  0.00  0.00    +0.142 HD
ENDBRANCH  12  17
ENDBRANCH   8  11
ENDBRANCH   2   9
BRANCH   1  20
ATOM     20  C   UNL     1      34.713 -15.584 -23.251  0.00  0.00    +0.119 C 
BRANCH  20  22
ATOM     21  O   UNL     1      35.203 -18.447 -23.268  0.00  0.00    -0.226 OA
ATOM     22  N   UNL     1      34.998 -16.441 -22.123  0.00  0.00    -0.267 N 
ATOM     23  C   UNL     1      35.219 -17.797 -22.229  0.00  0.00    +0.402 C 
ATOM     24  H   UNL     1      35.038 -16.032 -21.228  0.00  0.00    +0.153 HD
BRANCH  23  25
ATOM     25  O   UNL     1      35.461 -18.322 -20.990  0.00  0.00    -0.430 OA
BRANCH  25  26
ATOM     26  C   UNL     1      35.993 -19.652 -20.969  0.00  0.00    +0.238 C 
BRANCH  26  28
ATOM     27  N   UNL     1      32.854 -21.158 -19.528  0.00  0.00    -0.243 NA
ATOM     28  C   UNL     1      35.091 -20.527 -20.148  0.00  0.00    +0.040 C 
ATOM     29  C   UNL     1      35.621 -21.472 -19.287  0.00  0.00    +0.002 C 
ATOM     30  C   UNL     1      33.722 -20.403 -20.238  0.00  0.00    +0.098 C 
ATOM     31  C   UNL     1      34.761 -22.267 -18.539  0.00  0.00    +0.020 C 
ATOM     32  C   UNL     1      33.398 -22.074 -18.694  0.00  0.00    +0.099 C 
ENDBRANCH  26  28
ENDBRANCH  25  26
ENDBRANCH  23  25
ENDBRANCH  20  22
ENDBRANCH   1  20
TORSDOF 8
ENDMDL
MODEL 3
REMARK VINA RESULT:     -11.1      3.078      3.831
REMARK  Name = 4261
REMARK  8 active torsions:
REMARK  status: ('A' for Active; 'I' for Inactive)
REMARK    1  A    between atoms: C_1  and  C_20
REMARK    2  A    between atoms: C_2  and  C_9
REMARK    3  A    between atoms: N_8  and  C_11
REMARK    4  A    between atoms: C_12  and  N_17
REMARK    5  A    between atoms: C_20  and  N_22
REMARK    6  A    between atoms: C_23  and  O_25
REMARK    7  A    between atoms: O_25  and  C_26
REMARK    8  A    between atoms: C_26  and  C_28
REMARK                            x       y       z     vdW  Elec       q    Type
REMARK                         _______ _______ _______ _____ _____    ______ ____
ROOT
ATOM      1  C   UNL     1      35.026 -20.169 -20.513  0.00  0.00    -0.002 C 
ATOM      2  C   UNL     1      33.936 -22.046 -18.774  0.00  0.00    +0.054 C 
ATOM      3  C   UNL     1      33.646 -20.254 -20.369  0.00  0.00    -0.002 C 
ATOM      4  C   UNL     1      35.867 -21.013 -19.796  0.00  0.00    -0.002 C 
ATOM      5  C   UNL     1      33.100 -21.195 -19.497  0.00  0.00    +0.004 C 
ATOM      6  C   UNL     1      35.321 -21.954 -18.924  0.00  0.00    +0.004 C 
ENDROOT
BRANCH   2   9
ATOM      7  O   UNL     1      33.521 -24.235 -18.109  0.00  0.00    -0.270 OA
ATOM      8  N   UNL     1      32.693 -22.510 -16.750  0.00  0.00    -0.279 N 
ATOM      9  C   UNL     1      33.367 -23.027 -17.866  0.00  0.00    +0.250 C 
ATOM     10  H   UNL     1      32.653 -21.528 -16.693  0.00  0.00    +0.155 HD
BRANCH   8  11
ATOM     11  C   UNL     1      32.066 -23.215 -15.695  0.00  0.00    +0.064 C 
ATOM     12  C   UNL     1      30.685 -23.322 -15.648  0.00  0.00    +0.055 C 
ATOM     13  C   UNL     1      32.866 -23.789 -14.719  0.00  0.00    +0.016 C 
ATOM     14  C   UNL     1      30.090 -24.022 -14.597  0.00  0.00    +0.015 C 
ATOM     15  C   UNL     1      32.271 -24.488 -13.670  0.00  0.00    +0.001 C 
ATOM     16  C   UNL     1      30.882 -24.604 -13.609  0.00  0.00    +0.001 C 
BRANCH  12  17
ATOM     17  N   UNL     1      29.862 -22.741 -16.638  0.00  0.00    -0.356 N 
ATOM     18  H   UNL     1      30.126 -22.789 -17.586  0.00  0.00    +0.142 HD
ATOM     19  H   UNL     1      29.027 -22.289 -16.381  0.00  0.00    +0.142 HD
ENDBRANCH  12  17
ENDBRANCH   8  11
ENDBRANCH   2   9
BRANCH   1  20
ATOM     20  C   UNL     1      35.615 -19.156 -21.451  0.00  0.00    +0.119 C 
BRANCH  20  22
ATOM     21  O   UNL     1      34.910 -16.852 -23.072  0.00  0.00    -0.226 OA
ATOM     22  N   UNL     1      35.368 -17.802 -21.007  0.00  0.00    -0.267 N 
ATOM     23  C   UNL     1      35.037 -16.768 -21.856  0.00  0.00    +0.402 C 
ATOM     24  H   UNL     1      35.440 -17.609 -20.044  0.00  0.00    +0.153 HD
BRANCH  23  25
ATOM     25  O   UNL     1      34.869 -15.618 -21.136  0.00  0.00    -0.430 OA
BRANCH  25  26
ATOM     26  C   UNL     1      33.578 -15.436 -20.542  0.00  0.00    +0.238 C 
BRANCH  26  28
ATOM     27  N   UNL     1      32.918 -12.340 -22.587  0.00  0.00    -0.243 NA
ATOM     28  C   UNL     1      33.039 -14.094 -20.944  0.00  0.00    +0.040 C 
ATOM     29  C   UNL     1      32.205 -13.388 -20.095  0.00  0.00    +0.002 C 
ATOM     30  C   UNL     1      33.367 -13.543 -22.164  0.00  0.00    +0.098 C 
ATOM     31  C   UNL     1      31.722 -12.147 -20.494  0.00  0.00    +0.020 C 
ATOM     32  C   UNL     1      32.104 -11.671 -21.738  0.00  0.00    +0.099 C 
ENDBRANCH  26  28
ENDBRANCH  25  26
ENDBRANCH  23  25
ENDBRANCH  20  22
ENDBRANCH   1  20
TORSDOF 8
ENDMDL
MODEL 4
REMARK VINA RESULT:     -11.1      1.678      2.062
REMARK  Name = 4261
REMARK  8 active torsions:
REMARK  status: ('A' for Active; 'I' for Inactive)
REMARK    1  A    between atoms: C_1  and  C_20
REMARK    2  A    between atoms: C_2  and  C_9
REMARK    3  A    between atoms: N_8  and  C_11
REMARK    4  A    between atoms: C_12  and  N_17
REMARK    5  A    between atoms: C_20  and  N_22
REMARK    6  A    between atoms: C_23  and  O_25
REMARK    7  A    between atoms: O_25  and  C_26
REMARK    8  A    between atoms: C_26  and  C_28
REMARK                            x       y       z     vdW  Elec       q    Type
REMARK                         _______ _______ _______ _____ _____    ______ ____
ROOT
ATOM      1  C   UNL     1      35.066 -21.221 -19.532  0.00  0.00    -0.002 C 
ATOM      2  C   UNL     1      36.212 -22.245 -17.214  0.00  0.00    +0.054 C 
ATOM      3  C   UNL     1      34.281 -21.937 -18.635  0.00  0.00    -0.002 C 
ATOM      4  C   UNL     1      36.417 -21.011 -19.282  0.00  0.00    -0.002 C 
ATOM      5  C   UNL     1      34.856 -22.450 -17.473  0.00  0.00    +0.004 C 
ATOM      6  C   UNL     1      36.992 -21.525 -18.120  0.00  0.00    +0.004 C 
ENDROOT
BRANCH   2   9
ATOM      7  O   UNL     1      37.614 -22.082 -15.367  0.00  0.00    -0.270 OA
ATOM      8  N   UNL     1      36.399 -24.071 -15.637  0.00  0.00    -0.279 N 
ATOM      9  C   UNL     1      36.811 -22.781 -16.004  0.00  0.00    +0.250 C 
ATOM     10  H   UNL     1      35.754 -24.503 -16.243  0.00  0.00    +0.155 HD
BRANCH   8  11
ATOM     11  C   UNL     1      36.787 -24.833 -14.508  0.00  0.00    +0.064 C 
ATOM     12  C   UNL     1      36.855 -26.215 -14.585  0.00  0.00    +0.055 C 
ATOM     13  C   UNL     1      37.096 -24.161 -13.336  0.00  0.00    +0.016 C 
ATOM     14  C   UNL     1      37.240 -26.943 -13.459  0.00  0.00    +0.015 C 
ATOM     15  C   UNL     1      37.481 -24.889 -12.211  0.00  0.00    +0.001 C 
ATOM     16  C   UNL     1      37.553 -26.281 -12.273  0.00  0.00    +0.001 C 
BRANCH  12  17
ATOM     17  N   UNL     1      36.543 -26.907 -15.777  0.00  0.00    -0.356 N 
ATOM     18  H   UNL     1      36.936 -27.792 -15.948  0.00  0.00    +0.142 HD
ATOM     19  H   UNL     1      35.933 -26.503 -16.435  0.00  0.00    +0.142 HD
ENDBRANCH  12  17
ENDBRANCH   8  11
ENDBRANCH   2   9
BRANCH   1  20
ATOM     20  C   UNL     1      34.447 -20.666 -20.782  0.00  0.00    +0.119 C 
BRANCH  20  22
ATOM     21  O   UNL     1      34.744 -19.679 -23.497  0.00  0.00    -0.226 OA
ATOM     22  N   UNL     1      35.102 -19.454 -21.217  0.00  0.00    -0.267 N 
ATOM     23  C   UNL     1      35.193 -19.065 -22.536  0.00  0.00    +0.402 C 
ATOM     24  H   UNL     1      35.505 -18.872 -20.532  0.00  0.00    +0.153 HD
BRANCH  23  25
ATOM     25  O   UNL     1      35.867 -17.879 -22.621  0.00  0.00    -0.430 OA
BRANCH  25  26
ATOM     26  C   UNL     1      35.134 -16.714 -22.224  0.00  0.00    +0.238 C 
BRANCH  26  28
ATOM     27  N   UNL     1      34.428 -15.960 -25.848  0.00  0.00    -0.243 NA
ATOM     28  C   UNL     1      34.596 -16.034 -23.449  0.00  0.00    +0.040 C 
ATOM     29  C   UNL     1      33.806 -14.903 -23.337  0.00  0.00    +0.002 C 
ATOM     30  C   UNL     1      34.880 -16.524 -24.706  0.00  0.00    +0.098 C 
ATOM     31  C   UNL     1      33.323 -14.295 -24.488  0.00  0.00    +0.020 C 
ATOM     32  C   UNL     1      33.658 -14.857 -25.710  0.00  0.00    +0.099 C 
ENDBRANCH  26  28
ENDBRANCH  25  26
ENDBRANCH  23  25
ENDBRANCH  20  22
ENDBRANCH   1  20
TORSDOF 8
ENDMDL
MODEL 5
REMARK VINA RESULT:     -10.6      3.451      9.907
REMARK  Name = 4261
REMARK  8 active torsions:
REMARK  status: ('A' for Active; 'I' for Inactive)
REMARK    1  A    between atoms: C_1  and  C_20
REMARK    2  A    between atoms: C_2  and  C_9
REMARK    3  A    between atoms: N_8  and  C_11
REMARK    4  A    between atoms: C_12  and  N_17
REMARK    5  A    between atoms: C_20  and  N_22
REMARK    6  A    between atoms: C_23  and  O_25
REMARK    7  A    between atoms: O_25  and  C_26
REMARK    8  A    between atoms: C_26  and  C_28
REMARK                            x       y       z     vdW  Elec       q    Type
REMARK                         _______ _______ _______ _____ _____    ______ ____
ROOT
ATOM      1  C   UNL     1      34.748 -22.994 -16.819  0.00  0.00    -0.002 C 
ATOM      2  C   UNL     1      34.157 -21.448 -19.053  0.00  0.00    +0.054 C 
ATOM      3  C   UNL     1      33.428 -22.861 -17.234  0.00  0.00    -0.002 C 
ATOM      4  C   UNL     1      35.775 -22.361 -17.509  0.00  0.00    -0.002 C 
ATOM      5  C   UNL     1      33.132 -22.086 -18.355  0.00  0.00    +0.004 C 
ATOM      6  C   UNL     1      35.479 -21.586 -18.630  0.00  0.00    +0.004 C 
ENDROOT
BRANCH   2   9
ATOM      7  O   UNL     1      32.671 -20.566 -20.609  0.00  0.00    -0.270 OA
ATOM      8  N   UNL     1      34.933 -19.973 -20.809  0.00  0.00    -0.279 N 
ATOM      9  C   UNL     1      33.847 -20.639 -20.220  0.00  0.00    +0.250 C 
ATOM     10  H   UNL     1      35.809 -20.128 -20.387  0.00  0.00    +0.155 HD
BRANCH   8  11
ATOM     11  C   UNL     1      34.933 -19.105 -21.927  0.00  0.00    +0.064 C 
ATOM     12  C   UNL     1      35.121 -17.743 -21.758  0.00  0.00    +0.055 C 
ATOM     13  C   UNL     1      34.742 -19.655 -23.186  0.00  0.00    +0.016 C 
ATOM     14  C   UNL     1      35.117 -16.908 -22.876  0.00  0.00    +0.015 C 
ATOM     15  C   UNL     1      34.739 -18.820 -24.303  0.00  0.00    +0.001 C 
ATOM     16  C   UNL     1      34.926 -17.447 -24.148  0.00  0.00    +0.001 C 
BRANCH  12  17
ATOM     17  N   UNL     1      35.317 -17.176 -20.478  0.00  0.00    -0.356 N 
ATOM     18  H   UNL     1      35.973 -16.453 -20.357  0.00  0.00    +0.142 HD
ATOM     19  H   UNL     1      34.797 -17.504 -19.710  0.00  0.00    +0.142 HD
ENDBRANCH  12  17
ENDBRANCH   8  11
ENDBRANCH   2   9
BRANCH   1  20
ATOM     20  C   UNL     1      35.067 -23.829 -15.613  0.00  0.00    +0.119 C 
BRANCH  20  22
ATOM     21  O   UNL     1      35.043 -24.003 -12.714  0.00  0.00    -0.226 OA
ATOM     22  N   UNL     1      33.923 -23.984 -14.745  0.00  0.00    -0.267 N 
ATOM     23  C   UNL     1      34.009 -24.058 -13.371  0.00  0.00    +0.402 C 
ATOM     24  H   UNL     1      33.031 -24.041 -15.159  0.00  0.00    +0.153 HD
BRANCH  23  25
ATOM     25  O   UNL     1      32.759 -24.203 -12.839  0.00  0.00    -0.430 OA
BRANCH  25  26
ATOM     26  C   UNL     1      31.939 -25.215 -13.435  0.00  0.00    +0.238 C 
BRANCH  26  28
ATOM     27  N   UNL     1      28.686 -24.799 -15.292  0.00  0.00    -0.243 NA
ATOM     28  C   UNL     1      30.767 -24.561 -14.108  0.00  0.00    +0.040 C 
ATOM     29  C   UNL     1      30.673 -23.182 -14.175  0.00  0.00    +0.002 C 
ATOM     30  C   UNL     1      29.766 -25.324 -14.671  0.00  0.00    +0.098 C 
ATOM     31  C   UNL     1      29.577 -22.606 -14.805  0.00  0.00    +0.020 C 
ATOM     32  C   UNL     1      28.619 -23.450 -15.343  0.00  0.00    +0.099 C 
ENDBRANCH  26  28
ENDBRANCH  25  26
ENDBRANCH  23  25
ENDBRANCH  20  22
ENDBRANCH   1  20
TORSDOF 8
ENDMDL
MODEL 6
REMARK VINA RESULT:     -10.5      4.308      7.334
REMARK  Name = 4261
REMARK  8 active torsions:
REMARK  status: ('A' for Active; 'I' for Inactive)
REMARK    1  A    between atoms: C_1  and  C_20
REMARK    2  A    between atoms: C_2  and  C_9
REMARK    3  A    between atoms: N_8  and  C_11
REMARK    4  A    between atoms: C_12  and  N_17
REMARK    5  A    between atoms: C_20  and  N_22
REMARK    6  A    between atoms: C_23  and  O_25
REMARK    7  A    between atoms: O_25  and  C_26
REMARK    8  A    between atoms: C_26  and  C_28
REMARK                            x       y       z     vdW  Elec       q    Type
REMARK                         _______ _______ _______ _____ _____    ______ ____
ROOT
ATOM      1  C   UNL     1      34.155 -14.801 -23.971  0.00  0.00    -0.002 C 
ATOM      2  C   UNL     1      35.120 -17.045 -22.644  0.00  0.00    +0.054 C 
ATOM      3  C   UNL     1      34.530 -15.924 -24.701  0.00  0.00    -0.002 C 
ATOM      4  C   UNL     1      34.258 -14.789 -22.585  0.00  0.00    -0.002 C 
ATOM      5  C   UNL     1      35.013 -17.049 -24.035  0.00  0.00    +0.004 C 
ATOM      6  C   UNL     1      34.741 -15.914 -21.919  0.00  0.00    +0.004 C 
ENDROOT
BRANCH   2   9
ATOM      7  O   UNL     1      36.824 -18.519 -22.066  0.00  0.00    -0.270 OA
ATOM      8  N   UNL     1      34.693 -18.915 -21.167  0.00  0.00    -0.279 N 
ATOM      9  C   UNL     1      35.625 -18.218 -21.950  0.00  0.00    +0.250 C 
ATOM     10  H   UNL     1      33.776 -18.556 -21.173  0.00  0.00    +0.155 HD
BRANCH   8  11
ATOM     11  C   UNL     1      34.898 -20.066 -20.369  0.00  0.00    +0.064 C 
ATOM     12  C   UNL     1      33.817 -20.796 -19.901  0.00  0.00    +0.055 C 
ATOM     13  C   UNL     1      36.200 -20.438 -20.072  0.00  0.00    +0.016 C 
ATOM     14  C   UNL     1      34.044 -21.927 -19.115  0.00  0.00    +0.015 C 
ATOM     15  C   UNL     1      36.427 -21.568 -19.287  0.00  0.00    +0.001 C 
ATOM     16  C   UNL     1      35.349 -22.312 -18.809  0.00  0.00    +0.001 C 
BRANCH  12  17
ATOM     17  N   UNL     1      32.487 -20.424 -20.200  0.00  0.00    -0.356 N 
ATOM     18  H   UNL     1      32.279 -19.493 -20.441  0.00  0.00    +0.142 HD
ATOM     19  H   UNL     1      31.769 -21.096 -20.167  0.00  0.00    +0.142 HD
ENDBRANCH  12  17
ENDBRANCH   8  11
ENDBRANCH   2   9
BRANCH   1  20
ATOM     20  C   UNL     1      33.633 -13.589 -24.688  0.00  0.00    +0.119 C 
BRANCH  20  22
ATOM     21  O   UNL     1      34.859 -10.993 -25.129  0.00  0.00    -0.226 OA
ATOM     22  N   UNL     1      33.587 -12.430 -23.826  0.00  0.00    -0.267 N 
ATOM     23  C   UNL     1      34.203 -11.233 -24.121  0.00  0.00    +0.402 C 
ATOM     24  H   UNL     1      33.087 -12.500 -22.981  0.00  0.00    +0.153 HD
BRANCH  23  25
ATOM     25  O   UNL     1      33.976 -10.338 -23.114  0.00  0.00    -0.430 OA
BRANCH  25  26
ATOM     26  C   UNL     1      32.633  -9.854 -22.999  0.00  0.00    +0.238 C 
BRANCH  26  28
ATOM     27  N   UNL     1      31.970  -9.026 -19.383  0.00  0.00    -0.243 NA
ATOM     28  C   UNL     1      32.182  -9.996 -21.574  0.00  0.00    +0.040 C 
ATOM     29  C   UNL     1      31.588 -11.167 -21.138  0.00  0.00    +0.002 C 
ATOM     30  C   UNL     1      32.353  -8.963 -20.678  0.00  0.00    +0.098 C 
ATOM     31  C   UNL     1      31.181 -11.270 -19.813  0.00  0.00    +0.020 C 
ATOM     32  C   UNL     1      31.392 -10.181 -18.983  0.00  0.00    +0.099 C 
ENDBRANCH  26  28
ENDBRANCH  25  26
ENDBRANCH  23  25
ENDBRANCH  20  22
ENDBRANCH   1  20
TORSDOF 8
ENDMDL
MODEL 7
REMARK VINA RESULT:     -10.5      3.138     10.180
REMARK  Name = 4261
REMARK  8 active torsions:
REMARK  status: ('A' for Active; 'I' for Inactive)
REMARK    1  A    between atoms: C_1  and  C_20
REMARK    2  A    between atoms: C_2  and  C_9
REMARK    3  A    between atoms: N_8  and  C_11
REMARK    4  A    between atoms: C_12  and  N_17
REMARK    5  A    between atoms: C_20  and  N_22
REMARK    6  A    between atoms: C_23  and  O_25
REMARK    7  A    between atoms: O_25  and  C_26
REMARK    8  A    between atoms: C_26  and  C_28
REMARK                            x       y       z     vdW  Elec       q    Type
REMARK                         _______ _______ _______ _____ _____    ______ ____
ROOT
ATOM      1  C   UNL     1      34.373 -22.300 -18.913  0.00  0.00    -0.002 C 
ATOM      2  C   UNL     1      35.178 -20.128 -20.452  0.00  0.00    +0.054 C 
ATOM      3  C   UNL     1      33.416 -21.482 -19.504  0.00  0.00    -0.002 C 
ATOM      4  C   UNL     1      35.728 -22.042 -19.084  0.00  0.00    -0.002 C 
ATOM      5  C   UNL     1      33.820 -20.394 -20.275  0.00  0.00    +0.004 C 
ATOM      6  C   UNL     1      36.132 -20.954 -19.856  0.00  0.00    +0.004 C 
ENDROOT
BRANCH   2   9
ATOM      7  O   UNL     1      36.808 -18.828 -21.482  0.00  0.00    -0.270 OA
ATOM      8  N   UNL     1      34.570 -18.170 -21.739  0.00  0.00    -0.279 N 
ATOM      9  C   UNL     1      35.599 -18.992 -21.255  0.00  0.00    +0.250 C 
ATOM     10  H   UNL     1      33.657 -18.428 -21.475  0.00  0.00    +0.155 HD
BRANCH   8  11
ATOM     11  C   UNL     1      34.673 -17.020 -22.558  0.00  0.00    +0.064 C 
ATOM     12  C   UNL     1      34.565 -15.754 -22.004  0.00  0.00    +0.055 C 
ATOM     13  C   UNL     1      34.883 -17.196 -23.917  0.00  0.00    +0.016 C 
ATOM     14  C   UNL     1      34.669 -14.635 -22.832  0.00  0.00    +0.015 C 
ATOM     15  C   UNL     1      34.987 -16.078 -24.743  0.00  0.00    +0.001 C 
ATOM     16  C   UNL     1      34.880 -14.798 -24.201  0.00  0.00    +0.001 C 
BRANCH  12  17
ATOM     17  N   UNL     1      34.351 -15.566 -20.620  0.00  0.00    -0.356 N 
ATOM     18  H   UNL     1      35.113 -15.597 -19.997  0.00  0.00    +0.142 HD
ATOM     19  H   UNL     1      33.442 -15.406 -20.280  0.00  0.00    +0.142 HD
ENDBRANCH  12  17
ENDBRANCH   8  11
ENDBRANCH   2   9
BRANCH   1  20
ATOM     20  C   UNL     1      33.939 -23.472 -18.083  0.00  0.00    +0.119 C 
BRANCH  20  22
ATOM     21  O   UNL     1      34.959 -24.022 -15.420  0.00  0.00    -0.226 OA
ATOM     22  N   UNL     1      33.377 -23.060 -16.817  0.00  0.00    -0.267 N 
ATOM     23  C   UNL     1      33.935 -23.370 -15.596  0.00  0.00    +0.402 C 
ATOM     24  H   UNL     1      32.549 -22.528 -16.828  0.00  0.00    +0.153 HD
BRANCH  23  25
ATOM     25  O   UNL     1      33.173 -22.840 -14.593  0.00  0.00    -0.430 OA
BRANCH  25  26
ATOM     26  C   UNL     1      32.371 -23.771 -13.858  0.00  0.00    +0.238 C 
BRANCH  26  28
ATOM     27  N   UNL     1      29.100 -25.072 -15.202  0.00  0.00    -0.243 NA
ATOM     28  C   UNL     1      30.987 -23.790 -14.437  0.00  0.00    +0.040 C 
ATOM     29  C   UNL     1      30.333 -22.608 -14.737  0.00  0.00    +0.002 C 
ATOM     30  C   UNL     1      30.345 -24.985 -14.681  0.00  0.00    +0.098 C 
ATOM     31  C   UNL     1      29.052 -22.657 -15.273  0.00  0.00    +0.020 C 
ATOM     32  C   UNL     1      28.484 -23.903 -15.485  0.00  0.00    +0.099 C 
ENDBRANCH  26  28
ENDBRANCH  25  26
ENDBRANCH  23  25
ENDBRANCH  20  22
ENDBRANCH   1  20
TORSDOF 8
ENDMDL
MODEL 8
REMARK VINA RESULT:     -10.4      3.306      4.103
REMARK  Name = 4261
REMARK  8 active torsions:
REMARK  status: ('A' for Active; 'I' for Inactive)
REMARK    1  A    between atoms: C_1  and  C_20
REMARK    2  A    between atoms: C_2  and  C_9
REMARK    3  A    between atoms: N_8  and  C_11
REMARK    4  A    between atoms: C_12  and  N_17
REMARK    5  A    between atoms: C_20  and  N_22
REMARK    6  A    between atoms: C_23  and  O_25
REMARK    7  A    between atoms: O_25  and  C_26
REMARK    8  A    between atoms: C_26  and  C_28
REMARK                            x       y       z     vdW  Elec       q    Type
REMARK                         _______ _______ _______ _____ _____    ______ ____
ROOT
ATOM      1  C   UNL     1      35.750 -20.586 -19.839  0.00  0.00    -0.002 C 
ATOM      2  C   UNL     1      34.232 -22.369 -18.338  0.00  0.00    +0.054 C 
ATOM      3  C   UNL     1      34.375 -20.657 -20.038  0.00  0.00    -0.002 C 
ATOM      4  C   UNL     1      36.372 -21.398 -18.897  0.00  0.00    -0.002 C 
ATOM      5  C   UNL     1      33.615 -21.551 -19.285  0.00  0.00    +0.004 C 
ATOM      6  C   UNL     1      35.612 -22.292 -18.145  0.00  0.00    +0.004 C 
ENDROOT
BRANCH   2   9
ATOM      7  O   UNL     1      33.331 -24.476 -17.943  0.00  0.00    -0.270 OA
ATOM      8  N   UNL     1      32.868 -22.785 -16.383  0.00  0.00    -0.279 N 
ATOM      9  C   UNL     1      33.439 -23.302 -17.555  0.00  0.00    +0.250 C 
ATOM     10  H   UNL     1      33.042 -21.833 -16.206  0.00  0.00    +0.155 HD
BRANCH   8  11
ATOM     11  C   UNL     1      32.075 -23.455 -15.419  0.00  0.00    +0.064 C 
ATOM     12  C   UNL     1      30.693 -23.417 -15.501  0.00  0.00    +0.055 C 
ATOM     13  C   UNL     1      32.718 -24.143 -14.402  0.00  0.00    +0.016 C 
ATOM     14  C   UNL     1      29.933 -24.085 -14.540  0.00  0.00    +0.015 C 
ATOM     15  C   UNL     1      31.959 -24.810 -13.441  0.00  0.00    +0.001 C 
ATOM     16  C   UNL     1      30.566 -24.781 -13.510  0.00  0.00    +0.001 C 
BRANCH  12  17
ATOM     17  N   UNL     1      30.030 -22.719 -16.536  0.00  0.00    -0.356 N 
ATOM     18  H   UNL     1      30.169 -21.751 -16.642  0.00  0.00    +0.142 HD
ATOM     19  H   UNL     1      29.431 -23.201 -17.149  0.00  0.00    +0.142 HD
ENDBRANCH  12  17
ENDBRANCH   8  11
ENDBRANCH   2   9
BRANCH   1  20
ATOM     20  C   UNL     1      36.569 -19.623 -20.648  0.00  0.00    +0.119 C 
BRANCH  20  22
ATOM     21  O   UNL     1      35.385 -19.682 -23.299  0.00  0.00    -0.226 OA
ATOM     22  N   UNL     1      35.749 -18.611 -21.274  0.00  0.00    -0.267 N 
ATOM     23  C   UNL     1      35.229 -18.728 -22.545  0.00  0.00    +0.402 C 
ATOM     24  H   UNL     1      35.552 -17.792 -20.764  0.00  0.00    +0.153 HD
BRANCH  23  25
ATOM     25  O   UNL     1      34.502 -17.611 -22.849  0.00  0.00    -0.430 OA
BRANCH  25  26
ATOM     26  C   UNL     1      35.249 -16.395 -22.978  0.00  0.00    +0.238 C 
BRANCH  26  28
ATOM     27  N   UNL     1      33.877 -15.209 -26.281  0.00  0.00    -0.243 NA
ATOM     28  C   UNL     1      34.589 -15.521 -24.004  0.00  0.00    +0.040 C 
ATOM     29  C   UNL     1      34.100 -14.274 -23.657  0.00  0.00    +0.002 C 
ATOM     30  C   UNL     1      34.459 -15.946 -25.309  0.00  0.00    +0.098 C 
ATOM     31  C   UNL     1      33.494 -13.487 -24.629  0.00  0.00    +0.020 C 
ATOM     32  C   UNL     1      33.407 -13.995 -25.915  0.00  0.00    +0.099 C 
ENDBRANCH  26  28
ENDBRANCH  25  26
ENDBRANCH  23  25
ENDBRANCH  20  22
ENDBRANCH   1  20
TORSDOF 8
ENDMDL
MODEL 9
REMARK VINA RESULT:     -10.4      6.458     15.059
REMARK  Name = 4261
REMARK  8 active torsions:
REMARK  status: ('A' for Active; 'I' for Inactive)
REMARK    1  A    between atoms: C_1  and  C_20
REMARK    2  A    between atoms: C_2  and  C_9
REMARK    3  A    between atoms: N_8  and  C_11
REMARK    4  A    between atoms: C_12  and  N_17
REMARK    5  A    between atoms: C_20  and  N_22
REMARK    6  A    between atoms: C_23  and  O_25
REMARK    7  A    between atoms: O_25  and  C_26
REMARK    8  A    between atoms: C_26  and  C_28
REMARK                            x       y       z     vdW  Elec       q    Type
REMARK                         _______ _______ _______ _____ _____    ______ ____
ROOT
ATOM      1  C   UNL     1      31.852 -11.393 -20.471  0.00  0.00    -0.002 C 
ATOM      2  C   UNL     1      32.065  -8.685 -21.062  0.00  0.00    +0.054 C 
ATOM      3  C   UNL     1      31.889 -10.464 -19.437  0.00  0.00    -0.002 C 
ATOM      4  C   UNL     1      31.921 -10.982 -21.797  0.00  0.00    -0.002 C 
ATOM      5  C   UNL     1      31.995  -9.106 -19.734  0.00  0.00    +0.004 C 
ATOM      6  C   UNL     1      32.027  -9.624 -22.094  0.00  0.00    +0.004 C 
ENDROOT
BRANCH   2   9
ATOM      7  O   UNL     1      32.608  -6.494 -20.502  0.00  0.00    -0.270 OA
ATOM      8  N   UNL     1      31.802  -6.894 -22.670  0.00  0.00    -0.279 N 
ATOM      9  C   UNL     1      32.177  -7.269 -21.371  0.00  0.00    +0.250 C 
ATOM     10  H   UNL     1      31.479  -7.622 -23.248  0.00  0.00    +0.155 HD
BRANCH   8  11
ATOM     11  C   UNL     1      31.827  -5.607 -23.258  0.00  0.00    +0.064 C 
ATOM     12  C   UNL     1      31.048  -4.584 -22.740  0.00  0.00    +0.055 C 
ATOM     13  C   UNL     1      32.648  -5.401 -24.356  0.00  0.00    +0.016 C 
ATOM     14  C   UNL     1      31.090  -3.324 -23.337  0.00  0.00    +0.015 C 
ATOM     15  C   UNL     1      32.690  -4.141 -24.952  0.00  0.00    +0.001 C 
ATOM     16  C   UNL     1      31.911  -3.102 -24.442  0.00  0.00    +0.001 C 
BRANCH  12  17
ATOM     17  N   UNL     1      30.210  -4.786 -21.620  0.00  0.00    -0.356 N 
ATOM     18  H   UNL     1      30.487  -5.403 -20.905  0.00  0.00    +0.142 HD
ATOM     19  H   UNL     1      29.352  -4.310 -21.556  0.00  0.00    +0.142 HD
ENDBRANCH  12  17
ENDBRANCH   8  11
ENDBRANCH   2   9
BRANCH   1  20
ATOM     20  C   UNL     1      31.736 -12.855 -20.151  0.00  0.00    +0.119 C 
BRANCH  20  22
ATOM     21  O   UNL     1      34.377 -13.991 -20.563  0.00  0.00    -0.226 OA
ATOM     22  N   UNL     1      32.183 -13.685 -21.247  0.00  0.00    -0.267 N 
ATOM     23  C   UNL     1      33.464 -14.181 -21.358  0.00  0.00    +0.402 C 
ATOM     24  H   UNL     1      31.535 -13.908 -21.954  0.00  0.00    +0.153 HD
BRANCH  23  25
ATOM     25  O   UNL     1      33.572 -14.925 -22.499  0.00  0.00    -0.430 OA
BRANCH  25  26
ATOM     26  C   UNL     1      34.888 -15.392 -22.818  0.00  0.00    +0.238 C 
BRANCH  26  28
ATOM     27  N   UNL     1      35.223 -18.615 -20.895  0.00  0.00    -0.243 NA
ATOM     28  C   UNL     1      34.971 -16.861 -22.523  0.00  0.00    +0.040 C 
ATOM     29  C   UNL     1      34.881 -17.791 -23.544  0.00  0.00    +0.002 C 
ATOM     30  C   UNL     1      35.140 -17.308 -21.230  0.00  0.00    +0.098 C 
ATOM     31  C   UNL     1      34.963 -19.144 -23.240  0.00  0.00    +0.020 C 
ATOM     32  C   UNL     1      35.132 -19.502 -21.912  0.00  0.00    +0.099 C 
ENDBRANCH  26  28
ENDBRANCH  25  26
ENDBRANCH  23  25
ENDBRANCH  20  22
ENDBRANCH   1  20
TORSDOF 8
ENDMDL
