MODEL 1
REMARK VINA RESULT:     -11.1      0.000      0.000
REMARK  Name = 25113614
REMARK  7 active torsions:
REMARK  status: ('A' for Active; 'I' for Inactive)
REMARK    1  A    between atoms: C_3  and  C_10
REMARK    2  A    between atoms: C_7  and  C_25
REMARK    3  A    between atoms: N_9  and  C_12
REMARK    4  A    between atoms: C_12  and  C_13
REMARK    5  A    between atoms: C_18  and  C_21
REMARK    6  A    between atoms: C_25  and  N_26
REMARK    7  A    between atoms: N_26  and  C_29
REMARK                            x       y       z     vdW  Elec       q    Type
REMARK                         _______ _______ _______ _____ _____    ______ ____
ROOT
ATOM      1  O   UNL     1      35.565 -25.366 -11.517  0.00  0.00    -0.277 OA
ATOM      2  N   UNL     1      36.276 -24.230 -13.399  0.00  0.00    -0.275 N 
ATOM      3  C   UNL     1      36.149 -23.200 -14.427  0.00  0.00    +0.152 C 
ATOM      4  C   UNL     1      37.584 -22.915 -14.861  0.00  0.00    +0.031 C 
ATOM      5  C   UNL     1      37.622 -24.785 -13.377  0.00  0.00    +0.094 C 
ATOM      6  C   UNL     1      38.294 -24.247 -14.630  0.00  0.00    +0.024 C 
ATOM      7  C   UNL     1      35.340 -24.580 -12.439  0.00  0.00    +0.204 C 
ENDROOT
BRANCH   3  10
ATOM      8  O   UNL     1      35.148 -24.979 -15.665  0.00  0.00    -0.273 OA
ATOM      9  N   UNL     1      34.929 -22.797 -16.448  0.00  0.00    -0.299 N 
ATOM     10  C   UNL     1      35.355 -23.772 -15.563  0.00  0.00    +0.241 C 
ATOM     11  H   UNL     1      35.158 -21.859 -16.257  0.00  0.00    +0.150 HD
BRANCH   9  12
ATOM     12  C   UNL     1      34.165 -23.090 -17.639  0.00  0.00    +0.116 C 
BRANCH  12  13
ATOM     13  C   UNL     1      34.360 -22.048 -18.701  0.00  0.00    -0.003 C 
ATOM     14  C   UNL     1      33.253 -21.419 -19.273  0.00  0.00    -0.003 C 
ATOM     15  C   UNL     1      35.647 -21.710 -19.120  0.00  0.00    -0.003 C 
ATOM     16  C   UNL     1      33.434 -20.453 -20.262  0.00  0.00    +0.002 C 
ATOM     17  C   UNL     1      35.828 -20.744 -20.108  0.00  0.00    +0.002 C 
ATOM     18  C   UNL     1      34.722 -20.114 -20.680  0.00  0.00    +0.031 C 
BRANCH  18  21
ATOM     19  N   UNL     1      34.733 -19.405 -23.059  0.00  0.00    -0.343 N 
ATOM     20  N   UNL     1      35.259 -17.877 -21.372  0.00  0.00    -0.285 NA
ATOM     21  C   UNL     1      34.909 -19.106 -21.710  0.00  0.00    +0.117 C 
ATOM     22  H   UNL     1      34.865 -18.707 -23.741  0.00  0.00    +0.144 HD
ATOM     23  H   UNL     1      34.476 -20.316 -23.332  0.00  0.00    +0.144 HD
ATOM     24  H   UNL     1      35.385 -17.192 -22.068  0.00  0.00    +0.188 HD
ENDBRANCH  18  21
ENDBRANCH  12  13
ENDBRANCH   9  12
ENDBRANCH   3  10
BRANCH   7  25
ATOM     25  C   UNL     1      33.983 -23.936 -12.569  0.00  0.00    +0.006 C 
BRANCH  25  26
ATOM     26  N   UNL     1      33.020 -25.006 -12.761  0.00  0.00    +0.391 N 
ATOM     27  H   UNL     1      33.519 -25.880 -12.929  0.00  0.00    -0.084 HD
ATOM     28  H   UNL     1      32.445 -25.086 -11.922  0.00  0.00    -0.084 HD
BRANCH  26  29
ATOM     29  C   UNL     1      32.150 -24.717 -13.907  0.00  0.00    -0.061 C 
ATOM     30  C   UNL     1      32.140 -23.200 -14.121  0.00  0.00    -0.021 C 
ATOM     31  C   UNL     1      30.771 -25.338 -13.647  0.00  0.00    -0.021 C 
ATOM     32  C   UNL     1      31.224 -22.703 -15.241  0.00  0.00    -0.002 C 
ATOM     33  C   UNL     1      29.887 -25.362 -14.893  0.00  0.00    -0.002 C 
ATOM     34  C   UNL     1      29.749 -22.764 -14.863  0.00  0.00    -0.000 C 
ATOM     35  C   UNL     1      29.066 -24.100 -15.135  0.00  0.00    -0.000 C 
ENDBRANCH  26  29
ENDBRANCH  25  26
ENDBRANCH   7  25
TORSDOF 7
ENDMDL
MODEL 2
REMARK VINA RESULT:     -10.9      2.379      6.342
REMARK  Name = 25113614
REMARK  7 active torsions:
REMARK  status: ('A' for Active; 'I' for Inactive)
REMARK    1  A    between atoms: C_3  and  C_10
REMARK    2  A    between atoms: C_7  and  C_25
REMARK    3  A    between atoms: N_9  and  C_12
REMARK    4  A    between atoms: C_12  and  C_13
REMARK    5  A    between atoms: C_18  and  C_21
REMARK    6  A    between atoms: C_25  and  N_26
REMARK    7  A    between atoms: N_26  and  C_29
REMARK                            x       y       z     vdW  Elec       q    Type
REMARK                         _______ _______ _______ _____ _____    ______ ____
ROOT
ATOM      1  O   UNL     1      38.879 -22.668 -15.746  0.00  0.00    -0.277 OA
ATOM      2  N   UNL     1      37.500 -24.354 -14.975  0.00  0.00    -0.275 N 
ATOM      3  C   UNL     1      36.252 -25.113 -14.957  0.00  0.00    +0.152 C 
ATOM      4  C   UNL     1      36.656 -26.499 -14.462  0.00  0.00    +0.031 C 
ATOM      5  C   UNL     1      38.558 -25.069 -14.275  0.00  0.00    +0.094 C 
ATOM      6  C   UNL     1      37.859 -26.217 -13.566  0.00  0.00    +0.024 C 
ATOM      7  C   UNL     1      37.762 -23.183 -15.668  0.00  0.00    +0.204 C 
ENDROOT
BRANCH   3  10
ATOM      8  O   UNL     1      35.710 -23.602 -13.190  0.00  0.00    -0.273 OA
ATOM      9  N   UNL     1      34.027 -24.936 -14.088  0.00  0.00    -0.299 N 
ATOM     10  C   UNL     1      35.321 -24.454 -13.984  0.00  0.00    +0.241 C 
ATOM     11  H   UNL     1      33.837 -25.622 -14.769  0.00  0.00    +0.150 HD
BRANCH   9  12
ATOM     12  C   UNL     1      32.943 -24.480 -13.249  0.00  0.00    +0.116 C 
BRANCH  12  13
ATOM     13  C   UNL     1      31.695 -24.214 -14.038  0.00  0.00    -0.003 C 
ATOM     14  C   UNL     1      30.558 -24.997 -13.830  0.00  0.00    -0.003 C 
ATOM     15  C   UNL     1      31.670 -23.186 -14.980  0.00  0.00    -0.003 C 
ATOM     16  C   UNL     1      29.399 -24.752 -14.565  0.00  0.00    +0.002 C 
ATOM     17  C   UNL     1      30.510 -22.941 -15.715  0.00  0.00    +0.002 C 
ATOM     18  C   UNL     1      29.374 -23.723 -15.507  0.00  0.00    +0.031 C 
BRANCH  18  21
ATOM     19  N   UNL     1      27.347 -22.374 -15.995  0.00  0.00    -0.343 N 
ATOM     20  N   UNL     1      27.819 -24.287 -17.250  0.00  0.00    -0.285 NA
ATOM     21  C   UNL     1      28.164 -23.468 -16.272  0.00  0.00    +0.117 C 
ATOM     22  H   UNL     1      26.533 -22.219 -16.525  0.00  0.00    +0.144 HD
ATOM     23  H   UNL     1      27.585 -21.754 -15.268  0.00  0.00    +0.144 HD
ATOM     24  H   UNL     1      27.001 -24.116 -17.770  0.00  0.00    +0.188 HD
ENDBRANCH  18  21
ENDBRANCH  12  13
ENDBRANCH   9  12
ENDBRANCH   3  10
BRANCH   7  25
ATOM     25  C   UNL     1      36.583 -22.540 -16.353  0.00  0.00    +0.006 C 
BRANCH  25  26
ATOM     26  N   UNL     1      37.098 -21.833 -17.513  0.00  0.00    +0.391 N 
ATOM     27  H   UNL     1      37.257 -20.855 -17.267  0.00  0.00    -0.084 HD
ATOM     28  H   UNL     1      37.974 -22.269 -17.803  0.00  0.00    -0.084 HD
BRANCH  26  29
ATOM     29  C   UNL     1      36.142 -21.902 -18.625  0.00  0.00    -0.061 C 
ATOM     30  C   UNL     1      36.359 -20.671 -19.512  0.00  0.00    -0.021 C 
ATOM     31  C   UNL     1      34.726 -22.035 -18.047  0.00  0.00    -0.021 C 
ATOM     32  C   UNL     1      35.396 -20.538 -20.692  0.00  0.00    -0.002 C 
ATOM     33  C   UNL     1      33.689 -22.418 -19.101  0.00  0.00    -0.002 C 
ATOM     34  C   UNL     1      33.997 -20.110 -20.263  0.00  0.00    -0.000 C 
ATOM     35  C   UNL     1      33.068 -21.250 -19.859  0.00  0.00    -0.000 C 
ENDBRANCH  26  29
ENDBRANCH  25  26
ENDBRANCH   7  25
TORSDOF 7
ENDMDL
MODEL 3
REMARK VINA RESULT:     -10.1      7.529     12.168
REMARK  Name = 25113614
REMARK  7 active torsions:
REMARK  status: ('A' for Active; 'I' for Inactive)
REMARK    1  A    between atoms: C_3  and  C_10
REMARK    2  A    between atoms: C_7  and  C_25
REMARK    3  A    between atoms: N_9  and  C_12
REMARK    4  A    between atoms: C_12  and  C_13
REMARK    5  A    between atoms: C_18  and  C_21
REMARK    6  A    between atoms: C_25  and  N_26
REMARK    7  A    between atoms: N_26  and  C_29
REMARK                            x       y       z     vdW  Elec       q    Type
REMARK                         _______ _______ _______ _____ _____    ______ ____
ROOT
ATOM      1  O   UNL     1      34.580 -17.744 -24.610  0.00  0.00    -0.277 OA
ATOM      2  N   UNL     1      34.202 -15.475 -24.388  0.00  0.00    -0.275 N 
ATOM      3  C   UNL     1      34.426 -14.169 -23.772  0.00  0.00    +0.152 C 
ATOM      4  C   UNL     1      34.083 -13.166 -24.870  0.00  0.00    +0.031 C 
ATOM      5  C   UNL     1      33.494 -15.343 -25.654  0.00  0.00    +0.094 C 
ATOM      6  C   UNL     1      33.029 -13.897 -25.700  0.00  0.00    +0.024 C 
ATOM      7  C   UNL     1      34.697 -16.699 -23.966  0.00  0.00    +0.204 C 
ENDROOT
BRANCH   3  10
ATOM      8  O   UNL     1      33.293 -14.949 -21.821  0.00  0.00    -0.273 OA
ATOM      9  N   UNL     1      32.864 -12.794 -22.588  0.00  0.00    -0.299 N 
ATOM     10  C   UNL     1      33.481 -14.032 -22.616  0.00  0.00    +0.241 C 
ATOM     11  H   UNL     1      33.099 -12.137 -23.284  0.00  0.00    +0.150 HD
BRANCH   9  12
ATOM     12  C   UNL     1      31.892 -12.417 -21.587  0.00  0.00    +0.116 C 
BRANCH  12  13
ATOM     13  C   UNL     1      32.014 -10.971 -21.202  0.00  0.00    -0.003 C 
ATOM     14  C   UNL     1      32.291 -10.011 -22.175  0.00  0.00    -0.003 C 
ATOM     15  C   UNL     1      31.851 -10.587 -19.871  0.00  0.00    -0.003 C 
ATOM     16  C   UNL     1      32.406  -8.669 -21.818  0.00  0.00    +0.002 C 
ATOM     17  C   UNL     1      31.966  -9.245 -19.513  0.00  0.00    +0.002 C 
ATOM     18  C   UNL     1      32.243  -8.284 -20.486  0.00  0.00    +0.031 C 
BRANCH  18  21
ATOM     19  N   UNL     1      31.674  -5.888 -20.805  0.00  0.00    -0.343 N 
ATOM     20  N   UNL     1      33.142  -6.535 -19.105  0.00  0.00    -0.285 NA
ATOM     21  C   UNL     1      32.362  -6.884 -20.115  0.00  0.00    +0.117 C 
ATOM     22  H   UNL     1      31.769  -4.946 -20.536  0.00  0.00    +0.144 HD
ATOM     23  H   UNL     1      31.091  -6.127 -21.561  0.00  0.00    +0.144 HD
ATOM     24  H   UNL     1      33.223  -5.588 -18.851  0.00  0.00    +0.188 HD
ENDBRANCH  18  21
ENDBRANCH  12  13
ENDBRANCH   9  12
ENDBRANCH   3  10
BRANCH   7  25
ATOM     25  C   UNL     1      35.413 -16.704 -22.640  0.00  0.00    +0.006 C 
BRANCH  25  26
ATOM     26  N   UNL     1      36.124 -17.967 -22.544  0.00  0.00    +0.391 N 
ATOM     27  H   UNL     1      35.864 -18.559 -23.334  0.00  0.00    -0.084 HD
ATOM     28  H   UNL     1      37.127 -17.783 -22.559  0.00  0.00    -0.084 HD
BRANCH  26  29
ATOM     29  C   UNL     1      35.785 -18.655 -21.293  0.00  0.00    -0.061 C 
ATOM     30  C   UNL     1      37.052 -19.344 -20.774  0.00  0.00    -0.021 C 
ATOM     31  C   UNL     1      34.603 -19.599 -21.555  0.00  0.00    -0.021 C 
ATOM     32  C   UNL     1      36.871 -20.174 -19.503  0.00  0.00    -0.002 C 
ATOM     33  C   UNL     1      33.974 -20.133 -20.269  0.00  0.00    -0.002 C 
ATOM     34  C   UNL     1      36.138 -21.486 -19.757  0.00  0.00    -0.000 C 
ATOM     35  C   UNL     1      34.616 -21.397 -19.706  0.00  0.00    -0.000 C 
ENDBRANCH  26  29
ENDBRANCH  25  26
ENDBRANCH   7  25
TORSDOF 7
ENDMDL
MODEL 4
REMARK VINA RESULT:      -9.8      1.371      2.200
REMARK  Name = 25113614
REMARK  7 active torsions:
REMARK  status: ('A' for Active; 'I' for Inactive)
REMARK    1  A    between atoms: C_3  and  C_10
REMARK    2  A    between atoms: C_7  and  C_25
REMARK    3  A    between atoms: N_9  and  C_12
REMARK    4  A    between atoms: C_12  and  C_13
REMARK    5  A    between atoms: C_18  and  C_21
REMARK    6  A    between atoms: C_25  and  N_26
REMARK    7  A    between atoms: N_26  and  C_29
REMARK                            x       y       z     vdW  Elec       q    Type
REMARK                         _______ _______ _______ _____ _____    ______ ____
ROOT
ATOM      1  O   UNL     1      34.467 -24.919 -13.101  0.00  0.00    -0.277 OA
ATOM      2  N   UNL     1      35.618 -23.575 -14.587  0.00  0.00    -0.275 N 
ATOM      3  C   UNL     1      35.759 -22.401 -15.445  0.00  0.00    +0.152 C 
ATOM      4  C   UNL     1      37.265 -22.157 -15.513  0.00  0.00    +0.031 C 
ATOM      5  C   UNL     1      36.905 -24.220 -14.365  0.00  0.00    +0.094 C 
ATOM      6  C   UNL     1      37.857 -23.555 -15.346  0.00  0.00    +0.024 C 
ATOM      7  C   UNL     1      34.480 -23.994 -13.916  0.00  0.00    +0.204 C 
ENDROOT
BRANCH   3  10
ATOM      8  O   UNL     1      34.298 -23.549 -16.944  0.00  0.00    -0.273 OA
ATOM      9  N   UNL     1      35.883 -22.083 -17.815  0.00  0.00    -0.299 N 
ATOM     10  C   UNL     1      35.218 -22.747 -16.799  0.00  0.00    +0.241 C 
ATOM     11  H   UNL     1      36.607 -21.461 -17.572  0.00  0.00    +0.150 HD
BRANCH   9  12
ATOM     12  C   UNL     1      35.567 -22.259 -19.214  0.00  0.00    +0.116 C 
BRANCH  12  13
ATOM     13  C   UNL     1      35.500 -20.949 -19.944  0.00  0.00    -0.003 C 
ATOM     14  C   UNL     1      36.673 -20.250 -20.232  0.00  0.00    -0.003 C 
ATOM     15  C   UNL     1      34.266 -20.429 -20.333  0.00  0.00    -0.003 C 
ATOM     16  C   UNL     1      36.611 -19.032 -20.907  0.00  0.00    +0.002 C 
ATOM     17  C   UNL     1      34.204 -19.211 -21.009  0.00  0.00    +0.002 C 
ATOM     18  C   UNL     1      35.376 -18.512 -21.298  0.00  0.00    +0.031 C 
BRANCH  18  21
ATOM     19  N   UNL     1      35.699 -17.134 -23.337  0.00  0.00    -0.343 N 
ATOM     20  N   UNL     1      34.886 -16.161 -21.374  0.00  0.00    -0.285 NA
ATOM     21  C   UNL     1      35.313 -17.243 -22.003  0.00  0.00    +0.117 C 
ATOM     22  H   UNL     1      35.647 -16.264 -23.796  0.00  0.00    +0.144 HD
ATOM     23  H   UNL     1      36.023 -17.927 -23.822  0.00  0.00    +0.144 HD
ATOM     24  H   UNL     1      34.841 -15.301 -21.849  0.00  0.00    +0.188 HD
ENDBRANCH  18  21
ENDBRANCH  12  13
ENDBRANCH   9  12
ENDBRANCH   3  10
BRANCH   7  25
ATOM     25  C   UNL     1      33.211 -23.245 -14.231  0.00  0.00    +0.006 C 
BRANCH  25  26
ATOM     26  N   UNL     1      32.341 -23.376 -13.075  0.00  0.00    +0.391 N 
ATOM     27  H   UNL     1      32.631 -24.186 -12.526  0.00  0.00    -0.084 HD
ATOM     28  H   UNL     1      32.410 -22.527 -12.512  0.00  0.00    -0.084 HD
BRANCH  26  29
ATOM     29  C   UNL     1      30.947 -23.553 -13.497  0.00  0.00    -0.061 C 
ATOM     30  C   UNL     1      30.724 -25.044 -13.777  0.00  0.00    -0.021 C 
ATOM     31  C   UNL     1      30.673 -22.628 -14.691  0.00  0.00    -0.021 C 
ATOM     32  C   UNL     1      29.334 -25.410 -14.300  0.00  0.00    -0.002 C 
ATOM     33  C   UNL     1      29.185 -22.505 -15.017  0.00  0.00    -0.002 C 
ATOM     34  C   UNL     1      29.126 -25.000 -15.753  0.00  0.00    -0.000 C 
ATOM     35  C   UNL     1      28.634 -23.571 -15.957  0.00  0.00    -0.000 C 
ENDBRANCH  26  29
ENDBRANCH  25  26
ENDBRANCH   7  25
TORSDOF 7
ENDMDL
MODEL 5
REMARK VINA RESULT:      -9.5      1.653      2.445
REMARK  Name = 25113614
REMARK  7 active torsions:
REMARK  status: ('A' for Active; 'I' for Inactive)
REMARK    1  A    between atoms: C_3  and  C_10
REMARK    2  A    between atoms: C_7  and  C_25
REMARK    3  A    between atoms: N_9  and  C_12
REMARK    4  A    between atoms: C_12  and  C_13
REMARK    5  A    between atoms: C_18  and  C_21
REMARK    6  A    between atoms: C_25  and  N_26
REMARK    7  A    between atoms: N_26  and  C_29
REMARK                            x       y       z     vdW  Elec       q    Type
REMARK                         _______ _______ _______ _____ _____    ______ ____
ROOT
ATOM      1  O   UNL     1      33.382 -25.023 -12.374  0.00  0.00    -0.277 OA
ATOM      2  N   UNL     1      35.503 -24.124 -12.552  0.00  0.00    -0.275 N 
ATOM      3  C   UNL     1      36.461 -23.120 -13.010  0.00  0.00    +0.152 C 
ATOM      4  C   UNL     1      37.588 -23.171 -11.981  0.00  0.00    +0.031 C 
ATOM      5  C   UNL     1      36.080 -24.961 -11.508  0.00  0.00    +0.094 C 
ATOM      6  C   UNL     1      37.561 -24.619 -11.499  0.00  0.00    +0.024 C 
ATOM      7  C   UNL     1      34.167 -24.233 -12.902  0.00  0.00    +0.204 C 
ENDROOT
BRANCH   3  10
ATOM      8  O   UNL     1      37.204 -24.710 -14.629  0.00  0.00    -0.273 OA
ATOM      9  N   UNL     1      37.117 -22.459 -15.216  0.00  0.00    -0.299 N 
ATOM     10  C   UNL     1      36.959 -23.536 -14.361  0.00  0.00    +0.241 C 
ATOM     11  H   UNL     1      36.885 -21.561 -14.885  0.00  0.00    +0.150 HD
BRANCH   9  12
ATOM     12  C   UNL     1      37.605 -22.588 -16.570  0.00  0.00    +0.116 C 
BRANCH  12  13
ATOM     13  C   UNL     1      36.615 -22.076 -17.575  0.00  0.00    -0.003 C 
ATOM     14  C   UNL     1      35.262 -22.391 -17.445  0.00  0.00    -0.003 C 
ATOM     15  C   UNL     1      37.047 -21.288 -18.642  0.00  0.00    -0.003 C 
ATOM     16  C   UNL     1      34.343 -21.917 -18.380  0.00  0.00    +0.002 C 
ATOM     17  C   UNL     1      36.128 -20.814 -19.577  0.00  0.00    +0.002 C 
ATOM     18  C   UNL     1      34.775 -21.128 -19.446  0.00  0.00    +0.031 C 
BRANCH  18  21
ATOM     19  N   UNL     1      34.222 -19.897 -21.530  0.00  0.00    -0.343 N 
ATOM     20  N   UNL     1      32.527 -20.878 -20.256  0.00  0.00    -0.285 NA
ATOM     21  C   UNL     1      33.816 -20.633 -20.420  0.00  0.00    +0.117 C 
ATOM     22  H   UNL     1      33.555 -19.572 -22.178  0.00  0.00    +0.144 HD
ATOM     23  H   UNL     1      35.177 -19.701 -21.668  0.00  0.00    +0.144 HD
ATOM     24  H   UNL     1      31.875 -20.545 -20.915  0.00  0.00    +0.188 HD
ENDBRANCH  18  21
ENDBRANCH  12  13
ENDBRANCH   9  12
ENDBRANCH   3  10
BRANCH   7  25
ATOM     25  C   UNL     1      33.690 -23.310 -13.995  0.00  0.00    +0.006 C 
BRANCH  25  26
ATOM     26  N   UNL     1      32.928 -24.117 -14.932  0.00  0.00    +0.391 N 
ATOM     27  H   UNL     1      33.275 -23.951 -15.877  0.00  0.00    -0.084 HD
ATOM     28  H   UNL     1      33.037 -25.101 -14.685  0.00  0.00    -0.084 HD
BRANCH  26  29
ATOM     29  C   UNL     1      31.504 -23.768 -14.872  0.00  0.00    -0.061 C 
ATOM     30  C   UNL     1      30.713 -25.053 -14.602  0.00  0.00    -0.021 C 
ATOM     31  C   UNL     1      31.122 -23.039 -16.168  0.00  0.00    -0.021 C 
ATOM     32  C   UNL     1      29.193 -24.891 -14.575  0.00  0.00    -0.002 C 
ATOM     33  C   UNL     1      29.752 -22.366 -16.088  0.00  0.00    -0.002 C 
ATOM     34  C   UNL     1      28.599 -24.695 -15.965  0.00  0.00    -0.000 C 
ATOM     35  C   UNL     1      28.568 -23.252 -16.457  0.00  0.00    -0.000 C 
ENDBRANCH  26  29
ENDBRANCH  25  26
ENDBRANCH   7  25
TORSDOF 7
ENDMDL
MODEL 6
REMARK VINA RESULT:      -9.2      1.783      4.771
REMARK  Name = 25113614
REMARK  7 active torsions:
REMARK  status: ('A' for Active; 'I' for Inactive)
REMARK    1  A    between atoms: C_3  and  C_10
REMARK    2  A    between atoms: C_7  and  C_25
REMARK    3  A    between atoms: N_9  and  C_12
REMARK    4  A    between atoms: C_12  and  C_13
REMARK    5  A    between atoms: C_18  and  C_21
REMARK    6  A    between atoms: C_25  and  N_26
REMARK    7  A    between atoms: N_26  and  C_29
REMARK                            x       y       z     vdW  Elec       q    Type
REMARK                         _______ _______ _______ _____ _____    ______ ____
ROOT
ATOM      1  O   UNL     1      31.698 -23.541 -12.387  0.00  0.00    -0.277 OA
ATOM      2  N   UNL     1      32.234 -23.503 -14.634  0.00  0.00    -0.275 N 
ATOM      3  C   UNL     1      32.979 -23.956 -15.806  0.00  0.00    +0.152 C 
ATOM      4  C   UNL     1      32.052 -23.667 -16.983  0.00  0.00    +0.031 C 
ATOM      5  C   UNL     1      31.070 -22.718 -15.024  0.00  0.00    +0.094 C 
ATOM      6  C   UNL     1      31.248 -22.457 -16.511  0.00  0.00    +0.024 C 
ATOM      7  C   UNL     1      32.450 -23.855 -13.311  0.00  0.00    +0.204 C 
ENDROOT
BRANCH   3  10
ATOM      8  O   UNL     1      34.707 -22.560 -14.930  0.00  0.00    -0.273 OA
ATOM      9  N   UNL     1      34.739 -23.109 -17.192  0.00  0.00    -0.299 N 
ATOM     10  C   UNL     1      34.231 -23.138 -15.904  0.00  0.00    +0.241 C 
ATOM     11  H   UNL     1      34.266 -23.616 -17.893  0.00  0.00    +0.150 HD
BRANCH   9  12
ATOM     12  C   UNL     1      35.926 -22.373 -17.558  0.00  0.00    +0.116 C 
BRANCH  12  13
ATOM     13  C   UNL     1      35.699 -21.501 -18.759  0.00  0.00    -0.003 C 
ATOM     14  C   UNL     1      36.777 -20.855 -19.366  0.00  0.00    -0.003 C 
ATOM     15  C   UNL     1      34.411 -21.334 -19.267  0.00  0.00    -0.003 C 
ATOM     16  C   UNL     1      36.566 -20.043 -20.480  0.00  0.00    +0.002 C 
ATOM     17  C   UNL     1      34.200 -20.523 -20.381  0.00  0.00    +0.002 C 
ATOM     18  C   UNL     1      35.277 -19.877 -20.988  0.00  0.00    +0.031 C 
BRANCH  18  21
ATOM     19  N   UNL     1      35.230 -17.651 -22.086  0.00  0.00    -0.343 N 
ATOM     20  N   UNL     1      34.683 -19.573 -23.297  0.00  0.00    -0.285 NA
ATOM     21  C   UNL     1      35.058 -19.032 -22.150  0.00  0.00    +0.117 C 
ATOM     22  H   UNL     1      35.077 -17.097 -22.885  0.00  0.00    +0.144 HD
ATOM     23  H   UNL     1      35.506 -17.229 -21.241  0.00  0.00    +0.144 HD
ATOM     24  H   UNL     1      34.535 -19.003 -24.085  0.00  0.00    +0.188 HD
ENDBRANCH  18  21
ENDBRANCH  12  13
ENDBRANCH   9  12
ENDBRANCH   3  10
BRANCH   7  25
ATOM     25  C   UNL     1      33.688 -24.671 -13.037  0.00  0.00    +0.006 C 
BRANCH  25  26
ATOM     26  N   UNL     1      34.628 -23.800 -12.351  0.00  0.00    +0.391 N 
ATOM     27  H   UNL     1      34.844 -23.002 -12.950  0.00  0.00    -0.084 HD
ATOM     28  H   UNL     1      34.207 -23.481 -11.479  0.00  0.00    -0.084 HD
BRANCH  26  29
ATOM     29  C   UNL     1      35.868 -24.522 -12.044  0.00  0.00    -0.061 C 
ATOM     30  C   UNL     1      36.936 -23.489 -11.669  0.00  0.00    -0.021 C 
ATOM     31  C   UNL     1      36.229 -25.412 -13.242  0.00  0.00    -0.021 C 
ATOM     32  C   UNL     1      38.326 -24.060 -11.382  0.00  0.00    -0.002 C 
ATOM     33  C   UNL     1      37.322 -26.429 -12.917  0.00  0.00    -0.002 C 
ATOM     34  C   UNL     1      39.051 -24.504 -12.646  0.00  0.00    -0.000 C 
ATOM     35  C   UNL     1      38.751 -25.929 -13.097  0.00  0.00    -0.000 C 
ENDBRANCH  26  29
ENDBRANCH  25  26
ENDBRANCH   7  25
TORSDOF 7
ENDMDL
MODEL 7
REMARK VINA RESULT:      -9.2      2.192      7.666
REMARK  Name = 25113614
REMARK  7 active torsions:
REMARK  status: ('A' for Active; 'I' for Inactive)
REMARK    1  A    between atoms: C_3  and  C_10
REMARK    2  A    between atoms: C_7  and  C_25
REMARK    3  A    between atoms: N_9  and  C_12
REMARK    4  A    between atoms: C_12  and  C_13
REMARK    5  A    between atoms: C_18  and  C_21
REMARK    6  A    between atoms: C_25  and  N_26
REMARK    7  A    between atoms: N_26  and  C_29
REMARK                            x       y       z     vdW  Elec       q    Type
REMARK                         _______ _______ _______ _____ _____    ______ ____
ROOT
ATOM      1  O   UNL     1      32.429 -23.485 -17.992  0.00  0.00    -0.277 OA
ATOM      2  N   UNL     1      32.221 -23.170 -15.713  0.00  0.00    -0.275 N 
ATOM      3  C   UNL     1      32.713 -22.748 -14.403  0.00  0.00    +0.152 C 
ATOM      4  C   UNL     1      31.454 -22.388 -13.620  0.00  0.00    +0.031 C 
ATOM      5  C   UNL     1      30.777 -23.361 -15.693  0.00  0.00    +0.094 C 
ATOM      6  C   UNL     1      30.389 -23.300 -14.225  0.00  0.00    +0.024 C 
ATOM      7  C   UNL     1      32.940 -23.251 -16.895  0.00  0.00    +0.204 C 
ENDROOT
BRANCH   3  10
ATOM      8  O   UNL     1      33.238 -25.065 -14.166  0.00  0.00    -0.273 OA
ATOM      9  N   UNL     1      34.228 -23.532 -12.722  0.00  0.00    -0.299 N 
ATOM     10  C   UNL     1      33.413 -23.915 -13.773  0.00  0.00    +0.241 C 
ATOM     11  H   UNL     1      34.288 -22.573 -12.501  0.00  0.00    +0.150 HD
BRANCH   9  12
ATOM     12  C   UNL     1      34.996 -24.468 -11.934  0.00  0.00    +0.116 C 
BRANCH  12  13
ATOM     13  C   UNL     1      36.295 -24.826 -12.595  0.00  0.00    -0.003 C 
ATOM     14  C   UNL     1      36.739 -24.100 -13.701  0.00  0.00    -0.003 C 
ATOM     15  C   UNL     1      37.059 -25.886 -12.106  0.00  0.00    -0.003 C 
ATOM     16  C   UNL     1      37.945 -24.433 -14.316  0.00  0.00    +0.002 C 
ATOM     17  C   UNL     1      38.265 -26.219 -12.721  0.00  0.00    +0.002 C 
ATOM     18  C   UNL     1      38.709 -25.493 -13.826  0.00  0.00    +0.031 C 
BRANCH  18  21
ATOM     19  N   UNL     1      40.912 -26.638 -13.829  0.00  0.00    -0.343 N 
ATOM     20  N   UNL     1      40.232 -25.388 -15.682  0.00  0.00    -0.285 NA
ATOM     21  C   UNL     1      39.966 -25.839 -14.468  0.00  0.00    +0.117 C 
ATOM     22  H   UNL     1      41.757 -26.860 -14.282  0.00  0.00    +0.144 HD
ATOM     23  H   UNL     1      40.735 -26.980 -12.923  0.00  0.00    +0.144 HD
ATOM     24  H   UNL     1      41.082 -25.622 -16.119  0.00  0.00    +0.188 HD
ENDBRANCH  18  21
ENDBRANCH  12  13
ENDBRANCH   9  12
ENDBRANCH   3  10
BRANCH   7  25
ATOM     25  C   UNL     1      34.427 -23.032 -16.783  0.00  0.00    +0.006 C 
BRANCH  25  26
ATOM     26  N   UNL     1      34.964 -23.058 -18.133  0.00  0.00    +0.391 N 
ATOM     27  H   UNL     1      35.884 -23.498 -18.120  0.00  0.00    -0.084 HD
ATOM     28  H   UNL     1      34.329 -23.588 -18.730  0.00  0.00    -0.084 HD
BRANCH  26  29
ATOM     29  C   UNL     1      35.088 -21.695 -18.664  0.00  0.00    -0.061 C 
ATOM     30  C   UNL     1      33.878 -21.427 -19.565  0.00  0.00    -0.021 C 
ATOM     31  C   UNL     1      36.449 -21.560 -19.360  0.00  0.00    -0.021 C 
ATOM     32  C   UNL     1      33.872 -20.068 -20.266  0.00  0.00    -0.002 C 
ATOM     33  C   UNL     1      36.811 -20.110 -19.680  0.00  0.00    -0.002 C 
ATOM     34  C   UNL     1      34.874 -19.995 -21.413  0.00  0.00    -0.000 C 
ATOM     35  C   UNL     1      36.287 -19.587 -21.013  0.00  0.00    -0.000 C 
ENDBRANCH  26  29
ENDBRANCH  25  26
ENDBRANCH   7  25
TORSDOF 7
ENDMDL
MODEL 8
REMARK VINA RESULT:      -9.2      6.588     10.980
REMARK  Name = 25113614
REMARK  7 active torsions:
REMARK  status: ('A' for Active; 'I' for Inactive)
REMARK    1  A    between atoms: C_3  and  C_10
REMARK    2  A    between atoms: C_7  and  C_25
REMARK    3  A    between atoms: N_9  and  C_12
REMARK    4  A    between atoms: C_12  and  C_13
REMARK    5  A    between atoms: C_18  and  C_21
REMARK    6  A    between atoms: C_25  and  N_26
REMARK    7  A    between atoms: N_26  and  C_29
REMARK                            x       y       z     vdW  Elec       q    Type
REMARK                         _______ _______ _______ _____ _____    ______ ____
ROOT
ATOM      1  O   UNL     1      34.600 -18.806 -24.057  0.00  0.00    -0.277 OA
ATOM      2  N   UNL     1      34.605 -16.516 -23.751  0.00  0.00    -0.275 N 
ATOM      3  C   UNL     1      35.067 -15.285 -23.113  0.00  0.00    +0.152 C 
ATOM      4  C   UNL     1      34.836 -14.201 -24.163  0.00  0.00    +0.031 C 
ATOM      5  C   UNL     1      33.866 -16.227 -24.973  0.00  0.00    +0.094 C 
ATOM      6  C   UNL     1      33.639 -14.724 -24.954  0.00  0.00    +0.024 C 
ATOM      7  C   UNL     1      34.916 -17.817 -23.392  0.00  0.00    +0.204 C 
ENDROOT
BRANCH   3  10
ATOM      8  O   UNL     1      34.434 -15.600 -20.833  0.00  0.00    -0.273 OA
ATOM      9  N   UNL     1      33.181 -14.156 -22.161  0.00  0.00    -0.299 N 
ATOM     10  C   UNL     1      34.214 -15.041 -21.904  0.00  0.00    +0.241 C 
ATOM     11  H   UNL     1      33.109 -13.771 -23.065  0.00  0.00    +0.150 HD
BRANCH   9  12
ATOM     12  C   UNL     1      32.205 -13.770 -21.169  0.00  0.00    +0.116 C 
BRANCH  12  13
ATOM     13  C   UNL     1      32.144 -12.282 -20.989  0.00  0.00    -0.003 C 
ATOM     14  C   UNL     1      31.903 -11.740 -19.726  0.00  0.00    -0.003 C 
ATOM     15  C   UNL     1      32.327 -11.438 -22.085  0.00  0.00    -0.003 C 
ATOM     16  C   UNL     1      31.845 -10.358 -19.559  0.00  0.00    +0.002 C 
ATOM     17  C   UNL     1      32.269 -10.055 -21.919  0.00  0.00    +0.002 C 
ATOM     18  C   UNL     1      32.028  -9.514 -20.656  0.00  0.00    +0.031 C 
BRANCH  18  21
ATOM     19  N   UNL     1      32.543  -7.450 -19.375  0.00  0.00    -0.343 N 
ATOM     20  N   UNL     1      31.353  -7.325 -21.381  0.00  0.00    -0.285 NA
ATOM     21  C   UNL     1      31.968  -8.072 -20.481  0.00  0.00    +0.117 C 
ATOM     22  H   UNL     1      32.491  -6.472 -19.276  0.00  0.00    +0.144 HD
ATOM     23  H   UNL     1      33.003  -7.989 -18.691  0.00  0.00    +0.144 HD
ATOM     24  H   UNL     1      31.311  -6.349 -21.266  0.00  0.00    +0.188 HD
ENDBRANCH  18  21
ENDBRANCH  12  13
ENDBRANCH   9  12
ENDBRANCH   3  10
BRANCH   7  25
ATOM     25  C   UNL     1      35.686 -17.984 -22.107  0.00  0.00    +0.006 C 
BRANCH  25  26
ATOM     26  N   UNL     1      34.723 -18.328 -21.074  0.00  0.00    +0.391 N 
ATOM     27  H   UNL     1      34.956 -17.825 -20.218  0.00  0.00    -0.084 HD
ATOM     28  H   UNL     1      33.790 -18.067 -21.393  0.00  0.00    -0.084 HD
BRANCH  26  29
ATOM     29  C   UNL     1      34.748 -19.772 -20.809  0.00  0.00    -0.061 C 
ATOM     30  C   UNL     1      33.398 -20.162 -20.197  0.00  0.00    -0.021 C 
ATOM     31  C   UNL     1      35.966 -20.090 -19.931  0.00  0.00    -0.021 C 
ATOM     32  C   UNL     1      33.265 -21.629 -19.788  0.00  0.00    -0.002 C 
ATOM     33  C   UNL     1      36.261 -21.587 -19.846  0.00  0.00    -0.002 C 
ATOM     34  C   UNL     1      34.051 -21.960 -18.524  0.00  0.00    -0.000 C 
ATOM     35  C   UNL     1      35.511 -22.337 -18.751  0.00  0.00    -0.000 C 
ENDBRANCH  26  29
ENDBRANCH  25  26
ENDBRANCH   7  25
TORSDOF 7
ENDMDL
MODEL 9
REMARK VINA RESULT:      -9.2     11.850     16.156
REMARK  Name = 25113614
REMARK  7 active torsions:
REMARK  status: ('A' for Active; 'I' for Inactive)
REMARK    1  A    between atoms: C_3  and  C_10
REMARK    2  A    between atoms: C_7  and  C_25
REMARK    3  A    between atoms: N_9  and  C_12
REMARK    4  A    between atoms: C_12  and  C_13
REMARK    5  A    between atoms: C_18  and  C_21
REMARK    6  A    between atoms: C_25  and  N_26
REMARK    7  A    between atoms: N_26  and  C_29
REMARK                            x       y       z     vdW  Elec       q    Type
REMARK                         _______ _______ _______ _____ _____    ______ ____
ROOT
ATOM      1  O   UNL     1      31.969 -10.789 -19.101  0.00  0.00    -0.277 OA
ATOM      2  N   UNL     1      31.911  -8.978 -20.535  0.00  0.00    -0.275 N 
ATOM      3  C   UNL     1      31.605  -8.331 -21.809  0.00  0.00    +0.152 C 
ATOM      4  C   UNL     1      31.402  -6.861 -21.451  0.00  0.00    +0.031 C 
ATOM      5  C   UNL     1      32.185  -7.991 -19.499  0.00  0.00    +0.094 C 
ATOM      6  C   UNL     1      32.303  -6.666 -20.234  0.00  0.00    +0.024 C 
ATOM      7  C   UNL     1      31.825 -10.328 -20.235  0.00  0.00    +0.204 C 
ENDROOT
BRANCH   3  10
ATOM      8  O   UNL     1      33.057  -9.575 -23.238  0.00  0.00    -0.273 OA
ATOM      9  N   UNL     1      33.517  -7.328 -22.843  0.00  0.00    -0.299 N 
ATOM     10  C   UNL     1      32.790  -8.498 -22.711  0.00  0.00    +0.241 C 
ATOM     11  H   UNL     1      33.201  -6.524 -22.369  0.00  0.00    +0.150 HD
BRANCH   9  12
ATOM     12  C   UNL     1      34.718  -7.228 -23.640  0.00  0.00    +0.116 C 
BRANCH  12  13
ATOM     13  C   UNL     1      34.593  -6.189 -24.717  0.00  0.00    -0.003 C 
ATOM     14  C   UNL     1      33.374  -5.542 -24.923  0.00  0.00    -0.003 C 
ATOM     15  C   UNL     1      35.694  -5.872 -25.512  0.00  0.00    -0.003 C 
ATOM     16  C   UNL     1      33.257  -4.579 -25.924  0.00  0.00    +0.002 C 
ATOM     17  C   UNL     1      35.576  -4.909 -26.513  0.00  0.00    +0.002 C 
ATOM     18  C   UNL     1      34.358  -4.261 -26.720  0.00  0.00    +0.031 C 
BRANCH  18  21
ATOM     19  N   UNL     1      33.018  -2.636 -28.034  0.00  0.00    -0.343 N 
ATOM     20  N   UNL     1      35.294  -2.918 -28.479  0.00  0.00    -0.285 NA
ATOM     21  C   UNL     1      34.235  -3.256 -27.763  0.00  0.00    +0.117 C 
ATOM     22  H   UNL     1      32.957  -1.958 -28.745  0.00  0.00    +0.144 HD
ATOM     23  H   UNL     1      32.217  -2.877 -27.514  0.00  0.00    +0.144 HD
ATOM     24  H   UNL     1      35.214  -2.238 -29.185  0.00  0.00    +0.188 HD
ENDBRANCH  18  21
ENDBRANCH  12  13
ENDBRANCH   9  12
ENDBRANCH   3  10
BRANCH   7  25
ATOM     25  C   UNL     1      31.535 -11.247 -21.394  0.00  0.00    +0.006 C 
BRANCH  25  26
ATOM     26  N   UNL     1      31.574 -12.606 -20.880  0.00  0.00    +0.391 N 
ATOM     27  H   UNL     1      31.435 -12.586 -19.870  0.00  0.00    -0.084 HD
ATOM     28  H   UNL     1      30.835 -13.149 -21.326  0.00  0.00    -0.084 HD
BRANCH  26  29
ATOM     29  C   UNL     1      32.869 -13.231 -21.177  0.00  0.00    -0.061 C 
ATOM     30  C   UNL     1      33.104 -13.135 -22.688  0.00  0.00    -0.021 C 
ATOM     31  C   UNL     1      32.864 -14.660 -20.617  0.00  0.00    -0.021 C 
ATOM     32  C   UNL     1      34.384 -13.802 -23.194  0.00  0.00    -0.002 C 
ATOM     33  C   UNL     1      34.255 -15.294 -20.599  0.00  0.00    -0.002 C 
ATOM     34  C   UNL     1      34.291 -15.323 -23.201  0.00  0.00    -0.000 C 
ATOM     35  C   UNL     1      34.666 -15.999 -21.886  0.00  0.00    -0.000 C 
ENDBRANCH  26  29
ENDBRANCH  25  26
ENDBRANCH   7  25
TORSDOF 7
ENDMDL
