MODEL 1
REMARK VINA RESULT:     -11.6      0.000      0.000
REMARK  Name = 118161062
REMARK  4 active torsions:
REMARK  status: ('A' for Active; 'I' for Inactive)
REMARK    1  A    between atoms: N_1  and  C_26
REMARK    2  A    between atoms: C_7  and  C_15
REMARK    3  A    between atoms: C_21  and  N_28
REMARK    4  A    between atoms: N_27  and  C_35
REMARK                            x       y       z     vdW  Elec       q    Type
REMARK                         _______ _______ _______ _____ _____    ______ ____
ROOT
ATOM      1  N   UNL     1      36.359 -22.766 -17.433  0.00  0.00    -0.286 N 
ATOM      2  N   UNL     1      35.249 -23.986 -14.120  0.00  0.00    -0.260 N 
ATOM      3  N   UNL     1      34.228 -23.107 -16.538  0.00  0.00    -0.384 NA
ATOM      4  N   UNL     1      37.354 -23.725 -14.811  0.00  0.00    -0.224 NA
ATOM      5  C   UNL     1      35.539 -23.150 -16.399  0.00  0.00    +0.216 C 
ATOM      6  C   UNL     1      36.088 -23.612 -15.138  0.00  0.00    +0.180 C 
ATOM      7  C   UNL     1      33.406 -23.502 -15.483  0.00  0.00    +0.162 C 
ATOM      8  C   UNL     1      33.882 -23.928 -14.292  0.00  0.00    +0.159 C 
ATOM      9  C   UNL     1      36.035 -24.363 -13.068  0.00  0.00    +0.088 C 
ATOM     10  C   UNL     1      37.328 -24.194 -13.519  0.00  0.00    +0.117 C 
ATOM     11  H   UNL     1      37.235 -23.213 -17.482  0.00  0.00    +0.155 HD
ENDROOT
BRANCH   7  15
ATOM     12  N   UNL     1      31.173 -24.271 -14.999  0.00  0.00    -0.386 NA
ATOM     13  N   UNL     1      30.078 -22.410 -16.789  0.00  0.00    -0.257 NA
ATOM     14  N   UNL     1      28.965 -25.038 -14.514  0.00  0.00    -0.335 N 
ATOM     15  C   UNL     1      31.944 -23.416 -15.699  0.00  0.00    +0.178 C 
ATOM     16  C   UNL     1      31.407 -22.502 -16.579  0.00  0.00    +0.128 C 
ATOM     17  C   UNL     1      29.845 -24.179 -15.208  0.00  0.00    +0.179 C 
ATOM     18  C   UNL     1      29.307 -23.265 -16.088  0.00  0.00    +0.199 C 
ATOM     19  H   UNL     1      29.322 -25.701 -13.879  0.00  0.00    +0.144 HD
ATOM     20  H   UNL     1      27.994 -24.974 -14.664  0.00  0.00    +0.144 HD
ENDBRANCH   7  15
BRANCH   1  26
ATOM     21  C   UNL     1      35.570 -19.909 -20.409  0.00  0.00    +0.048 C 
ATOM     22  C   UNL     1      34.556 -20.762 -19.975  0.00  0.00    +0.016 C 
ATOM     23  C   UNL     1      36.847 -20.005 -19.855  0.00  0.00    +0.016 C 
ATOM     24  C   UNL     1      34.817 -21.710 -18.986  0.00  0.00    +0.016 C 
ATOM     25  C   UNL     1      37.108 -20.953 -18.866  0.00  0.00    +0.016 C 
ATOM     26  C   UNL     1      36.094 -21.806 -18.431  0.00  0.00    +0.050 C 
BRANCH  21  28
ATOM     27  N   UNL     1      34.519 -17.025 -23.346  0.00  0.00    +0.394 N 
ATOM     28  N   UNL     1      35.307 -18.958 -21.402  0.00  0.00    -0.312 N 
ATOM     29  C   UNL     1      35.155 -16.597 -22.094  0.00  0.00    -0.055 C 
ATOM     30  C   UNL     1      35.067 -18.318 -23.769  0.00  0.00    -0.055 C 
ATOM     31  C   UNL     1      34.897 -17.613 -20.979  0.00  0.00    +0.068 C 
ATOM     32  C   UNL     1      34.808 -19.393 -22.711  0.00  0.00    +0.068 C 
ATOM     33  H   UNL     1      33.515 -17.118 -23.198  0.00  0.00    -0.079 HD
BRANCH  27  35
ATOM     34  O   UNL     1      33.253 -14.761 -25.192  0.00  0.00    -0.358 OA
ATOM     35  C   UNL     1      34.779 -16.020 -24.392  0.00  0.00    +0.002 C 
ATOM     36  C   UNL     1      33.692 -16.117 -25.462  0.00  0.00    +0.124 C 
ATOM     37  C   UNL     1      34.088 -14.712 -24.007  0.00  0.00    +0.124 C 
ENDBRANCH  27  35
ENDBRANCH  21  28
ENDBRANCH   1  26
TORSDOF 4
ENDMDL
MODEL 2
REMARK VINA RESULT:     -10.3      3.750     10.846
REMARK  Name = 118161062
REMARK  4 active torsions:
REMARK  status: ('A' for Active; 'I' for Inactive)
REMARK    1  A    between atoms: N_1  and  C_26
REMARK    2  A    between atoms: C_7  and  C_15
REMARK    3  A    between atoms: C_21  and  N_28
REMARK    4  A    between atoms: N_27  and  C_35
REMARK                            x       y       z     vdW  Elec       q    Type
REMARK                         _______ _______ _______ _____ _____    ______ ____
ROOT
ATOM      1  N   UNL     1      35.135 -16.594 -23.891  0.00  0.00    -0.286 N 
ATOM      2  N   UNL     1      33.313 -13.692 -25.290  0.00  0.00    -0.260 N 
ATOM      3  N   UNL     1      33.907 -14.891 -22.867  0.00  0.00    -0.384 NA
ATOM      4  N   UNL     1      34.449 -15.234 -26.433  0.00  0.00    -0.224 NA
ATOM      5  C   UNL     1      34.376 -15.450 -23.965  0.00  0.00    +0.216 C 
ATOM      6  C   UNL     1      34.074 -14.831 -25.242  0.00  0.00    +0.180 C 
ATOM      7  C   UNL     1      33.141 -13.729 -22.954  0.00  0.00    +0.162 C 
ATOM      8  C   UNL     1      32.833 -13.130 -24.126  0.00  0.00    +0.159 C 
ATOM      9  C   UNL     1      33.189 -13.345 -26.606  0.00  0.00    +0.088 C 
ATOM     10  C   UNL     1      33.899 -14.310 -27.291  0.00  0.00    +0.117 C 
ATOM     11  H   UNL     1      35.809 -16.715 -24.598  0.00  0.00    +0.155 HD
ENDROOT
BRANCH   7  15
ATOM     12  N   UNL     1      32.289 -11.857 -21.696  0.00  0.00    -0.386 NA
ATOM     13  N   UNL     1      32.063 -13.433 -19.387  0.00  0.00    -0.257 NA
ATOM     14  N   UNL     1      31.447  -9.998 -20.457  0.00  0.00    -0.335 N 
ATOM     15  C   UNL     1      32.632 -13.160 -21.685  0.00  0.00    +0.178 C 
ATOM     16  C   UNL     1      32.521 -13.934 -20.551  0.00  0.00    +0.128 C 
ATOM     17  C   UNL     1      31.829 -11.356 -20.532  0.00  0.00    +0.179 C 
ATOM     18  C   UNL     1      31.718 -12.130 -19.398  0.00  0.00    +0.199 C 
ATOM     19  H   UNL     1      31.516  -9.422 -21.252  0.00  0.00    +0.144 HD
ATOM     20  H   UNL     1      31.111  -9.628 -19.609  0.00  0.00    +0.144 HD
ENDBRANCH   7  15
BRANCH   1  26
ATOM     21  C   UNL     1      34.916 -19.638 -21.005  0.00  0.00    +0.048 C 
ATOM     22  C   UNL     1      35.258 -18.340 -20.625  0.00  0.00    +0.016 C 
ATOM     23  C   UNL     1      34.648 -19.925 -22.344  0.00  0.00    +0.016 C 
ATOM     24  C   UNL     1      35.329 -17.329 -21.583  0.00  0.00    +0.016 C 
ATOM     25  C   UNL     1      34.719 -18.914 -23.301  0.00  0.00    +0.016 C 
ATOM     26  C   UNL     1      35.060 -17.616 -22.922  0.00  0.00    +0.050 C 
BRANCH  21  28
ATOM     27  N   UNL     1      34.767 -22.890 -18.275  0.00  0.00    +0.394 N 
ATOM     28  N   UNL     1      34.845 -20.652 -20.044  0.00  0.00    -0.312 N 
ATOM     29  C   UNL     1      35.943 -22.011 -18.305  0.00  0.00    -0.055 C 
ATOM     30  C   UNL     1      33.553 -22.108 -18.534  0.00  0.00    -0.055 C 
ATOM     31  C   UNL     1      36.087 -21.342 -19.673  0.00  0.00    +0.068 C 
ATOM     32  C   UNL     1      33.616 -21.441 -19.909  0.00  0.00    +0.068 C 
ATOM     33  H   UNL     1      34.866 -23.606 -18.994  0.00  0.00    -0.079 HD
BRANCH  27  35
ATOM     34  O   UNL     1      34.386 -22.407 -15.152  0.00  0.00    -0.358 OA
ATOM     35  C   UNL     1      34.666 -23.523 -16.949  0.00  0.00    +0.002 C 
ATOM     36  C   UNL     1      35.540 -22.755 -15.958  0.00  0.00    +0.124 C 
ATOM     37  C   UNL     1      33.496 -22.897 -16.187  0.00  0.00    +0.124 C 
ENDBRANCH  27  35
ENDBRANCH  21  28
ENDBRANCH   1  26
TORSDOF 4
ENDMDL
MODEL 3
REMARK VINA RESULT:     -10.1      1.384      2.408
REMARK  Name = 118161062
REMARK  4 active torsions:
REMARK  status: ('A' for Active; 'I' for Inactive)
REMARK    1  A    between atoms: N_1  and  C_26
REMARK    2  A    between atoms: C_7  and  C_15
REMARK    3  A    between atoms: C_21  and  N_28
REMARK    4  A    between atoms: N_27  and  C_35
REMARK                            x       y       z     vdW  Elec       q    Type
REMARK                         _______ _______ _______ _____ _____    ______ ____
ROOT
ATOM      1  N   UNL     1      36.448 -23.610 -15.516  0.00  0.00    -0.286 N 
ATOM      2  N   UNL     1      34.848 -24.484 -12.296  0.00  0.00    -0.260 N 
ATOM      3  N   UNL     1      34.210 -23.943 -14.935  0.00  0.00    -0.384 NA
ATOM      4  N   UNL     1      37.028 -24.207 -12.672  0.00  0.00    -0.224 NA
ATOM      5  C   UNL     1      35.481 -23.908 -14.586  0.00  0.00    +0.216 C 
ATOM      6  C   UNL     1      35.830 -24.193 -13.206  0.00  0.00    +0.180 C 
ATOM      7  C   UNL     1      33.238 -24.250 -13.983  0.00  0.00    +0.162 C 
ATOM      8  C   UNL     1      33.526 -24.511 -12.688  0.00  0.00    +0.159 C 
ATOM      9  C   UNL     1      35.462 -24.698 -11.094  0.00  0.00    +0.088 C 
ATOM     10  C   UNL     1      36.806 -24.523 -11.352  0.00  0.00    +0.117 C 
ATOM     11  H   UNL     1      37.331 -24.017 -15.371  0.00  0.00    +0.155 HD
ENDROOT
BRANCH   7  15
ATOM     12  N   UNL     1      31.482 -23.345 -15.363  0.00  0.00    -0.386 NA
ATOM     13  N   UNL     1      29.635 -25.184 -14.326  0.00  0.00    -0.257 NA
ATOM     14  N   UNL     1      29.747 -22.442 -16.733  0.00  0.00    -0.335 N 
ATOM     15  C   UNL     1      31.829 -24.259 -14.436  0.00  0.00    +0.178 C 
ATOM     16  C   UNL     1      30.922 -25.163 -13.927  0.00  0.00    +0.128 C 
ATOM     17  C   UNL     1      30.195 -23.367 -15.763  0.00  0.00    +0.179 C 
ATOM     18  C   UNL     1      29.288 -24.270 -15.254  0.00  0.00    +0.199 C 
ATOM     19  H   UNL     1      30.374 -21.785 -17.113  0.00  0.00    +0.144 HD
ATOM     20  H   UNL     1      28.807 -22.454 -17.027  0.00  0.00    +0.144 HD
ENDBRANCH   7  15
BRANCH   1  26
ATOM     21  C   UNL     1      36.071 -21.155 -18.904  0.00  0.00    +0.048 C 
ATOM     22  C   UNL     1      37.216 -21.078 -18.111  0.00  0.00    +0.016 C 
ATOM     23  C   UNL     1      35.051 -22.046 -18.571  0.00  0.00    +0.016 C 
ATOM     24  C   UNL     1      37.342 -21.894 -16.987  0.00  0.00    +0.016 C 
ATOM     25  C   UNL     1      35.177 -22.862 -17.447  0.00  0.00    +0.016 C 
ATOM     26  C   UNL     1      36.322 -22.786 -16.654  0.00  0.00    +0.050 C 
BRANCH  21  28
ATOM     27  N   UNL     1      35.619 -18.471 -22.166  0.00  0.00    +0.394 N 
ATOM     28  N   UNL     1      35.945 -20.336 -20.031  0.00  0.00    -0.312 N 
ATOM     29  C   UNL     1      36.957 -18.764 -21.638  0.00  0.00    -0.055 C 
ATOM     30  C   UNL     1      34.781 -19.673 -22.099  0.00  0.00    -0.055 C 
ATOM     31  C   UNL     1      36.880 -19.212 -20.177  0.00  0.00    +0.068 C 
ATOM     32  C   UNL     1      34.630 -20.153 -20.654  0.00  0.00    +0.068 C 
ATOM     33  H   UNL     1      35.192 -17.732 -21.607  0.00  0.00    -0.079 HD
BRANCH  27  35
ATOM     34  O   UNL     1      34.196 -16.944 -24.569  0.00  0.00    -0.358 OA
ATOM     35  C   UNL     1      35.733 -18.034 -23.568  0.00  0.00    +0.002 C 
ATOM     36  C   UNL     1      34.429 -18.350 -24.300  0.00  0.00    +0.124 C 
ATOM     37  C   UNL     1      35.276 -16.578 -23.673  0.00  0.00    +0.124 C 
ENDBRANCH  27  35
ENDBRANCH  21  28
ENDBRANCH   1  26
TORSDOF 4
ENDMDL
MODEL 4
REMARK VINA RESULT:      -9.4      1.458      2.012
REMARK  Name = 118161062
REMARK  4 active torsions:
REMARK  status: ('A' for Active; 'I' for Inactive)
REMARK    1  A    between atoms: N_1  and  C_26
REMARK    2  A    between atoms: C_7  and  C_15
REMARK    3  A    between atoms: C_21  and  N_28
REMARK    4  A    between atoms: N_27  and  C_35
REMARK                            x       y       z     vdW  Elec       q    Type
REMARK                         _______ _______ _______ _____ _____    ______ ____
ROOT
ATOM      1  N   UNL     1      35.731 -23.565 -16.238  0.00  0.00    -0.286 N 
ATOM      2  N   UNL     1      34.161 -24.308 -12.971  0.00  0.00    -0.260 N 
ATOM      3  N   UNL     1      33.525 -23.369 -15.496  0.00  0.00    -0.384 NA
ATOM      4  N   UNL     1      36.310 -24.564 -13.509  0.00  0.00    -0.224 NA
ATOM      5  C   UNL     1      34.780 -23.695 -15.255  0.00  0.00    +0.216 C 
ATOM      6  C   UNL     1      35.126 -24.191 -13.936  0.00  0.00    +0.180 C 
ATOM      7  C   UNL     1      32.568 -23.508 -14.491  0.00  0.00    +0.162 C 
ATOM      8  C   UNL     1      32.857 -23.958 -13.249  0.00  0.00    +0.159 C 
ATOM      9  C   UNL     1      34.771 -24.788 -11.846  0.00  0.00    +0.088 C 
ATOM     10  C   UNL     1      36.095 -24.938 -12.203  0.00  0.00    +0.117 C 
ATOM     11  H   UNL     1      36.484 -24.197 -16.201  0.00  0.00    +0.155 HD
ENDROOT
BRANCH   7  15
ATOM     12  N   UNL     1      30.651 -23.630 -15.947  0.00  0.00    -0.386 NA
ATOM     13  N   UNL     1      29.210 -21.877 -14.298  0.00  0.00    -0.257 NA
ATOM     14  N   UNL     1      28.756 -23.755 -17.395  0.00  0.00    -0.335 N 
ATOM     15  C   UNL     1      31.180 -23.111 -14.822  0.00  0.00    +0.178 C 
ATOM     16  C   UNL     1      30.473 -22.251 -14.011  0.00  0.00    +0.128 C 
ATOM     17  C   UNL     1      29.387 -23.257 -16.233  0.00  0.00    +0.179 C 
ATOM     18  C   UNL     1      28.679 -22.396 -15.423  0.00  0.00    +0.199 C 
ATOM     19  H   UNL     1      29.238 -24.371 -17.992  0.00  0.00    +0.144 HD
ATOM     20  H   UNL     1      27.833 -23.485 -17.608  0.00  0.00    +0.144 HD
ENDBRANCH   7  15
BRANCH   1  26
ATOM     21  C   UNL     1      35.802 -20.780 -19.382  0.00  0.00    +0.048 C 
ATOM     22  C   UNL     1      36.908 -20.912 -18.542  0.00  0.00    +0.016 C 
ATOM     23  C   UNL     1      34.672 -21.572 -19.177  0.00  0.00    +0.016 C 
ATOM     24  C   UNL     1      36.886 -21.838 -17.499  0.00  0.00    +0.016 C 
ATOM     25  C   UNL     1      34.650 -22.497 -18.134  0.00  0.00    +0.016 C 
ATOM     26  C   UNL     1      35.756 -22.631 -17.294  0.00  0.00    +0.050 C 
BRANCH  21  28
ATOM     27  N   UNL     1      35.854 -18.162 -22.727  0.00  0.00    +0.394 N 
ATOM     28  N   UNL     1      35.825 -19.851 -20.428  0.00  0.00    -0.312 N 
ATOM     29  C   UNL     1      34.613 -18.355 -21.966  0.00  0.00    -0.055 C 
ATOM     30  C   UNL     1      37.006 -18.196 -21.820  0.00  0.00    -0.055 C 
ATOM     31  C   UNL     1      34.618 -19.708 -21.251  0.00  0.00    +0.068 C 
ATOM     32  C   UNL     1      37.093 -19.543 -21.099  0.00  0.00    +0.068 C 
ATOM     33  H   UNL     1      35.945 -18.909 -23.415  0.00  0.00    -0.079 HD
BRANCH  27  35
ATOM     34  O   UNL     1      33.982 -15.882 -23.924  0.00  0.00    -0.358 OA
ATOM     35  C   UNL     1      35.809 -16.856 -23.409  0.00  0.00    +0.002 C 
ATOM     36  C   UNL     1      34.787 -16.918 -24.544  0.00  0.00    +0.124 C 
ATOM     37  C   UNL     1      34.776 -15.968 -22.714  0.00  0.00    +0.124 C 
ENDBRANCH  27  35
ENDBRANCH  21  28
ENDBRANCH   1  26
TORSDOF 4
ENDMDL
