MODEL 1
REMARK VINA RESULT:     -10.9      0.000      0.000
REMARK  Name = 213049
REMARK  9 active torsions:
REMARK  status: ('A' for Active; 'I' for Inactive)
REMARK    1  A    between atoms: C_3  and  C_13
REMARK    2  A    between atoms: C_4  and  N_25
REMARK    3  A    between atoms: C_16  and  C_17
REMARK    4  A    between atoms: C_17  and  O_18
REMARK    5  A    between atoms: C_17  and  C_20
REMARK    6  A    between atoms: C_20  and  O_21
REMARK    7  A    between atoms: C_26  and  C_29
REMARK    8  A    between atoms: C_29  and  O_30
REMARK    9  A    between atoms: O_30  and  C_33
REMARK                            x       y       z     vdW  Elec       q    Type
REMARK                         _______ _______ _______ _____ _____    ______ ____
ROOT
ATOM      1  F   UNL     1      32.323 -20.904 -19.081  0.00  0.00    -0.204 F 
ATOM      2  F   UNL     1      37.002 -21.758 -19.064  0.00  0.00    -0.204 F 
ATOM      3  C   UNL     1      34.658 -21.357 -19.041  0.00  0.00    +0.051 C 
ATOM      4  C   UNL     1      34.979 -19.641 -21.216  0.00  0.00    +0.062 C 
ATOM      5  C   UNL     1      33.550 -20.711 -19.589  0.00  0.00    +0.143 C 
ATOM      6  C   UNL     1      35.927 -21.145 -19.580  0.00  0.00    +0.143 C 
ATOM      7  C   UNL     1      33.710 -19.853 -20.677  0.00  0.00    +0.045 C 
ATOM      8  C   UNL     1      36.088 -20.288 -20.668  0.00  0.00    +0.045 C 
ENDROOT
BRANCH   3  13
ATOM      9  O   UNL     1      34.826 -24.077 -13.328  0.00  0.00    -0.272 OA
ATOM     10  N   UNL     1      34.173 -23.861 -15.551  0.00  0.00    -0.273 N 
ATOM     11  C   UNL     1      35.575 -22.303 -16.839  0.00  0.00    +0.048 C 
ATOM     12  C   UNL     1      35.531 -23.591 -16.023  0.00  0.00    +0.098 C 
ATOM     13  C   UNL     1      34.488 -22.269 -17.885  0.00  0.00    -0.019 C 
ATOM     14  C   UNL     1      33.137 -23.959 -16.588  0.00  0.00    +0.120 C 
ATOM     15  C   UNL     1      33.392 -23.040 -17.748  0.00  0.00    -0.009 C 
ATOM     16  C   UNL     1      33.960 -24.158 -14.202  0.00  0.00    +0.255 C 
BRANCH  16  17
ATOM     17  C   UNL     1      32.565 -24.593 -13.825  0.00  0.00    +0.217 C 
BRANCH  17  18
ATOM     18  O   UNL     1      32.726 -25.466 -12.725  0.00  0.00    -0.374 OA
ATOM     19  H   UNL     1      33.615 -25.357 -12.353  0.00  0.00    +0.211 HD
ENDBRANCH  17  18
BRANCH  17  20
ATOM     20  C   UNL     1      31.730 -23.404 -13.406  0.00  0.00    +0.176 C 
BRANCH  20  21
ATOM     21  O   UNL     1      32.250 -22.855 -12.203  0.00  0.00    -0.379 OA
ATOM     22  H   UNL     1      32.041 -21.909 -12.163  0.00  0.00    +0.211 HD
ENDBRANCH  20  21
ENDBRANCH  17  20
ENDBRANCH  16  17
ENDBRANCH   3  13
BRANCH   4  25
ATOM     23  O   UNL     1      35.120 -17.898 -24.411  0.00  0.00    -0.432 OA
ATOM     24  O   UNL     1      34.287 -19.993 -24.158  0.00  0.00    -0.226 OA
ATOM     25  N   UNL     1      35.143 -18.763 -22.326  0.00  0.00    -0.221 N 
ATOM     26  C   UNL     1      35.492 -16.823 -23.538  0.00  0.00    +0.234 C 
ATOM     27  C   UNL     1      35.827 -17.502 -22.228  0.00  0.00    +0.149 C 
ATOM     28  C   UNL     1      34.788 -18.999 -23.652  0.00  0.00    +0.409 C 
BRANCH  26  29
ATOM     29  C   UNL     1      34.325 -15.852 -23.429  0.00  0.00    +0.252 C 
BRANCH  29  30
ATOM     30  O   UNL     1      34.109 -15.553 -22.060  0.00  0.00    -0.454 OA
BRANCH  30  33
ATOM     31  O   UNL     1      32.396 -12.544 -22.167  0.00  0.00    -0.347 OA
ATOM     32  N   UNL     1      33.208 -13.517 -22.738  0.00  0.00    -0.039 NA
ATOM     33  C   UNL     1      33.350 -14.448 -21.791  0.00  0.00    +0.264 C 
ATOM     34  C   UNL     1      32.657 -14.121 -20.612  0.00  0.00    +0.104 C 
ATOM     35  C   UNL     1      32.075 -12.915 -20.901  0.00  0.00    +0.217 C 
ENDBRANCH  30  33
ENDBRANCH  29  30
ENDBRANCH  26  29
ENDBRANCH   4  25
TORSDOF 9
ENDMDL
MODEL 2
REMARK VINA RESULT:     -10.5      2.267      9.892
REMARK  Name = 213049
REMARK  9 active torsions:
REMARK  status: ('A' for Active; 'I' for Inactive)
REMARK    1  A    between atoms: C_3  and  C_13
REMARK    2  A    between atoms: C_4  and  N_25
REMARK    3  A    between atoms: C_16  and  C_17
REMARK    4  A    between atoms: C_17  and  O_18
REMARK    5  A    between atoms: C_17  and  C_20
REMARK    6  A    between atoms: C_20  and  O_21
REMARK    7  A    between atoms: C_26  and  C_29
REMARK    8  A    between atoms: C_29  and  O_30
REMARK    9  A    between atoms: O_30  and  C_33
REMARK                            x       y       z     vdW  Elec       q    Type
REMARK                         _______ _______ _______ _____ _____    ______ ____
ROOT
ATOM      1  F   UNL     1      37.158 -20.119 -20.396  0.00  0.00    -0.204 F 
ATOM      2  F   UNL     1      32.419 -19.800 -20.644  0.00  0.00    -0.204 F 
ATOM      3  C   UNL     1      34.791 -19.932 -20.552  0.00  0.00    +0.051 C 
ATOM      4  C   UNL     1      34.558 -21.825 -18.515  0.00  0.00    +0.062 C 
ATOM      5  C   UNL     1      35.936 -20.487 -19.979  0.00  0.00    +0.143 C 
ATOM      6  C   UNL     1      33.529 -20.325 -20.106  0.00  0.00    +0.143 C 
ATOM      7  C   UNL     1      35.820 -21.433 -18.961  0.00  0.00    +0.045 C 
ATOM      8  C   UNL     1      33.412 -21.271 -19.088  0.00  0.00    +0.045 C 
ENDROOT
BRANCH   3  13
ATOM      9  O   UNL     1      34.093 -16.543 -25.851  0.00  0.00    -0.272 OA
ATOM     10  N   UNL     1      34.963 -17.029 -23.748  0.00  0.00    -0.273 N 
ATOM     11  C   UNL     1      34.586 -19.354 -23.043  0.00  0.00    +0.048 C 
ATOM     12  C   UNL     1      35.223 -18.430 -24.075  0.00  0.00    +0.098 C 
ATOM     13  C   UNL     1      34.916 -18.927 -21.633  0.00  0.00    -0.019 C 
ATOM     14  C   UNL     1      35.407 -16.582 -22.422  0.00  0.00    +0.120 C 
ATOM     15  C   UNL     1      35.294 -17.660 -21.381  0.00  0.00    -0.009 C 
ATOM     16  C   UNL     1      34.466 -16.173 -24.735  0.00  0.00    +0.255 C 
BRANCH  16  17
ATOM     17  C   UNL     1      34.387 -14.710 -24.375  0.00  0.00    +0.217 C 
BRANCH  17  18
ATOM     18  O   UNL     1      33.829 -14.072 -25.506  0.00  0.00    -0.374 OA
ATOM     19  H   UNL     1      33.069 -13.534 -25.232  0.00  0.00    +0.211 HD
ENDBRANCH  17  18
BRANCH  17  20
ATOM     20  C   UNL     1      33.481 -14.503 -23.181  0.00  0.00    +0.176 C 
BRANCH  20  21
ATOM     21  O   UNL     1      33.715 -13.219 -22.621  0.00  0.00    -0.379 OA
ATOM     22  H   UNL     1      32.866 -12.790 -22.430  0.00  0.00    +0.211 HD
ENDBRANCH  20  21
ENDBRANCH  17  20
ENDBRANCH  16  17
ENDBRANCH   3  13
BRANCH   4  25
ATOM     23  O   UNL     1      34.815 -24.008 -15.612  0.00  0.00    -0.432 OA
ATOM     24  O   UNL     1      36.297 -22.354 -16.076  0.00  0.00    -0.226 OA
ATOM     25  N   UNL     1      34.438 -22.790 -17.475  0.00  0.00    -0.221 N 
ATOM     26  C   UNL     1      33.516 -24.392 -16.083  0.00  0.00    +0.234 C 
ATOM     27  C   UNL     1      33.443 -23.828 -17.485  0.00  0.00    +0.149 C 
ATOM     28  C   UNL     1      35.280 -22.961 -16.378  0.00  0.00    +0.409 C 
BRANCH  26  29
ATOM     29  C   UNL     1      32.464 -23.813 -15.148  0.00  0.00    +0.252 C 
BRANCH  29  30
ATOM     30  O   UNL     1      31.238 -24.491 -15.368  0.00  0.00    -0.454 OA
BRANCH  30  33
ATOM     31  O   UNL     1      29.002 -22.137 -16.576  0.00  0.00    -0.347 OA
ATOM     32  N   UNL     1      30.255 -22.738 -16.542  0.00  0.00    -0.039 NA
ATOM     33  C   UNL     1      30.148 -23.707 -15.629  0.00  0.00    +0.264 C 
ATOM     34  C   UNL     1      28.864 -23.767 -15.061  0.00  0.00    +0.104 C 
ATOM     35  C   UNL     1      28.182 -22.759 -15.690  0.00  0.00    +0.217 C 
ENDBRANCH  30  33
ENDBRANCH  29  30
ENDBRANCH  26  29
ENDBRANCH   4  25
TORSDOF 9
ENDMDL
MODEL 3
REMARK VINA RESULT:     -10.0      2.097      9.988
REMARK  Name = 213049
REMARK  9 active torsions:
REMARK  status: ('A' for Active; 'I' for Inactive)
REMARK    1  A    between atoms: C_3  and  C_13
REMARK    2  A    between atoms: C_4  and  N_25
REMARK    3  A    between atoms: C_16  and  C_17
REMARK    4  A    between atoms: C_17  and  O_18
REMARK    5  A    between atoms: C_17  and  C_20
REMARK    6  A    between atoms: C_20  and  O_21
REMARK    7  A    between atoms: C_26  and  C_29
REMARK    8  A    between atoms: C_29  and  O_30
REMARK    9  A    between atoms: O_30  and  C_33
REMARK                            x       y       z     vdW  Elec       q    Type
REMARK                         _______ _______ _______ _____ _____    ______ ____
ROOT
ATOM      1  F   UNL     1      32.578 -20.084 -20.561  0.00  0.00    -0.204 F 
ATOM      2  F   UNL     1      37.318 -20.120 -20.184  0.00  0.00    -0.204 F 
ATOM      3  C   UNL     1      34.951 -20.073 -20.403  0.00  0.00    +0.051 C 
ATOM      4  C   UNL     1      34.771 -21.932 -18.330  0.00  0.00    +0.062 C 
ATOM      5  C   UNL     1      33.702 -20.529 -19.980  0.00  0.00    +0.143 C 
ATOM      6  C   UNL     1      36.110 -20.547 -19.788  0.00  0.00    +0.143 C 
ATOM      7  C   UNL     1      33.612 -21.459 -18.944  0.00  0.00    +0.045 C 
ATOM      8  C   UNL     1      36.021 -21.476 -18.752  0.00  0.00    +0.045 C 
ENDROOT
BRANCH   3  13
ATOM      9  O   UNL     1      34.121 -16.780 -25.744  0.00  0.00    -0.272 OA
ATOM     10  N   UNL     1      35.037 -17.224 -23.651  0.00  0.00    -0.273 N 
ATOM     11  C   UNL     1      34.692 -19.540 -22.898  0.00  0.00    +0.048 C 
ATOM     12  C   UNL     1      35.302 -18.628 -23.959  0.00  0.00    +0.098 C 
ATOM     13  C   UNL     1      35.046 -19.086 -21.503  0.00  0.00    -0.019 C 
ATOM     14  C   UNL     1      35.503 -16.751 -22.341  0.00  0.00    +0.120 C 
ATOM     15  C   UNL     1      35.419 -17.812 -21.280  0.00  0.00    -0.009 C 
ATOM     16  C   UNL     1      34.513 -16.389 -24.642  0.00  0.00    +0.255 C 
BRANCH  16  17
ATOM     17  C   UNL     1      34.430 -14.920 -24.305  0.00  0.00    +0.217 C 
BRANCH  17  18
ATOM     18  O   UNL     1      33.796 -14.314 -25.413  0.00  0.00    -0.374 OA
ATOM     19  H   UNL     1      34.402 -14.310 -26.171  0.00  0.00    +0.211 HD
ENDBRANCH  17  18
BRANCH  17  20
ATOM     20  C   UNL     1      33.590 -14.705 -23.065  0.00  0.00    +0.176 C 
BRANCH  20  21
ATOM     21  O   UNL     1      32.908 -13.462 -23.159  0.00  0.00    -0.379 OA
ATOM     22  H   UNL     1      31.954 -13.622 -23.222  0.00  0.00    +0.211 HD
ENDBRANCH  20  21
ENDBRANCH  17  20
ENDBRANCH  16  17
ENDBRANCH   3  13
BRANCH   4  25
ATOM     23  O   UNL     1      35.170 -24.170 -15.485  0.00  0.00    -0.432 OA
ATOM     24  O   UNL     1      36.790 -22.756 -16.208  0.00  0.00    -0.226 OA
ATOM     25  N   UNL     1      34.680 -22.882 -17.273  0.00  0.00    -0.221 N 
ATOM     26  C   UNL     1      33.767 -24.343 -15.728  0.00  0.00    +0.234 C 
ATOM     27  C   UNL     1      33.549 -23.755 -17.105  0.00  0.00    +0.149 C 
ATOM     28  C   UNL     1      35.655 -23.196 -16.330  0.00  0.00    +0.409 C 
BRANCH  26  29
ATOM     29  C   UNL     1      32.987 -23.622 -14.637  0.00  0.00    +0.252 C 
BRANCH  29  30
ATOM     30  O   UNL     1      31.830 -23.042 -15.215  0.00  0.00    -0.454 OA
BRANCH  30  33
ATOM     31  O   UNL     1      28.595 -24.263 -15.435  0.00  0.00    -0.347 OA
ATOM     32  N   UNL     1      29.598 -23.369 -15.790  0.00  0.00    -0.039 NA
ATOM     33  C   UNL     1      30.664 -23.744 -15.078  0.00  0.00    +0.264 C 
ATOM     34  C   UNL     1      30.397 -24.859 -14.264  0.00  0.00    +0.104 C 
ATOM     35  C   UNL     1      29.084 -25.146 -14.525  0.00  0.00    +0.217 C 
ENDBRANCH  30  33
ENDBRANCH  29  30
ENDBRANCH  26  29
ENDBRANCH   4  25
TORSDOF 9
ENDMDL
MODEL 4
REMARK VINA RESULT:     -10.0      1.433      2.262
REMARK  Name = 213049
REMARK  9 active torsions:
REMARK  status: ('A' for Active; 'I' for Inactive)
REMARK    1  A    between atoms: C_3  and  C_13
REMARK    2  A    between atoms: C_4  and  N_25
REMARK    3  A    between atoms: C_16  and  C_17
REMARK    4  A    between atoms: C_17  and  O_18
REMARK    5  A    between atoms: C_17  and  C_20
REMARK    6  A    between atoms: C_20  and  O_21
REMARK    7  A    between atoms: C_26  and  C_29
REMARK    8  A    between atoms: C_29  and  O_30
REMARK    9  A    between atoms: O_30  and  C_33
REMARK                            x       y       z     vdW  Elec       q    Type
REMARK                         _______ _______ _______ _____ _____    ______ ____
ROOT
ATOM      1  F   UNL     1      32.836 -21.142 -19.003  0.00  0.00    -0.204 F 
ATOM      2  F   UNL     1      37.588 -21.281 -19.121  0.00  0.00    -0.204 F 
ATOM      3  C   UNL     1      35.213 -21.237 -19.029  0.00  0.00    +0.051 C 
ATOM      4  C   UNL     1      35.205 -19.581 -21.275  0.00  0.00    +0.062 C 
ATOM      5  C   UNL     1      34.004 -20.787 -19.561  0.00  0.00    +0.143 C 
ATOM      6  C   UNL     1      36.418 -20.859 -19.621  0.00  0.00    +0.143 C 
ATOM      7  C   UNL     1      34.000 -19.959 -20.683  0.00  0.00    +0.045 C 
ATOM      8  C   UNL     1      36.415 -20.031 -20.743  0.00  0.00    +0.045 C 
ENDROOT
BRANCH   3  13
ATOM      9  O   UNL     1      34.442 -26.038 -14.978  0.00  0.00    -0.272 OA
ATOM     10  N   UNL     1      35.224 -23.960 -15.673  0.00  0.00    -0.273 N 
ATOM     11  C   UNL     1      34.084 -23.100 -17.675  0.00  0.00    +0.048 C 
ATOM     12  C   UNL     1      33.933 -23.553 -16.226  0.00  0.00    +0.098 C 
ATOM     13  C   UNL     1      35.217 -22.117 -17.837  0.00  0.00    -0.019 C 
ATOM     14  C   UNL     1      36.290 -22.950 -15.712  0.00  0.00    +0.120 C 
ATOM     15  C   UNL     1      36.205 -22.066 -16.923  0.00  0.00    -0.009 C 
ATOM     16  C   UNL     1      35.334 -25.187 -15.014  0.00  0.00    +0.255 C 
BRANCH  16  17
ATOM     17  C   UNL     1      36.647 -25.460 -14.321  0.00  0.00    +0.217 C 
BRANCH  17  18
ATOM     18  O   UNL     1      36.350 -25.466 -12.940  0.00  0.00    -0.374 OA
ATOM     19  H   UNL     1      36.945 -26.080 -12.483  0.00  0.00    +0.211 HD
ENDBRANCH  17  18
BRANCH  17  20
ATOM     20  C   UNL     1      37.191 -26.813 -14.725  0.00  0.00    +0.176 C 
BRANCH  20  21
ATOM     21  O   UNL     1      36.691 -27.167 -16.006  0.00  0.00    -0.379 OA
ATOM     22  H   UNL     1      36.775 -28.125 -16.133  0.00  0.00    +0.211 HD
ENDBRANCH  20  21
ENDBRANCH  17  20
ENDBRANCH  16  17
ENDBRANCH   3  13
BRANCH   4  25
ATOM     23  O   UNL     1      34.888 -17.936 -24.508  0.00  0.00    -0.432 OA
ATOM     24  O   UNL     1      34.155 -20.042 -24.092  0.00  0.00    -0.226 OA
ATOM     25  N   UNL     1      35.201 -18.735 -22.420  0.00  0.00    -0.221 N 
ATOM     26  C   UNL     1      35.338 -16.824 -23.719  0.00  0.00    +0.234 C 
ATOM     27  C   UNL     1      35.856 -17.454 -22.445  0.00  0.00    +0.149 C 
ATOM     28  C   UNL     1      34.687 -19.020 -23.682  0.00  0.00    +0.409 C 
BRANCH  26  29
ATOM     29  C   UNL     1      34.166 -15.881 -23.488  0.00  0.00    +0.252 C 
BRANCH  29  30
ATOM     30  O   UNL     1      34.104 -15.563 -22.108  0.00  0.00    -0.454 OA
BRANCH  30  33
ATOM     31  O   UNL     1      32.189 -12.677 -22.054  0.00  0.00    -0.347 OA
ATOM     32  N   UNL     1      32.970 -13.621 -22.710  0.00  0.00    -0.039 NA
ATOM     33  C   UNL     1      33.320 -14.497 -21.764  0.00  0.00    +0.264 C 
ATOM     34  C   UNL     1      32.794 -14.161 -20.504  0.00  0.00    +0.104 C 
ATOM     35  C   UNL     1      32.092 -13.009 -20.741  0.00  0.00    +0.217 C 
ENDBRANCH  30  33
ENDBRANCH  29  30
ENDBRANCH  26  29
ENDBRANCH   4  25
TORSDOF 9
ENDMDL
MODEL 5
REMARK VINA RESULT:      -9.9      3.647     11.178
REMARK  Name = 213049
REMARK  9 active torsions:
REMARK  status: ('A' for Active; 'I' for Inactive)
REMARK    1  A    between atoms: C_3  and  C_13
REMARK    2  A    between atoms: C_4  and  N_25
REMARK    3  A    between atoms: C_16  and  C_17
REMARK    4  A    between atoms: C_17  and  O_18
REMARK    5  A    between atoms: C_17  and  C_20
REMARK    6  A    between atoms: C_20  and  O_21
REMARK    7  A    between atoms: C_26  and  C_29
REMARK    8  A    between atoms: C_29  and  O_30
REMARK    9  A    between atoms: O_30  and  C_33
REMARK                            x       y       z     vdW  Elec       q    Type
REMARK                         _______ _______ _______ _____ _____    ______ ____
ROOT
ATOM      1  F   UNL     1      33.791 -14.305 -19.775  0.00  0.00    -0.204 F 
ATOM      2  F   UNL     1      34.360 -14.937 -24.454  0.00  0.00    -0.204 F 
ATOM      3  C   UNL     1      34.062 -14.582 -22.122  0.00  0.00    +0.051 C 
ATOM      4  C   UNL     1      35.027 -17.158 -21.656  0.00  0.00    +0.062 C 
ATOM      5  C   UNL     1      34.159 -15.066 -20.817  0.00  0.00    +0.143 C 
ATOM      6  C   UNL     1      34.448 -15.387 -23.194  0.00  0.00    +0.143 C 
ATOM      7  C   UNL     1      34.641 -16.354 -20.584  0.00  0.00    +0.045 C 
ATOM      8  C   UNL     1      34.931 -16.674 -22.962  0.00  0.00    +0.045 C 
ENDROOT
BRANCH   3  13
ATOM      9  O   UNL     1      31.681  -8.749 -21.517  0.00  0.00    -0.272 OA
ATOM     10  N   UNL     1      32.628 -10.541 -22.661  0.00  0.00    -0.273 N 
ATOM     11  C   UNL     1      32.499 -12.668 -21.433  0.00  0.00    +0.048 C 
ATOM     12  C   UNL     1      31.719 -11.522 -22.069  0.00  0.00    +0.098 C 
ATOM     13  C   UNL     1      33.550 -13.214 -22.369  0.00  0.00    -0.019 C 
ATOM     14  C   UNL     1      33.563 -11.054 -23.671  0.00  0.00    +0.120 C 
ATOM     15  C   UNL     1      34.011 -12.459 -23.384  0.00  0.00    -0.009 C 
ATOM     16  C   UNL     1      32.465  -9.185 -22.363  0.00  0.00    +0.255 C 
BRANCH  16  17
ATOM     17  C   UNL     1      33.325  -8.221 -23.143  0.00  0.00    +0.217 C 
BRANCH  17  18
ATOM     18  O   UNL     1      32.424  -7.335 -23.774  0.00  0.00    -0.374 OA
ATOM     19  H   UNL     1      32.209  -6.606 -23.171  0.00  0.00    +0.211 HD
ENDBRANCH  17  18
BRANCH  17  20
ATOM     20  C   UNL     1      34.228  -7.441 -22.212  0.00  0.00    +0.176 C 
BRANCH  20  21
ATOM     21  O   UNL     1      35.527  -7.341 -22.779  0.00  0.00    -0.379 OA
ATOM     22  H   UNL     1      36.179  -7.214 -22.073  0.00  0.00    +0.211 HD
ENDBRANCH  20  21
ENDBRANCH  17  20
ENDBRANCH  16  17
ENDBRANCH   3  13
BRANCH   4  25
ATOM     23  O   UNL     1      36.891 -20.227 -21.050  0.00  0.00    -0.432 OA
ATOM     24  O   UNL     1      37.865 -18.194 -21.297  0.00  0.00    -0.226 OA
ATOM     25  N   UNL     1      35.518 -18.474 -21.419  0.00  0.00    -0.221 N 
ATOM     26  C   UNL     1      35.557 -20.716 -20.846  0.00  0.00    +0.234 C 
ATOM     27  C   UNL     1      34.670 -19.635 -21.424  0.00  0.00    +0.149 C 
ATOM     28  C   UNL     1      36.844 -18.866 -21.255  0.00  0.00    +0.409 C 
BRANCH  26  29
ATOM     29  C   UNL     1      35.339 -20.938 -19.356  0.00  0.00    +0.252 C 
BRANCH  29  30
ATOM     30  O   UNL     1      34.982 -22.294 -19.147  0.00  0.00    -0.454 OA
BRANCH  30  33
ATOM     31  O   UNL     1      31.923 -22.432 -17.528  0.00  0.00    -0.347 OA
ATOM     32  N   UNL     1      32.740 -22.031 -18.578  0.00  0.00    -0.039 NA
ATOM     33  C   UNL     1      33.946 -22.525 -18.284  0.00  0.00    +0.264 C 
ATOM     34  C   UNL     1      33.951 -23.240 -17.074  0.00  0.00    +0.104 C 
ATOM     35  C   UNL     1      32.655 -23.150 -16.638  0.00  0.00    +0.217 C 
ENDBRANCH  30  33
ENDBRANCH  29  30
ENDBRANCH  26  29
ENDBRANCH   4  25
TORSDOF 9
ENDMDL
MODEL 6
REMARK VINA RESULT:      -9.9      2.482     10.649
REMARK  Name = 213049
REMARK  9 active torsions:
REMARK  status: ('A' for Active; 'I' for Inactive)
REMARK    1  A    between atoms: C_3  and  C_13
REMARK    2  A    between atoms: C_4  and  N_25
REMARK    3  A    between atoms: C_16  and  C_17
REMARK    4  A    between atoms: C_17  and  O_18
REMARK    5  A    between atoms: C_17  and  C_20
REMARK    6  A    between atoms: C_20  and  O_21
REMARK    7  A    between atoms: C_26  and  C_29
REMARK    8  A    between atoms: C_29  and  O_30
REMARK    9  A    between atoms: O_30  and  C_33
REMARK                            x       y       z     vdW  Elec       q    Type
REMARK                         _______ _______ _______ _____ _____    ______ ____
ROOT
ATOM      1  F   UNL     1      32.550 -20.245 -20.355  0.00  0.00    -0.204 F 
ATOM      2  F   UNL     1      37.281 -20.506 -19.947  0.00  0.00    -0.204 F 
ATOM      3  C   UNL     1      34.921 -20.349 -20.183  0.00  0.00    +0.051 C 
ATOM      4  C   UNL     1      34.637 -22.067 -18.003  0.00  0.00    +0.062 C 
ATOM      5  C   UNL     1      33.648 -20.712 -19.741  0.00  0.00    +0.143 C 
ATOM      6  C   UNL     1      36.051 -20.845 -19.534  0.00  0.00    +0.143 C 
ATOM      7  C   UNL     1      33.506 -21.571 -18.652  0.00  0.00    +0.045 C 
ATOM      8  C   UNL     1      35.910 -21.703 -18.444  0.00  0.00    +0.045 C 
ENDROOT
BRANCH   3  13
ATOM      9  O   UNL     1      34.219 -17.279 -25.673  0.00  0.00    -0.272 OA
ATOM     10  N   UNL     1      35.164 -17.699 -23.589  0.00  0.00    -0.273 N 
ATOM     11  C   UNL     1      34.622 -19.926 -22.695  0.00  0.00    +0.048 C 
ATOM     12  C   UNL     1      35.278 -19.138 -23.825  0.00  0.00    +0.098 C 
ATOM     13  C   UNL     1      35.071 -19.436 -21.340  0.00  0.00    -0.019 C 
ATOM     14  C   UNL     1      35.723 -17.206 -22.323  0.00  0.00    +0.120 C 
ATOM     15  C   UNL     1      35.575 -18.195 -21.202  0.00  0.00    -0.009 C 
ATOM     16  C   UNL     1      34.688 -16.871 -24.608  0.00  0.00    +0.255 C 
BRANCH  16  17
ATOM     17  C   UNL     1      34.762 -15.385 -24.353  0.00  0.00    +0.217 C 
BRANCH  17  18
ATOM     18  O   UNL     1      34.278 -14.774 -25.531  0.00  0.00    -0.374 OA
ATOM     19  H   UNL     1      34.528 -13.837 -25.538  0.00  0.00    +0.211 HD
ENDBRANCH  17  18
BRANCH  17  20
ATOM     20  C   UNL     1      33.880 -15.000 -23.186  0.00  0.00    +0.176 C 
BRANCH  20  21
ATOM     21  O   UNL     1      34.453 -13.899 -22.495  0.00  0.00    -0.379 OA
ATOM     22  H   UNL     1      35.093 -14.224 -21.844  0.00  0.00    +0.211 HD
ENDBRANCH  20  21
ENDBRANCH  17  20
ENDBRANCH  16  17
ENDBRANCH   3  13
BRANCH   4  25
ATOM     23  O   UNL     1      33.672 -24.469 -15.442  0.00  0.00    -0.432 OA
ATOM     24  O   UNL     1      32.381 -23.958 -17.235  0.00  0.00    -0.226 OA
ATOM     25  N   UNL     1      34.492 -22.945 -16.891  0.00  0.00    -0.221 N 
ATOM     26  C   UNL     1      35.033 -24.238 -15.049  0.00  0.00    +0.234 C 
ATOM     27  C   UNL     1      35.434 -22.990 -15.806  0.00  0.00    +0.149 C 
ATOM     28  C   UNL     1      33.422 -23.793 -16.616  0.00  0.00    +0.409 C 
BRANCH  26  29
ATOM     29  C   UNL     1      35.864 -25.457 -15.420  0.00  0.00    +0.252 C 
BRANCH  29  30
ATOM     30  O   UNL     1      36.516 -25.934 -14.254  0.00  0.00    -0.454 OA
BRANCH  30  33
ATOM     31  O   UNL     1      39.814 -26.983 -14.393  0.00  0.00    -0.347 OA
ATOM     32  N   UNL     1      38.448 -27.229 -14.333  0.00  0.00    -0.039 NA
ATOM     33  C   UNL     1      37.880 -26.021 -14.312  0.00  0.00    +0.264 C 
ATOM     34  C   UNL     1      38.827 -24.983 -14.358  0.00  0.00    +0.104 C 
ATOM     35  C   UNL     1      40.028 -25.641 -14.407  0.00  0.00    +0.217 C 
ENDBRANCH  30  33
ENDBRANCH  29  30
ENDBRANCH  26  29
ENDBRANCH   4  25
TORSDOF 9
ENDMDL
MODEL 7
REMARK VINA RESULT:      -9.7      3.430      5.606
REMARK  Name = 213049
REMARK  9 active torsions:
REMARK  status: ('A' for Active; 'I' for Inactive)
REMARK    1  A    between atoms: C_3  and  C_13
REMARK    2  A    between atoms: C_4  and  N_25
REMARK    3  A    between atoms: C_16  and  C_17
REMARK    4  A    between atoms: C_17  and  O_18
REMARK    5  A    between atoms: C_17  and  C_20
REMARK    6  A    between atoms: C_20  and  O_21
REMARK    7  A    between atoms: C_26  and  C_29
REMARK    8  A    between atoms: C_29  and  O_30
REMARK    9  A    between atoms: O_30  and  C_33
REMARK                            x       y       z     vdW  Elec       q    Type
REMARK                         _______ _______ _______ _____ _____    ______ ____
ROOT
ATOM      1  F   UNL     1      35.208 -18.165 -23.999  0.00  0.00    -0.204 F 
ATOM      2  F   UNL     1      34.486 -16.116 -19.769  0.00  0.00    -0.204 F 
ATOM      3  C   UNL     1      34.854 -17.177 -21.864  0.00  0.00    +0.051 C 
ATOM      4  C   UNL     1      34.460 -14.719 -23.124  0.00  0.00    +0.062 C 
ATOM      5  C   UNL     1      34.939 -17.082 -23.254  0.00  0.00    +0.143 C 
ATOM      6  C   UNL     1      34.573 -16.041 -21.105  0.00  0.00    +0.143 C 
ATOM      7  C   UNL     1      34.741 -15.854 -23.884  0.00  0.00    +0.045 C 
ATOM      8  C   UNL     1      34.375 -14.812 -21.734  0.00  0.00    +0.045 C 
ENDROOT
BRANCH   3  13
ATOM      9  O   UNL     1      36.967 -21.911 -18.233  0.00  0.00    -0.272 OA
ATOM     10  N   UNL     1      35.536 -20.888 -19.757  0.00  0.00    -0.273 N 
ATOM     11  C   UNL     1      36.461 -18.835 -20.748  0.00  0.00    +0.048 C 
ATOM     12  C   UNL     1      36.629 -20.340 -20.560  0.00  0.00    +0.098 C 
ATOM     13  C   UNL     1      35.064 -18.482 -21.196  0.00  0.00    -0.019 C 
ATOM     14  C   UNL     1      34.180 -20.655 -20.269  0.00  0.00    +0.120 C 
ATOM     15  C   UNL     1      34.045 -19.334 -20.971  0.00  0.00    -0.009 C 
ATOM     16  C   UNL     1      35.830 -21.711 -18.667  0.00  0.00    +0.255 C 
BRANCH  16  17
ATOM     17  C   UNL     1      34.654 -22.377 -17.995  0.00  0.00    +0.217 C 
BRANCH  17  18
ATOM     18  O   UNL     1      34.391 -23.538 -18.757  0.00  0.00    -0.374 OA
ATOM     19  H   UNL     1      34.937 -23.530 -19.558  0.00  0.00    +0.211 HD
ENDBRANCH  17  18
BRANCH  17  20
ATOM     20  C   UNL     1      35.004 -22.773 -16.578  0.00  0.00    +0.176 C 
BRANCH  20  21
ATOM     21  O   UNL     1      34.689 -24.143 -16.372  0.00  0.00    -0.379 OA
ATOM     22  H   UNL     1      33.850 -24.213 -15.890  0.00  0.00    +0.211 HD
ENDBRANCH  20  21
ENDBRANCH  17  20
ENDBRANCH  16  17
ENDBRANCH   3  13
BRANCH   4  25
ATOM     23  O   UNL     1      33.624 -11.876 -25.240  0.00  0.00    -0.432 OA
ATOM     24  O   UNL     1      33.070 -14.018 -25.738  0.00  0.00    -0.226 OA
ATOM     25  N   UNL     1      34.257 -13.464 -23.766  0.00  0.00    -0.221 N 
ATOM     26  C   UNL     1      34.113 -11.176 -24.087  0.00  0.00    +0.234 C 
ATOM     27  C   UNL     1      34.831 -12.238 -23.282  0.00  0.00    +0.149 C 
ATOM     28  C   UNL     1      33.595 -13.226 -24.969  0.00  0.00    +0.409 C 
BRANCH  26  29
ATOM     29  C   UNL     1      32.933 -10.560 -23.350  0.00  0.00    +0.252 C 
BRANCH  29  30
ATOM     30  O   UNL     1      33.134  -9.160 -23.261  0.00  0.00    -0.454 OA
BRANCH  30  33
ATOM     31  O   UNL     1      31.911  -8.356 -20.121  0.00  0.00    -0.347 OA
ATOM     32  N   UNL     1      31.975  -9.174 -21.242  0.00  0.00    -0.039 NA
ATOM     33  C   UNL     1      32.853  -8.580 -22.054  0.00  0.00    +0.264 C 
ATOM     34  C   UNL     1      33.372  -7.395 -21.504  0.00  0.00    +0.104 C 
ATOM     35  C   UNL     1      32.748  -7.299 -20.289  0.00  0.00    +0.217 C 
ENDBRANCH  30  33
ENDBRANCH  29  30
ENDBRANCH  26  29
ENDBRANCH   4  25
TORSDOF 9
ENDMDL
MODEL 8
REMARK VINA RESULT:      -9.6      6.366     10.844
REMARK  Name = 213049
REMARK  9 active torsions:
REMARK  status: ('A' for Active; 'I' for Inactive)
REMARK    1  A    between atoms: C_3  and  C_13
REMARK    2  A    between atoms: C_4  and  N_25
REMARK    3  A    between atoms: C_16  and  C_17
REMARK    4  A    between atoms: C_17  and  O_18
REMARK    5  A    between atoms: C_17  and  C_20
REMARK    6  A    between atoms: C_20  and  O_21
REMARK    7  A    between atoms: C_26  and  C_29
REMARK    8  A    between atoms: C_29  and  O_30
REMARK    9  A    between atoms: O_30  and  C_33
REMARK                            x       y       z     vdW  Elec       q    Type
REMARK                         _______ _______ _______ _____ _____    ______ ____
ROOT
ATOM      1  F   UNL     1      34.318 -11.258 -23.902  0.00  0.00    -0.204 F 
ATOM      2  F   UNL     1      31.424 -12.384 -20.301  0.00  0.00    -0.204 F 
ATOM      3  C   UNL     1      32.884 -11.861 -22.103  0.00  0.00    +0.051 C 
ATOM      4  C   UNL     1      32.084  -9.195 -21.912  0.00  0.00    +0.062 C 
ATOM      5  C   UNL     1      33.418 -10.908 -22.970  0.00  0.00    +0.143 C 
ATOM      6  C   UNL     1      31.949 -11.480 -21.140  0.00  0.00    +0.143 C 
ATOM      7  C   UNL     1      33.019  -9.575 -22.875  0.00  0.00    +0.045 C 
ATOM      8  C   UNL     1      31.549 -10.148 -21.044  0.00  0.00    +0.045 C 
ENDROOT
BRANCH   3  13
ATOM      9  O   UNL     1      35.729 -17.286 -23.695  0.00  0.00    -0.272 OA
ATOM     10  N   UNL     1      34.302 -15.928 -22.456  0.00  0.00    -0.273 N 
ATOM     11  C   UNL     1      33.807 -13.776 -23.538  0.00  0.00    +0.048 C 
ATOM     12  C   UNL     1      33.721 -15.296 -23.639  0.00  0.00    +0.098 C 
ATOM     13  C   UNL     1      33.309 -13.277 -22.204  0.00  0.00    -0.019 C 
ATOM     14  C   UNL     1      33.722 -15.537 -21.164  0.00  0.00    +0.120 C 
ATOM     15  C   UNL     1      33.274 -14.103 -21.142  0.00  0.00    -0.009 C 
ATOM     16  C   UNL     1      35.239 -16.953 -22.614  0.00  0.00    +0.255 C 
BRANCH  16  17
ATOM     17  C   UNL     1      35.663 -17.673 -21.356  0.00  0.00    +0.217 C 
BRANCH  17  18
ATOM     18  O   UNL     1      34.667 -18.648 -21.126  0.00  0.00    -0.374 OA
ATOM     19  H   UNL     1      34.859 -19.438 -21.656  0.00  0.00    +0.211 HD
ENDBRANCH  17  18
BRANCH  17  20
ATOM     20  C   UNL     1      36.999 -18.353 -21.557  0.00  0.00    +0.176 C 
BRANCH  20  21
ATOM     21  O   UNL     1      37.558 -18.690 -20.295  0.00  0.00    -0.379 OA
ATOM     22  H   UNL     1      38.247 -18.048 -20.065  0.00  0.00    +0.211 HD
ENDBRANCH  20  21
ENDBRANCH  17  20
ENDBRANCH  16  17
ENDBRANCH   3  13
BRANCH   4  25
ATOM     23  O   UNL     1      31.382  -5.719 -21.085  0.00  0.00    -0.432 OA
ATOM     24  O   UNL     1      32.623  -7.096 -19.777  0.00  0.00    -0.226 OA
ATOM     25  N   UNL     1      31.675  -7.834 -21.816  0.00  0.00    -0.221 N 
ATOM     26  C   UNL     1      30.870  -5.751 -22.424  0.00  0.00    +0.234 C 
ATOM     27  C   UNL     1      30.767  -7.225 -22.750  0.00  0.00    +0.149 C 
ATOM     28  C   UNL     1      31.975  -6.929 -20.800  0.00  0.00    +0.409 C 
BRANCH  26  29
ATOM     29  C   UNL     1      31.831  -5.001 -23.336  0.00  0.00    +0.252 C 
BRANCH  29  30
ATOM     30  O   UNL     1      32.223  -5.864 -24.390  0.00  0.00    -0.454 OA
BRANCH  30  33
ATOM     31  O   UNL     1      35.646  -5.847 -24.922  0.00  0.00    -0.347 OA
ATOM     32  N   UNL     1      34.520  -6.175 -24.176  0.00  0.00    -0.039 NA
ATOM     33  C   UNL     1      33.490  -5.693 -24.876  0.00  0.00    +0.264 C 
ATOM     34  C   UNL     1      33.900  -5.058 -26.062  0.00  0.00    +0.104 C 
ATOM     35  C   UNL     1      35.264  -5.182 -26.043  0.00  0.00    +0.217 C 
ENDBRANCH  30  33
ENDBRANCH  29  30
ENDBRANCH  26  29
ENDBRANCH   4  25
TORSDOF 9
ENDMDL
MODEL 9
REMARK VINA RESULT:      -9.4      7.057      9.796
REMARK  Name = 213049
REMARK  9 active torsions:
REMARK  status: ('A' for Active; 'I' for Inactive)
REMARK    1  A    between atoms: C_3  and  C_13
REMARK    2  A    between atoms: C_4  and  N_25
REMARK    3  A    between atoms: C_16  and  C_17
REMARK    4  A    between atoms: C_17  and  O_18
REMARK    5  A    between atoms: C_17  and  C_20
REMARK    6  A    between atoms: C_20  and  O_21
REMARK    7  A    between atoms: C_26  and  C_29
REMARK    8  A    between atoms: C_29  and  O_30
REMARK    9  A    between atoms: O_30  and  C_33
REMARK                            x       y       z     vdW  Elec       q    Type
REMARK                         _______ _______ _______ _____ _____    ______ ____
ROOT
ATOM      1  F   UNL     1      32.961 -25.275 -13.406  0.00  0.00    -0.204 F 
ATOM      2  F   UNL     1      33.611 -22.461 -17.184  0.00  0.00    -0.204 F 
ATOM      3  C   UNL     1      33.245 -23.861 -15.298  0.00  0.00    +0.051 C 
ATOM      4  C   UNL     1      36.002 -24.244 -15.108  0.00  0.00    +0.062 C 
ATOM      5  C   UNL     1      33.770 -24.671 -14.291  0.00  0.00    +0.143 C 
ATOM      6  C   UNL     1      34.100 -23.241 -16.210  0.00  0.00    +0.143 C 
ATOM      7  C   UNL     1      35.148 -24.863 -14.196  0.00  0.00    +0.045 C 
ATOM      8  C   UNL     1      35.478 -23.432 -16.115  0.00  0.00    +0.045 C 
ENDROOT
BRANCH   3  13
ATOM      9  O   UNL     1      27.309 -21.764 -14.640  0.00  0.00    -0.272 OA
ATOM     10  N   UNL     1      29.002 -23.076 -15.550  0.00  0.00    -0.273 N 
ATOM     11  C   UNL     1      31.054 -23.110 -14.194  0.00  0.00    +0.048 C 
ATOM     12  C   UNL     1      29.562 -23.426 -14.245  0.00  0.00    +0.098 C 
ATOM     13  C   UNL     1      31.781 -23.657 -15.399  0.00  0.00    -0.019 C 
ATOM     14  C   UNL     1      29.629 -23.716 -16.714  0.00  0.00    +0.120 C 
ATOM     15  C   UNL     1      31.105 -23.931 -16.530  0.00  0.00    -0.009 C 
ATOM     16  C   UNL     1      27.840 -22.302 -15.614  0.00  0.00    +0.255 C 
BRANCH  16  17
ATOM     17  C   UNL     1      27.227 -22.129 -16.982  0.00  0.00    +0.217 C 
BRANCH  17  18
ATOM     18  O   UNL     1      26.997 -23.438 -17.462  0.00  0.00    -0.374 OA
ATOM     19  H   UNL     1      27.729 -24.015 -17.192  0.00  0.00    +0.211 HD
ENDBRANCH  17  18
BRANCH  17  20
ATOM     20  C   UNL     1      25.910 -21.390 -16.886  0.00  0.00    +0.176 C 
BRANCH  20  21
ATOM     21  O   UNL     1      25.988 -20.176 -17.619  0.00  0.00    -0.379 OA
ATOM     22  H   UNL     1      26.661 -20.260 -18.312  0.00  0.00    +0.211 HD
ENDBRANCH  20  21
ENDBRANCH  17  20
ENDBRANCH  16  17
ENDBRANCH   3  13
BRANCH   4  25
ATOM     23  O   UNL     1      39.640 -24.102 -15.061  0.00  0.00    -0.432 OA
ATOM     24  O   UNL     1      38.322 -22.350 -15.641  0.00  0.00    -0.226 OA
ATOM     25  N   UNL     1      37.409 -24.440 -15.011  0.00  0.00    -0.221 N 
ATOM     26  C   UNL     1      39.445 -25.379 -14.437  0.00  0.00    +0.234 C 
ATOM     27  C   UNL     1      38.000 -25.720 -14.726  0.00  0.00    +0.149 C 
ATOM     28  C   UNL     1      38.414 -23.510 -15.267  0.00  0.00    +0.409 C 
BRANCH  26  29
ATOM     29  C   UNL     1      39.745 -25.250 -12.950  0.00  0.00    +0.252 C 
BRANCH  29  30
ATOM     30  O   UNL     1      38.602 -25.661 -12.219  0.00  0.00    -0.454 OA
BRANCH  30  33
ATOM     31  O   UNL     1      37.569 -22.750 -10.650  0.00  0.00    -0.347 OA
ATOM     32  N   UNL     1      38.525 -23.526 -11.296  0.00  0.00    -0.039 NA
ATOM     33  C   UNL     1      37.907 -24.677 -11.572  0.00  0.00    +0.264 C 
ATOM     34  C   UNL     1      36.572 -24.687 -11.130  0.00  0.00    +0.104 C 
ATOM     35  C   UNL     1      36.410 -23.453 -10.557  0.00  0.00    +0.217 C 
ENDBRANCH  30  33
ENDBRANCH  29  30
ENDBRANCH  26  29
ENDBRANCH   4  25
TORSDOF 9
ENDMDL
