MODEL 1
REMARK VINA RESULT:     -11.7      0.000      0.000
REMARK  Name = 24941254
REMARK  6 active torsions:
REMARK  status: ('A' for Active; 'I' for Inactive)
REMARK    1  A    between atoms: C_1  and  S_21
REMARK    2  A    between atoms: C_4  and  C_9
REMARK    3  A    between atoms: N_8  and  C_11
REMARK    4  A    between atoms: C_12  and  C_18
REMARK    5  A    between atoms: C_18  and  O_19
REMARK    6  A    between atoms: S_21  and  N_24
REMARK                            x       y       z     vdW  Elec       q    Type
REMARK                         _______ _______ _______ _____ _____    ______ ____
ROOT
ATOM      1  C   UNL     1      31.980  -9.076 -20.635  0.00  0.00    +0.122 C 
ATOM      2  C   UNL     1      32.607  -9.802 -21.648  0.00  0.00    +0.024 C 
ATOM      3  C   UNL     1      31.179  -9.734 -19.701  0.00  0.00    +0.020 C 
ATOM      4  C   UNL     1      32.433 -11.183 -21.727  0.00  0.00    +0.055 C 
ATOM      5  C   UNL     1      31.005 -11.116 -19.780  0.00  0.00    +0.002 C 
ATOM      6  C   UNL     1      31.633 -11.840 -20.794  0.00  0.00    +0.005 C 
ENDROOT
BRANCH   4   9
ATOM      7  O   UNL     1      33.718 -11.329 -23.661  0.00  0.00    -0.270 OA
ATOM      8  N   UNL     1      32.968 -13.334 -22.702  0.00  0.00    -0.280 N 
ATOM      9  C   UNL     1      33.088 -11.940 -22.783  0.00  0.00    +0.250 C 
ATOM     10  H   UNL     1      32.435 -13.675 -21.947  0.00  0.00    +0.155 HD
BRANCH   8  11
ATOM     11  C   UNL     1      33.513 -14.318 -23.562  0.00  0.00    +0.057 C 
ATOM     12  C   UNL     1      34.319 -15.342 -23.064  0.00  0.00    +0.089 C 
ATOM     13  C   UNL     1      33.234 -14.253 -24.927  0.00  0.00    +0.015 C 
ATOM     14  C   UNL     1      34.845 -16.300 -23.931  0.00  0.00    +0.008 C 
ATOM     15  C   UNL     1      33.761 -15.210 -25.794  0.00  0.00    +0.001 C 
ATOM     16  C   UNL     1      34.566 -16.233 -25.296  0.00  0.00    +0.000 C 
BRANCH  12  18
ATOM     17  O   UNL     1      34.608 -14.503 -20.843  0.00  0.00    -0.245 OA
ATOM     18  C   UNL     1      34.631 -15.440 -21.643  0.00  0.00    +0.339 C 
BRANCH  18  19
ATOM     19  O   UNL     1      34.960 -16.707 -21.273  0.00  0.00    -0.477 OA
ATOM     20  H   UNL     1      35.513 -16.849 -20.530  0.00  0.00    +0.295 HD
ENDBRANCH  18  19
ENDBRANCH  12  18
ENDBRANCH   8  11
ENDBRANCH   4   9
BRANCH   1  21
ATOM     21  S   UNL     1      32.197  -7.327 -20.535  0.00  0.00    +0.064 S 
ATOM     22  O   UNL     1      30.888  -6.714 -20.610  0.00  0.00    -0.153 OA
ATOM     23  O   UNL     1      33.086  -7.052 -19.426  0.00  0.00    -0.153 OA
BRANCH  21  24
ATOM     24  N   UNL     1      33.033  -7.045 -22.002  0.00  0.00    -0.151 NA
ATOM     25  C   UNL     1      34.517  -7.127 -21.929  0.00  0.00    +0.101 C 
ATOM     26  C   UNL     1      32.578  -5.853 -22.781  0.00  0.00    +0.122 C 
ATOM     27  C   UNL     1      35.065  -7.340 -23.338  0.00  0.00    +0.045 C 
ATOM     28  C   UNL     1      33.347  -5.627 -24.061  0.00  0.00    -0.008 C 
ATOM     29  C   UNL     1      34.549  -6.311 -24.311  0.00  0.00    -0.023 C 
ATOM     30  C   UNL     1      32.876  -4.693 -24.992  0.00  0.00    -0.003 C 
ATOM     31  C   UNL     1      35.242  -6.074 -25.506  0.00  0.00    -0.004 C 
ATOM     32  C   UNL     1      33.579  -4.455 -26.173  0.00  0.00    -0.000 C 
ATOM     33  C   UNL     1      34.761  -5.147 -26.430  0.00  0.00    -0.000 C 
ENDBRANCH  21  24
ENDBRANCH   1  21
TORSDOF 6
ENDMDL
MODEL 2
REMARK VINA RESULT:     -11.7      7.269     11.326
REMARK  Name = 24941254
REMARK  6 active torsions:
REMARK  status: ('A' for Active; 'I' for Inactive)
REMARK    1  A    between atoms: C_1  and  S_21
REMARK    2  A    between atoms: C_4  and  C_9
REMARK    3  A    between atoms: N_8  and  C_11
REMARK    4  A    between atoms: C_12  and  C_18
REMARK    5  A    between atoms: C_18  and  O_19
REMARK    6  A    between atoms: S_21  and  N_24
REMARK                            x       y       z     vdW  Elec       q    Type
REMARK                         _______ _______ _______ _____ _____    ______ ____
ROOT
ATOM      1  C   UNL     1      35.201 -19.834 -21.062  0.00  0.00    +0.122 C 
ATOM      2  C   UNL     1      35.835 -20.515 -20.023  0.00  0.00    +0.024 C 
ATOM      3  C   UNL     1      33.813 -19.897 -21.191  0.00  0.00    +0.020 C 
ATOM      4  C   UNL     1      35.082 -21.258 -19.113  0.00  0.00    +0.055 C 
ATOM      5  C   UNL     1      33.060 -20.640 -20.282  0.00  0.00    +0.002 C 
ATOM      6  C   UNL     1      33.696 -21.320 -19.243  0.00  0.00    +0.005 C 
ENDROOT
BRANCH   4   9
ATOM      7  O   UNL     1      36.983 -22.033 -18.019  0.00  0.00    -0.270 OA
ATOM      8  N   UNL     1      34.901 -22.510 -17.049  0.00  0.00    -0.280 N 
ATOM      9  C   UNL     1      35.744 -21.967 -18.029  0.00  0.00    +0.250 C 
ATOM     10  H   UNL     1      33.936 -22.377 -17.193  0.00  0.00    +0.155 HD
BRANCH   8  11
ATOM     11  C   UNL     1      35.255 -23.222 -15.877  0.00  0.00    +0.057 C 
ATOM     12  C   UNL     1      34.288 -23.603 -14.947  0.00  0.00    +0.089 C 
ATOM     13  C   UNL     1      36.596 -23.542 -15.660  0.00  0.00    +0.015 C 
ATOM     14  C   UNL     1      34.661 -24.305 -13.801  0.00  0.00    +0.008 C 
ATOM     15  C   UNL     1      36.969 -24.242 -14.512  0.00  0.00    +0.001 C 
ATOM     16  C   UNL     1      36.001 -24.623 -13.583  0.00  0.00    +0.000 C 
BRANCH  12  18
ATOM     17  O   UNL     1      32.224 -23.549 -16.155  0.00  0.00    -0.245 OA
ATOM     18  C   UNL     1      32.879 -23.286 -15.144  0.00  0.00    +0.339 C 
BRANCH  18  19
ATOM     19  O   UNL     1      32.337 -22.651 -14.070  0.00  0.00    -0.477 OA
ATOM     20  H   UNL     1      31.424 -22.442 -14.060  0.00  0.00    +0.295 HD
ENDBRANCH  18  19
ENDBRANCH  12  18
ENDBRANCH   8  11
ENDBRANCH   4   9
BRANCH   1  21
ATOM     21  S   UNL     1      36.153 -18.896 -22.215  0.00  0.00    +0.064 S 
ATOM     22  O   UNL     1      37.396 -18.532 -21.569  0.00  0.00    -0.153 OA
ATOM     23  O   UNL     1      36.149 -19.605 -23.477  0.00  0.00    -0.153 OA
BRANCH  21  24
ATOM     24  N   UNL     1      35.166 -17.504 -22.356  0.00  0.00    -0.151 NA
ATOM     25  C   UNL     1      35.518 -16.567 -23.456  0.00  0.00    +0.101 C 
ATOM     26  C   UNL     1      34.887 -16.783 -21.077  0.00  0.00    +0.122 C 
ATOM     27  C   UNL     1      34.310 -15.684 -23.753  0.00  0.00    +0.045 C 
ATOM     28  C   UNL     1      34.025 -15.554 -21.241  0.00  0.00    -0.008 C 
ATOM     29  C   UNL     1      33.778 -15.010 -22.514  0.00  0.00    -0.023 C 
ATOM     30  C   UNL     1      33.499 -14.923 -20.106  0.00  0.00    -0.003 C 
ATOM     31  C   UNL     1      32.979 -13.865 -22.632  0.00  0.00    -0.004 C 
ATOM     32  C   UNL     1      32.715 -13.776 -20.234  0.00  0.00    -0.000 C 
ATOM     33  C   UNL     1      32.454 -13.249 -21.497  0.00  0.00    -0.000 C 
ENDBRANCH  21  24
ENDBRANCH   1  21
TORSDOF 6
ENDMDL
MODEL 3
REMARK VINA RESULT:     -11.4      7.286     11.292
REMARK  Name = 24941254
REMARK  6 active torsions:
REMARK  status: ('A' for Active; 'I' for Inactive)
REMARK    1  A    between atoms: C_1  and  S_21
REMARK    2  A    between atoms: C_4  and  C_9
REMARK    3  A    between atoms: N_8  and  C_11
REMARK    4  A    between atoms: C_12  and  C_18
REMARK    5  A    between atoms: C_18  and  O_19
REMARK    6  A    between atoms: S_21  and  N_24
REMARK                            x       y       z     vdW  Elec       q    Type
REMARK                         _______ _______ _______ _____ _____    ______ ____
ROOT
ATOM      1  C   UNL     1      35.489 -19.837 -20.998  0.00  0.00    +0.122 C 
ATOM      2  C   UNL     1      36.047 -20.527 -19.922  0.00  0.00    +0.024 C 
ATOM      3  C   UNL     1      34.114 -19.897 -21.226  0.00  0.00    +0.020 C 
ATOM      4  C   UNL     1      35.232 -21.277 -19.075  0.00  0.00    +0.055 C 
ATOM      5  C   UNL     1      33.298 -20.648 -20.379  0.00  0.00    +0.002 C 
ATOM      6  C   UNL     1      33.858 -21.338 -19.303  0.00  0.00    +0.005 C 
ENDROOT
BRANCH   4   9
ATOM      7  O   UNL     1      37.050 -22.064 -17.856  0.00  0.00    -0.270 OA
ATOM      8  N   UNL     1      34.904 -22.545 -17.038  0.00  0.00    -0.280 N 
ATOM      9  C   UNL     1      35.814 -21.996 -17.953  0.00  0.00    +0.250 C 
ATOM     10  H   UNL     1      33.952 -22.409 -17.249  0.00  0.00    +0.155 HD
BRANCH   8  11
ATOM     11  C   UNL     1      35.174 -23.267 -15.851  0.00  0.00    +0.057 C 
ATOM     12  C   UNL     1      34.151 -23.599 -14.963  0.00  0.00    +0.089 C 
ATOM     13  C   UNL     1      36.488 -23.647 -15.574  0.00  0.00    +0.015 C 
ATOM     14  C   UNL     1      34.442 -24.312 -13.799  0.00  0.00    +0.008 C 
ATOM     15  C   UNL     1      36.778 -24.358 -14.410  0.00  0.00    +0.001 C 
ATOM     16  C   UNL     1      35.755 -24.690 -13.523  0.00  0.00    +0.000 C 
BRANCH  12  18
ATOM     17  O   UNL     1      32.150 -23.443 -16.265  0.00  0.00    -0.245 OA
ATOM     18  C   UNL     1      32.768 -23.219 -15.221  0.00  0.00    +0.339 C 
BRANCH  18  19
ATOM     19  O   UNL     1      32.204 -22.571 -14.166  0.00  0.00    -0.477 OA
ATOM     20  H   UNL     1      31.376 -22.852 -13.832  0.00  0.00    +0.295 HD
ENDBRANCH  18  19
ENDBRANCH  12  18
ENDBRANCH   8  11
ENDBRANCH   4   9
BRANCH   1  21
ATOM     21  S   UNL     1      36.520 -18.888 -22.071  0.00  0.00    +0.064 S 
ATOM     22  O   UNL     1      37.814 -18.752 -21.435  0.00  0.00    -0.153 OA
ATOM     23  O   UNL     1      36.401 -19.439 -23.405  0.00  0.00    -0.153 OA
BRANCH  21  24
ATOM     24  N   UNL     1      35.707 -17.383 -22.016  0.00  0.00    -0.151 NA
ATOM     25  C   UNL     1      34.826 -17.164 -20.837  0.00  0.00    +0.101 C 
ATOM     26  C   UNL     1      35.049 -16.962 -23.290  0.00  0.00    +0.122 C 
ATOM     27  C   UNL     1      34.580 -15.666 -20.682  0.00  0.00    +0.045 C 
ATOM     28  C   UNL     1      34.330 -15.637 -23.200  0.00  0.00    -0.008 C 
ATOM     29  C   UNL     1      34.077 -15.035 -21.955  0.00  0.00    -0.023 C 
ATOM     30  C   UNL     1      33.874 -15.019 -24.372  0.00  0.00    -0.003 C 
ATOM     31  C   UNL     1      33.402 -13.808 -21.906  0.00  0.00    -0.004 C 
ATOM     32  C   UNL     1      33.192 -13.804 -24.311  0.00  0.00    -0.000 C 
ATOM     33  C   UNL     1      32.958 -13.198 -23.079  0.00  0.00    -0.000 C 
ENDBRANCH  21  24
ENDBRANCH   1  21
TORSDOF 6
ENDMDL
MODEL 4
REMARK VINA RESULT:     -11.0      7.147     11.238
REMARK  Name = 24941254
REMARK  6 active torsions:
REMARK  status: ('A' for Active; 'I' for Inactive)
REMARK    1  A    between atoms: C_1  and  S_21
REMARK    2  A    between atoms: C_4  and  C_9
REMARK    3  A    between atoms: N_8  and  C_11
REMARK    4  A    between atoms: C_12  and  C_18
REMARK    5  A    between atoms: C_18  and  O_19
REMARK    6  A    between atoms: S_21  and  N_24
REMARK                            x       y       z     vdW  Elec       q    Type
REMARK                         _______ _______ _______ _____ _____    ______ ____
ROOT
ATOM      1  C   UNL     1      35.182 -19.837 -20.662  0.00  0.00    +0.122 C 
ATOM      2  C   UNL     1      35.361 -20.874 -19.746  0.00  0.00    +0.024 C 
ATOM      3  C   UNL     1      33.898 -19.502 -21.093  0.00  0.00    +0.020 C 
ATOM      4  C   UNL     1      34.257 -21.576 -19.263  0.00  0.00    +0.055 C 
ATOM      5  C   UNL     1      32.794 -20.204 -20.609  0.00  0.00    +0.002 C 
ATOM      6  C   UNL     1      32.974 -21.242 -19.694  0.00  0.00    +0.005 C 
ENDROOT
BRANCH   4   9
ATOM      7  O   UNL     1      34.158 -23.817 -18.645  0.00  0.00    -0.270 OA
ATOM      8  N   UNL     1      34.968 -22.289 -17.060  0.00  0.00    -0.280 N 
ATOM      9  C   UNL     1      34.444 -22.657 -18.307  0.00  0.00    +0.250 C 
ATOM     10  H   UNL     1      35.146 -21.328 -16.938  0.00  0.00    +0.155 HD
BRANCH   8  11
ATOM     11  C   UNL     1      35.278 -23.117 -15.954  0.00  0.00    +0.057 C 
ATOM     12  C   UNL     1      36.581 -23.202 -15.463  0.00  0.00    +0.089 C 
ATOM     13  C   UNL     1      34.258 -23.854 -15.355  0.00  0.00    +0.015 C 
ATOM     14  C   UNL     1      36.862 -24.025 -14.372  0.00  0.00    +0.008 C 
ATOM     15  C   UNL     1      34.539 -24.678 -14.265  0.00  0.00    +0.001 C 
ATOM     16  C   UNL     1      35.841 -24.763 -13.774  0.00  0.00    +0.000 C 
BRANCH  12  18
ATOM     17  O   UNL     1      37.569 -21.319 -16.559  0.00  0.00    -0.245 OA
ATOM     18  C   UNL     1      37.672 -22.445 -16.065  0.00  0.00    +0.339 C 
BRANCH  18  19
ATOM     19  O   UNL     1      38.851 -23.120 -16.030  0.00  0.00    -0.477 OA
ATOM     20  H   UNL     1      39.660 -22.657 -16.126  0.00  0.00    +0.295 HD
ENDBRANCH  18  19
ENDBRANCH  12  18
ENDBRANCH   8  11
ENDBRANCH   4   9
BRANCH   1  21
ATOM     21  S   UNL     1      36.578 -18.949 -21.276  0.00  0.00    +0.064 S 
ATOM     22  O   UNL     1      37.450 -18.665 -20.156  0.00  0.00    -0.153 OA
ATOM     23  O   UNL     1      37.071 -19.647 -22.445  0.00  0.00    -0.153 OA
BRANCH  21  24
ATOM     24  N   UNL     1      35.816 -17.499 -21.775  0.00  0.00    -0.151 NA
ATOM     25  C   UNL     1      34.829 -16.924 -20.822  0.00  0.00    +0.101 C 
ATOM     26  C   UNL     1      35.306 -17.493 -23.179  0.00  0.00    +0.122 C 
ATOM     27  C   UNL     1      34.620 -15.452 -21.162  0.00  0.00    +0.045 C 
ATOM     28  C   UNL     1      34.629 -16.204 -23.579  0.00  0.00    -0.008 C 
ATOM     29  C   UNL     1      34.271 -15.246 -22.614  0.00  0.00    -0.023 C 
ATOM     30  C   UNL     1      34.315 -15.978 -24.926  0.00  0.00    -0.003 C 
ATOM     31  C   UNL     1      33.638 -14.063 -23.018  0.00  0.00    -0.004 C 
ATOM     32  C   UNL     1      33.673 -14.803 -25.315  0.00  0.00    -0.000 C 
ATOM     33  C   UNL     1      33.337 -13.845 -24.362  0.00  0.00    -0.000 C 
ENDBRANCH  21  24
ENDBRANCH   1  21
TORSDOF 6
ENDMDL
MODEL 5
REMARK VINA RESULT:     -10.9      7.142     13.206
REMARK  Name = 24941254
REMARK  6 active torsions:
REMARK  status: ('A' for Active; 'I' for Inactive)
REMARK    1  A    between atoms: C_1  and  S_21
REMARK    2  A    between atoms: C_4  and  C_9
REMARK    3  A    between atoms: N_8  and  C_11
REMARK    4  A    between atoms: C_12  and  C_18
REMARK    5  A    between atoms: C_18  and  O_19
REMARK    6  A    between atoms: S_21  and  N_24
REMARK                            x       y       z     vdW  Elec       q    Type
REMARK                         _______ _______ _______ _____ _____    ______ ____
ROOT
ATOM      1  C   UNL     1      35.063 -20.911 -19.864  0.00  0.00    +0.122 C 
ATOM      2  C   UNL     1      34.578 -20.145 -20.925  0.00  0.00    +0.024 C 
ATOM      3  C   UNL     1      36.397 -20.790 -19.471  0.00  0.00    +0.020 C 
ATOM      4  C   UNL     1      35.426 -19.261 -21.592  0.00  0.00    +0.055 C 
ATOM      5  C   UNL     1      37.244 -19.906 -20.139  0.00  0.00    +0.002 C 
ATOM      6  C   UNL     1      36.758 -19.141 -21.199  0.00  0.00    +0.005 C 
ENDROOT
BRANCH   4   9
ATOM      7  O   UNL     1      34.541 -19.036 -23.732  0.00  0.00    -0.270 OA
ATOM      8  N   UNL     1      34.879 -17.078 -22.485  0.00  0.00    -0.280 N 
ATOM      9  C   UNL     1      34.920 -18.463 -22.698  0.00  0.00    +0.250 C 
ATOM     10  H   UNL     1      35.215 -16.769 -21.613  0.00  0.00    +0.155 HD
BRANCH   8  11
ATOM     11  C   UNL     1      34.418 -16.064 -23.360  0.00  0.00    +0.057 C 
ATOM     12  C   UNL     1      33.828 -14.901 -22.864  0.00  0.00    +0.089 C 
ATOM     13  C   UNL     1      34.561 -16.242 -24.736  0.00  0.00    +0.015 C 
ATOM     14  C   UNL     1      33.381 -13.916 -23.746  0.00  0.00    +0.008 C 
ATOM     15  C   UNL     1      34.113 -15.257 -25.617  0.00  0.00    +0.001 C 
ATOM     16  C   UNL     1      33.523 -14.095 -25.122  0.00  0.00    +0.000 C 
BRANCH  12  18
ATOM     17  O   UNL     1      34.582 -14.616 -20.613  0.00  0.00    -0.245 OA
ATOM     18  C   UNL     1      33.664 -14.683 -21.433  0.00  0.00    +0.339 C 
BRANCH  18  19
ATOM     19  O   UNL     1      32.357 -14.556 -21.076  0.00  0.00    -0.477 OA
ATOM     20  H   UNL     1      31.740 -14.191 -21.679  0.00  0.00    +0.295 HD
ENDBRANCH  18  19
ENDBRANCH  12  18
ENDBRANCH   8  11
ENDBRANCH   4   9
BRANCH   1  21
ATOM     21  S   UNL     1      33.992 -22.032 -19.020  0.00  0.00    +0.064 S 
ATOM     22  O   UNL     1      32.736 -21.351 -18.784  0.00  0.00    -0.153 OA
ATOM     23  O   UNL     1      34.032 -23.298 -19.721  0.00  0.00    -0.153 OA
BRANCH  21  24
ATOM     24  N   UNL     1      34.832 -22.190 -17.537  0.00  0.00    -0.151 NA
ATOM     25  C   UNL     1      36.302 -22.390 -17.642  0.00  0.00    +0.101 C 
ATOM     26  C   UNL     1      34.211 -23.118 -16.544  0.00  0.00    +0.122 C 
ATOM     27  C   UNL     1      36.942 -22.028 -16.305  0.00  0.00    +0.045 C 
ATOM     28  C   UNL     1      34.986 -23.243 -15.254  0.00  0.00    -0.008 C 
ATOM     29  C   UNL     1      36.300 -22.754 -15.150  0.00  0.00    -0.023 C 
ATOM     30  C   UNL     1      34.402 -23.893 -14.159  0.00  0.00    -0.003 C 
ATOM     31  C   UNL     1      36.994 -22.891 -13.940  0.00  0.00    -0.004 C 
ATOM     32  C   UNL     1      35.106 -24.035 -12.963  0.00  0.00    -0.000 C 
ATOM     33  C   UNL     1      36.401 -23.532 -12.854  0.00  0.00    -0.000 C 
ENDBRANCH  21  24
ENDBRANCH   1  21
TORSDOF 6
ENDMDL
MODEL 6
REMARK VINA RESULT:     -10.8      2.325      9.022
REMARK  Name = 24941254
REMARK  6 active torsions:
REMARK  status: ('A' for Active; 'I' for Inactive)
REMARK    1  A    between atoms: C_1  and  S_21
REMARK    2  A    between atoms: C_4  and  C_9
REMARK    3  A    between atoms: N_8  and  C_11
REMARK    4  A    between atoms: C_12  and  C_18
REMARK    5  A    between atoms: C_18  and  O_19
REMARK    6  A    between atoms: S_21  and  N_24
REMARK                            x       y       z     vdW  Elec       q    Type
REMARK                         _______ _______ _______ _____ _____    ______ ____
ROOT
ATOM      1  C   UNL     1      32.616 -12.348 -22.124  0.00  0.00    +0.122 C 
ATOM      2  C   UNL     1      32.563 -10.955 -22.090  0.00  0.00    +0.024 C 
ATOM      3  C   UNL     1      32.081 -13.092 -21.071  0.00  0.00    +0.020 C 
ATOM      4  C   UNL     1      31.975 -10.305 -21.004  0.00  0.00    +0.055 C 
ATOM      5  C   UNL     1      31.494 -12.442 -19.985  0.00  0.00    +0.002 C 
ATOM      6  C   UNL     1      31.441 -11.048 -19.953  0.00  0.00    +0.005 C 
ENDROOT
BRANCH   4   9
ATOM      7  O   UNL     1      32.030  -8.270 -19.879  0.00  0.00    -0.270 OA
ATOM      8  N   UNL     1      31.764  -8.216 -22.209  0.00  0.00    -0.280 N 
ATOM      9  C   UNL     1      31.919  -8.852 -20.969  0.00  0.00    +0.250 C 
ATOM     10  H   UNL     1      31.688  -8.811 -22.989  0.00  0.00    +0.155 HD
BRANCH   8  11
ATOM     11  C   UNL     1      31.702  -6.828 -22.486  0.00  0.00    +0.057 C 
ATOM     12  C   UNL     1      32.716  -6.194 -23.205  0.00  0.00    +0.089 C 
ATOM     13  C   UNL     1      30.608  -6.095 -22.029  0.00  0.00    +0.015 C 
ATOM     14  C   UNL     1      32.633  -4.826 -23.467  0.00  0.00    +0.008 C 
ATOM     15  C   UNL     1      30.526  -4.727 -22.289  0.00  0.00    +0.001 C 
ATOM     16  C   UNL     1      31.539  -4.093 -23.008  0.00  0.00    +0.000 C 
BRANCH  12  18
ATOM     17  O   UNL     1      34.391  -7.900 -23.140  0.00  0.00    -0.245 OA
ATOM     18  C   UNL     1      33.873  -6.930 -23.698  0.00  0.00    +0.339 C 
BRANCH  18  19
ATOM     19  O   UNL     1      34.343  -6.429 -24.872  0.00  0.00    -0.477 OA
ATOM     20  H   UNL     1      34.756  -6.997 -25.492  0.00  0.00    +0.295 HD
ENDBRANCH  18  19
ENDBRANCH  12  18
ENDBRANCH   8  11
ENDBRANCH   4   9
BRANCH   1  21
ATOM     21  S   UNL     1      33.361 -13.172 -23.496  0.00  0.00    +0.064 S 
ATOM     22  O   UNL     1      32.321 -13.446 -24.465  0.00  0.00    -0.153 OA
ATOM     23  O   UNL     1      34.549 -12.431 -23.868  0.00  0.00    -0.153 OA
BRANCH  21  24
ATOM     24  N   UNL     1      33.831 -14.638 -22.747  0.00  0.00    -0.151 NA
ATOM     25  C   UNL     1      34.702 -14.504 -21.549  0.00  0.00    +0.101 C 
ATOM     26  C   UNL     1      34.317 -15.705 -23.674  0.00  0.00    +0.122 C 
ATOM     27  C   UNL     1      34.626 -15.797 -20.742  0.00  0.00    +0.045 C 
ATOM     28  C   UNL     1      34.735 -16.978 -22.978  0.00  0.00    -0.008 C 
ATOM     29  C   UNL     1      34.915 -17.013 -21.584  0.00  0.00    -0.023 C 
ATOM     30  C   UNL     1      34.987 -18.128 -23.737  0.00  0.00    -0.003 C 
ATOM     31  C   UNL     1      35.310 -18.209 -20.969  0.00  0.00    -0.004 C 
ATOM     32  C   UNL     1      35.392 -19.310 -23.116  0.00  0.00    -0.000 C 
ATOM     33  C   UNL     1      35.551 -19.350 -21.733  0.00  0.00    -0.000 C 
ENDBRANCH  21  24
ENDBRANCH   1  21
TORSDOF 6
ENDMDL
MODEL 7
REMARK VINA RESULT:     -10.6      2.593      8.637
REMARK  Name = 24941254
REMARK  6 active torsions:
REMARK  status: ('A' for Active; 'I' for Inactive)
REMARK    1  A    between atoms: C_1  and  S_21
REMARK    2  A    between atoms: C_4  and  C_9
REMARK    3  A    between atoms: N_8  and  C_11
REMARK    4  A    between atoms: C_12  and  C_18
REMARK    5  A    between atoms: C_18  and  O_19
REMARK    6  A    between atoms: S_21  and  N_24
REMARK                            x       y       z     vdW  Elec       q    Type
REMARK                         _______ _______ _______ _____ _____    ______ ____
ROOT
ATOM      1  C   UNL     1      31.837  -9.682 -20.312  0.00  0.00    +0.122 C 
ATOM      2  C   UNL     1      31.740  -9.082 -21.567  0.00  0.00    +0.024 C 
ATOM      3  C   UNL     1      32.481  -9.016 -19.269  0.00  0.00    +0.020 C 
ATOM      4  C   UNL     1      32.288  -7.818 -21.780  0.00  0.00    +0.055 C 
ATOM      5  C   UNL     1      33.029  -7.751 -19.482  0.00  0.00    +0.002 C 
ATOM      6  C   UNL     1      32.932  -7.152 -20.738  0.00  0.00    +0.005 C 
ENDROOT
BRANCH   4   9
ATOM      7  O   UNL     1      31.476  -7.722 -23.958  0.00  0.00    -0.270 OA
ATOM      8  N   UNL     1      32.902  -5.997 -23.254  0.00  0.00    -0.280 N 
ATOM      9  C   UNL     1      32.187  -7.192 -23.089  0.00  0.00    +0.250 C 
ATOM     10  H   UNL     1      33.423  -5.700 -22.474  0.00  0.00    +0.155 HD
BRANCH   8  11
ATOM     11  C   UNL     1      32.972  -5.161 -24.395  0.00  0.00    +0.057 C 
ATOM     12  C   UNL     1      32.233  -3.980 -24.467  0.00  0.00    +0.089 C 
ATOM     13  C   UNL     1      33.796  -5.535 -25.457  0.00  0.00    +0.015 C 
ATOM     14  C   UNL     1      32.319  -3.173 -25.602  0.00  0.00    +0.008 C 
ATOM     15  C   UNL     1      33.881  -4.728 -26.592  0.00  0.00    +0.001 C 
ATOM     16  C   UNL     1      33.142  -3.547 -26.664  0.00  0.00    +0.000 C 
BRANCH  12  18
ATOM     17  O   UNL     1      30.358  -4.164 -22.994  0.00  0.00    -0.245 OA
ATOM     18  C   UNL     1      31.363  -3.560 -23.376  0.00  0.00    +0.339 C 
BRANCH  18  19
ATOM     19  O   UNL     1      31.780  -2.401 -22.800  0.00  0.00    -0.477 OA
ATOM     20  H   UNL     1      31.736  -2.298 -21.870  0.00  0.00    +0.295 HD
ENDBRANCH  18  19
ENDBRANCH  12  18
ENDBRANCH   8  11
ENDBRANCH   4   9
BRANCH   1  21
ATOM     21  S   UNL     1      31.146 -11.284 -20.041  0.00  0.00    +0.064 S 
ATOM     22  O   UNL     1      31.261 -11.583 -18.629  0.00  0.00    -0.153 OA
ATOM     23  O   UNL     1      29.863 -11.334 -20.710  0.00  0.00    -0.153 OA
BRANCH  21  24
ATOM     24  N   UNL     1      32.265 -12.244 -20.911  0.00  0.00    -0.151 NA
ATOM     25  C   UNL     1      32.103 -12.249 -22.390  0.00  0.00    +0.101 C 
ATOM     26  C   UNL     1      32.488 -13.619 -20.369  0.00  0.00    +0.122 C 
ATOM     27  C   UNL     1      33.409 -12.719 -23.024  0.00  0.00    +0.045 C 
ATOM     28  C   UNL     1      33.470 -14.441 -21.169  0.00  0.00    -0.008 C 
ATOM     29  C   UNL     1      33.884 -14.029 -22.448  0.00  0.00    -0.023 C 
ATOM     30  C   UNL     1      33.944 -15.651 -20.646  0.00  0.00    -0.003 C 
ATOM     31  C   UNL     1      34.791 -14.819 -23.168  0.00  0.00    -0.004 C 
ATOM     32  C   UNL     1      34.838 -16.435 -21.376  0.00  0.00    -0.000 C 
ATOM     33  C   UNL     1      35.262 -16.018 -22.635  0.00  0.00    -0.000 C 
ENDBRANCH  21  24
ENDBRANCH   1  21
TORSDOF 6
ENDMDL
MODEL 8
REMARK VINA RESULT:     -10.1      3.721     10.158
REMARK  Name = 24941254
REMARK  6 active torsions:
REMARK  status: ('A' for Active; 'I' for Inactive)
REMARK    1  A    between atoms: C_1  and  S_21
REMARK    2  A    between atoms: C_4  and  C_9
REMARK    3  A    between atoms: N_8  and  C_11
REMARK    4  A    between atoms: C_12  and  C_18
REMARK    5  A    between atoms: C_18  and  O_19
REMARK    6  A    between atoms: S_21  and  N_24
REMARK                            x       y       z     vdW  Elec       q    Type
REMARK                         _______ _______ _______ _____ _____    ______ ____
ROOT
ATOM      1  C   UNL     1      34.220 -15.306 -22.388  0.00  0.00    +0.122 C 
ATOM      2  C   UNL     1      34.047 -14.000 -22.845  0.00  0.00    +0.024 C 
ATOM      3  C   UNL     1      33.696 -15.686 -21.152  0.00  0.00    +0.020 C 
ATOM      4  C   UNL     1      33.351 -13.074 -22.068  0.00  0.00    +0.055 C 
ATOM      5  C   UNL     1      33.001 -14.761 -20.374  0.00  0.00    +0.002 C 
ATOM      6  C   UNL     1      32.828 -13.454 -20.832  0.00  0.00    +0.005 C 
ENDROOT
BRANCH   4   9
ATOM      7  O   UNL     1      33.717 -11.367 -23.605  0.00  0.00    -0.270 OA
ATOM      8  N   UNL     1      32.350 -10.891 -21.758  0.00  0.00    -0.280 N 
ATOM      9  C   UNL     1      33.170 -11.712 -22.545  0.00  0.00    +0.250 C 
ATOM     10  H   UNL     1      31.986 -11.306 -20.943  0.00  0.00    +0.155 HD
BRANCH   8  11
ATOM     11  C   UNL     1      31.976  -9.544 -21.982  0.00  0.00    +0.057 C 
ATOM     12  C   UNL     1      31.975  -8.616 -20.940  0.00  0.00    +0.089 C 
ATOM     13  C   UNL     1      31.604  -9.151 -23.267  0.00  0.00    +0.015 C 
ATOM     14  C   UNL     1      31.603  -7.294 -21.186  0.00  0.00    +0.008 C 
ATOM     15  C   UNL     1      31.230  -7.829 -23.512  0.00  0.00    +0.001 C 
ATOM     16  C   UNL     1      31.229  -6.901 -22.471  0.00  0.00    +0.000 C 
BRANCH  12  18
ATOM     17  O   UNL     1      32.036 -10.039 -19.020  0.00  0.00    -0.245 OA
ATOM     18  C   UNL     1      32.359  -8.993 -19.586  0.00  0.00    +0.339 C 
BRANCH  18  19
ATOM     19  O   UNL     1      33.133  -8.049 -18.986  0.00  0.00    -0.477 OA
ATOM     20  H   UNL     1      34.035  -7.961 -19.227  0.00  0.00    +0.295 HD
ENDBRANCH  18  19
ENDBRANCH  12  18
ENDBRANCH   8  11
ENDBRANCH   4   9
BRANCH   1  21
ATOM     21  S   UNL     1      35.102 -16.477 -23.370  0.00  0.00    +0.064 S 
ATOM     22  O   UNL     1      34.179 -17.023 -24.343  0.00  0.00    -0.153 OA
ATOM     23  O   UNL     1      36.346 -15.863 -23.787  0.00  0.00    -0.153 OA
BRANCH  21  24
ATOM     24  N   UNL     1      35.439 -17.668 -22.187  0.00  0.00    -0.151 NA
ATOM     25  C   UNL     1      36.761 -18.340 -22.301  0.00  0.00    +0.101 C 
ATOM     26  C   UNL     1      34.337 -18.644 -21.928  0.00  0.00    +0.122 C 
ATOM     27  C   UNL     1      37.103 -18.978 -20.958  0.00  0.00    +0.045 C 
ATOM     28  C   UNL     1      34.674 -19.687 -20.890  0.00  0.00    -0.008 C 
ATOM     29  C   UNL     1      35.998 -19.869 -20.451  0.00  0.00    -0.023 C 
ATOM     30  C   UNL     1      33.660 -20.512 -20.386  0.00  0.00    -0.003 C 
ATOM     31  C   UNL     1      36.278 -20.850 -19.491  0.00  0.00    -0.004 C 
ATOM     32  C   UNL     1      33.952 -21.494 -19.439  0.00  0.00    -0.000 C 
ATOM     33  C   UNL     1      35.260 -21.661 -18.991  0.00  0.00    -0.000 C 
ENDBRANCH  21  24
ENDBRANCH   1  21
TORSDOF 6
ENDMDL
MODEL 9
REMARK VINA RESULT:     -10.0      1.823      2.488
REMARK  Name = 24941254
REMARK  6 active torsions:
REMARK  status: ('A' for Active; 'I' for Inactive)
REMARK    1  A    between atoms: C_1  and  S_21
REMARK    2  A    between atoms: C_4  and  C_9
REMARK    3  A    between atoms: N_8  and  C_11
REMARK    4  A    between atoms: C_12  and  C_18
REMARK    5  A    between atoms: C_18  and  O_19
REMARK    6  A    between atoms: S_21  and  N_24
REMARK                            x       y       z     vdW  Elec       q    Type
REMARK                         _______ _______ _______ _____ _____    ______ ____
ROOT
ATOM      1  C   UNL     1      31.579  -8.406 -21.352  0.00  0.00    +0.122 C 
ATOM      2  C   UNL     1      31.705  -9.724 -21.790  0.00  0.00    +0.024 C 
ATOM      3  C   UNL     1      31.905  -8.075 -20.036  0.00  0.00    +0.020 C 
ATOM      4  C   UNL     1      32.155 -10.711 -20.913  0.00  0.00    +0.055 C 
ATOM      5  C   UNL     1      32.355  -9.062 -19.159  0.00  0.00    +0.002 C 
ATOM      6  C   UNL     1      32.480 -10.380 -19.598  0.00  0.00    +0.005 C 
ENDROOT
BRANCH   4   9
ATOM      7  O   UNL     1      31.271 -12.699 -21.736  0.00  0.00    -0.270 OA
ATOM      8  N   UNL     1      33.588 -12.606 -21.380  0.00  0.00    -0.280 N 
ATOM      9  C   UNL     1      32.286 -12.086 -21.370  0.00  0.00    +0.250 C 
ATOM     10  H   UNL     1      34.293 -11.999 -21.060  0.00  0.00    +0.155 HD
BRANCH   8  11
ATOM     11  C   UNL     1      34.021 -13.889 -21.793  0.00  0.00    +0.057 C 
ATOM     12  C   UNL     1      34.220 -14.182 -23.143  0.00  0.00    +0.089 C 
ATOM     13  C   UNL     1      34.251 -14.869 -20.826  0.00  0.00    +0.015 C 
ATOM     14  C   UNL     1      34.648 -15.454 -23.525  0.00  0.00    +0.008 C 
ATOM     15  C   UNL     1      34.677 -16.141 -21.209  0.00  0.00    +0.001 C 
ATOM     16  C   UNL     1      34.875 -16.432 -22.558  0.00  0.00    +0.000 C 
BRANCH  12  18
ATOM     17  O   UNL     1      33.318 -13.354 -25.197  0.00  0.00    -0.245 OA
ATOM     18  C   UNL     1      33.990 -13.182 -24.178  0.00  0.00    +0.339 C 
BRANCH  18  19
ATOM     19  O   UNL     1      34.608 -12.002 -23.903  0.00  0.00    -0.477 OA
ATOM     20  H   UNL     1      34.700 -11.717 -23.015  0.00  0.00    +0.295 HD
ENDBRANCH  18  19
ENDBRANCH  12  18
ENDBRANCH   8  11
ENDBRANCH   4   9
BRANCH   1  21
ATOM     21  S   UNL     1      31.008  -7.157 -22.460  0.00  0.00    +0.064 S 
ATOM     22  O   UNL     1      30.023  -7.758 -23.335  0.00  0.00    -0.153 OA
ATOM     23  O   UNL     1      30.689  -5.980 -21.678  0.00  0.00    -0.153 OA
BRANCH  21  24
ATOM     24  N   UNL     1      32.442  -6.864 -23.348  0.00  0.00    -0.151 NA
ATOM     25  C   UNL     1      33.695  -6.790 -22.550  0.00  0.00    +0.101 C 
ATOM     26  C   UNL     1      32.358  -5.766 -24.358  0.00  0.00    +0.122 C 
ATOM     27  C   UNL     1      34.882  -7.016 -23.481  0.00  0.00    +0.045 C 
ATOM     28  C   UNL     1      33.645  -5.527 -25.112  0.00  0.00    -0.008 C 
ATOM     29  C   UNL     1      34.854  -6.096 -24.675  0.00  0.00    -0.023 C 
ATOM     30  C   UNL     1      33.640  -4.695 -26.239  0.00  0.00    -0.003 C 
ATOM     31  C   UNL     1      36.032  -5.849 -25.394  0.00  0.00    -0.004 C 
ATOM     32  C   UNL     1      34.820  -4.446 -26.940  0.00  0.00    -0.000 C 
ATOM     33  C   UNL     1      36.015  -5.025 -26.518  0.00  0.00    -0.000 C 
ENDBRANCH  21  24
ENDBRANCH   1  21
TORSDOF 6
ENDMDL
