MODEL 1
REMARK VINA RESULT:     -12.2      0.000      0.000
REMARK  Name = 42628063
REMARK  6 active torsions:
REMARK  status: ('A' for Active; 'I' for Inactive)
REMARK    1  A    between atoms: C_1  and  N_3
REMARK    2  A    between atoms: C_1  and  C_21
REMARK    3  A    between atoms: C_4  and  N_10
REMARK    4  A    between atoms: C_11  and  C_15
REMARK    5  A    between atoms: N_20  and  C_24
REMARK    6  A    between atoms: C_27  and  N_31
REMARK                            x       y       z     vdW  Elec       q    Type
REMARK                         _______ _______ _______ _____ _____    ______ ____
ROOT
ATOM      1  C   UNL     1      35.545 -21.428 -20.070  0.00  0.00    +0.010 C 
ENDROOT
BRANCH   1   3
ATOM      2  F   UNL     1      33.326 -22.682 -16.390  0.00  0.00    -0.238 F 
ATOM      3  N   UNL     1      35.171 -21.666 -18.685  0.00  0.00    +0.396 N 
ATOM      4  C   UNL     1      35.656 -22.466 -16.564  0.00  0.00    +0.082 C 
ATOM      5  C   UNL     1      34.401 -23.177 -17.059  0.00  0.00    +0.156 C 
ATOM      6  C   UNL     1      36.326 -21.957 -17.835  0.00  0.00    -0.054 C 
ATOM      7  C   UNL     1      34.281 -22.823 -18.536  0.00  0.00    -0.039 C 
ATOM      8  H   UNL     1      34.708 -20.803 -18.402  0.00  0.00    -0.079 HD
BRANCH   4  10
ATOM      9  O   UNL     1      35.353 -23.194 -13.804  0.00  0.00    -0.270 OA
ATOM     10  N   UNL     1      36.523 -23.322 -15.803  0.00  0.00    -0.302 N 
ATOM     11  C   UNL     1      36.297 -23.621 -14.464  0.00  0.00    +0.252 C 
ATOM     12  H   UNL     1      37.308 -23.714 -16.247  0.00  0.00    +0.150 HD
BRANCH  11  15
ATOM     13 CL   UNL     1      40.848 -26.589 -13.431  0.00  0.00    -0.075 Cl
ATOM     14  S   UNL     1      38.763 -24.849 -14.629  0.00  0.00    -0.071 S 
ATOM     15  C   UNL     1      37.299 -24.503 -13.811  0.00  0.00    +0.084 C 
ATOM     16  C   UNL     1      37.235 -25.119 -12.581  0.00  0.00    +0.012 C 
ATOM     17  C   UNL     1      38.404 -25.887 -12.307  0.00  0.00    +0.019 C 
ATOM     18  C   UNL     1      39.316 -25.827 -13.338  0.00  0.00    +0.087 C 
ENDBRANCH  11  15
ENDBRANCH   4  10
ENDBRANCH   1   3
BRANCH   1  21
ATOM     19  O   UNL     1      33.589 -20.041 -20.338  0.00  0.00    -0.277 OA
ATOM     20  N   UNL     1      35.595 -19.444 -21.401  0.00  0.00    -0.284 N 
ATOM     21  C   UNL     1      34.770 -20.235 -20.605  0.00  0.00    +0.205 C 
ATOM     22  H   UNL     1      36.524 -19.749 -21.504  0.00  0.00    +0.155 HD
BRANCH  20  24
ATOM     23  F   UNL     1      35.102 -19.414 -24.145  0.00  0.00    -0.203 F 
ATOM     24  C   UNL     1      35.251 -18.250 -22.079  0.00  0.00    +0.078 C 
ATOM     25  C   UNL     1      35.010 -18.268 -23.453  0.00  0.00    +0.155 C 
ATOM     26  C   UNL     1      35.153 -17.052 -21.371  0.00  0.00    +0.018 C 
ATOM     27  C   UNL     1      34.573 -15.893 -23.410  0.00  0.00    +0.061 C 
ATOM     28  C   UNL     1      34.672 -17.091 -24.118  0.00  0.00    +0.046 C 
ATOM     29  C   UNL     1      34.814 -15.874 -22.036  0.00  0.00    +0.017 C 
BRANCH  27  31
ATOM     30  O   UNL     1      33.617 -15.727 -26.135  0.00  0.00    -0.269 OA
ATOM     31  N   UNL     1      34.221 -14.669 -24.102  0.00  0.00    -0.233 N 
ATOM     32  C   UNL     1      33.801 -14.717 -25.457  0.00  0.00    +0.257 C 
ATOM     33  C   UNL     1      34.271 -13.440 -23.439  0.00  0.00    +0.072 C 
ATOM     34  C   UNL     1      33.502 -13.404 -26.108  0.00  0.00    +0.059 C 
ATOM     35  C   UNL     1      33.966 -12.283 -24.034  0.00  0.00    +0.017 C 
ATOM     36  C   UNL     1      33.577 -12.267 -25.412  0.00  0.00    +0.006 C 
ENDBRANCH  27  31
ENDBRANCH  20  24
ENDBRANCH   1  21
TORSDOF 6
ENDMDL
MODEL 2
REMARK VINA RESULT:     -12.0      7.545     13.874
REMARK  Name = 42628063
REMARK  6 active torsions:
REMARK  status: ('A' for Active; 'I' for Inactive)
REMARK    1  A    between atoms: C_1  and  N_3
REMARK    2  A    between atoms: C_1  and  C_21
REMARK    3  A    between atoms: C_4  and  N_10
REMARK    4  A    between atoms: C_11  and  C_15
REMARK    5  A    between atoms: N_20  and  C_24
REMARK    6  A    between atoms: C_27  and  N_31
REMARK                            x       y       z     vdW  Elec       q    Type
REMARK                         _______ _______ _______ _____ _____    ______ ____
ROOT
ATOM      1  C   UNL     1      33.814 -12.581 -24.813  0.00  0.00    +0.010 C 
ENDROOT
BRANCH   1   3
ATOM      2  F   UNL     1      36.473  -9.119 -23.821  0.00  0.00    -0.238 F 
ATOM      3  N   UNL     1      34.394 -11.412 -24.171  0.00  0.00    +0.396 N 
ATOM      4  C   UNL     1      34.195  -9.281 -23.281  0.00  0.00    +0.082 C 
ATOM      5  C   UNL     1      35.243  -9.232 -24.389  0.00  0.00    +0.156 C 
ATOM      6  C   UNL     1      33.380 -10.531 -23.589  0.00  0.00    -0.054 C 
ATOM      7  C   UNL     1      35.143 -10.570 -25.110  0.00  0.00    -0.039 C 
ATOM      8  H   UNL     1      35.005 -11.802 -23.454  0.00  0.00    -0.079 HD
BRANCH   4  10
ATOM      9  O   UNL     1      33.029  -8.100 -20.939  0.00  0.00    -0.270 OA
ATOM     10  N   UNL     1      33.376  -8.102 -23.233  0.00  0.00    -0.302 N 
ATOM     11  C   UNL     1      32.852  -7.599 -22.046  0.00  0.00    +0.252 C 
ATOM     12  H   UNL     1      33.178  -7.629 -24.073  0.00  0.00    +0.150 HD
BRANCH  11  15
ATOM     13 CL   UNL     1      30.645  -2.850 -23.825  0.00  0.00    -0.075 Cl
ATOM     14  S   UNL     1      32.275  -5.305 -23.468  0.00  0.00    -0.071 S 
ATOM     15  C   UNL     1      32.003  -6.385 -22.167  0.00  0.00    +0.084 C 
ATOM     16  C   UNL     1      30.973  -5.968 -21.355  0.00  0.00    +0.012 C 
ATOM     17  C   UNL     1      30.399  -4.744 -21.804  0.00  0.00    +0.019 C 
ATOM     18  C   UNL     1      31.012  -4.274 -22.945  0.00  0.00    +0.087 C 
ENDBRANCH  11  15
ENDBRANCH   4  10
ENDBRANCH   1   3
BRANCH   1  21
ATOM     19  O   UNL     1      32.686 -13.657 -22.972  0.00  0.00    -0.277 OA
ATOM     20  N   UNL     1      34.593 -14.653 -23.912  0.00  0.00    -0.284 N 
ATOM     21  C   UNL     1      33.608 -13.676 -23.780  0.00  0.00    +0.205 C 
ATOM     22  H   UNL     1      35.256 -14.508 -24.624  0.00  0.00    +0.155 HD
BRANCH  20  24
ATOM     23  F   UNL     1      34.898 -17.151 -25.112  0.00  0.00    -0.203 F 
ATOM     24  C   UNL     1      34.748 -15.830 -23.142  0.00  0.00    +0.078 C 
ATOM     25  C   UNL     1      34.899 -17.065 -23.773  0.00  0.00    +0.155 C 
ATOM     26  C   UNL     1      34.750 -15.754 -21.749  0.00  0.00    +0.018 C 
ATOM     27  C   UNL     1      35.055 -18.147 -21.620  0.00  0.00    +0.061 C 
ATOM     28  C   UNL     1      35.052 -18.223 -23.012  0.00  0.00    +0.046 C 
ATOM     29  C   UNL     1      34.904 -16.913 -20.988  0.00  0.00    +0.017 C 
BRANCH  27  31
ATOM     30  O   UNL     1      37.543 -19.080 -20.477  0.00  0.00    -0.269 OA
ATOM     31  N   UNL     1      35.215 -19.352 -20.828  0.00  0.00    -0.233 N 
ATOM     32  C   UNL     1      36.501 -19.723 -20.356  0.00  0.00    +0.257 C 
ATOM     33  C   UNL     1      34.108 -20.141 -20.506  0.00  0.00    +0.072 C 
ATOM     34  C   UNL     1      36.584 -21.003 -19.587  0.00  0.00    +0.059 C 
ATOM     35  C   UNL     1      34.204 -21.265 -19.789  0.00  0.00    +0.017 C 
ATOM     36  C   UNL     1      35.482 -21.710 -19.322  0.00  0.00    +0.006 C 
ENDBRANCH  27  31
ENDBRANCH  20  24
ENDBRANCH   1  21
TORSDOF 6
ENDMDL
MODEL 3
REMARK VINA RESULT:     -11.5      4.997     12.151
REMARK  Name = 42628063
REMARK  6 active torsions:
REMARK  status: ('A' for Active; 'I' for Inactive)
REMARK    1  A    between atoms: C_1  and  N_3
REMARK    2  A    between atoms: C_1  and  C_21
REMARK    3  A    between atoms: C_4  and  N_10
REMARK    4  A    between atoms: C_11  and  C_15
REMARK    5  A    between atoms: N_20  and  C_24
REMARK    6  A    between atoms: C_27  and  N_31
REMARK                            x       y       z     vdW  Elec       q    Type
REMARK                         _______ _______ _______ _____ _____    ______ ____
ROOT
ATOM      1  C   UNL     1      34.991 -20.462 -21.131  0.00  0.00    +0.010 C 
ENDROOT
BRANCH   1   3
ATOM      2  F   UNL     1      35.890 -17.186 -24.047  0.00  0.00    -0.238 F 
ATOM      3  N   UNL     1      35.350 -19.178 -21.715  0.00  0.00    +0.396 N 
ATOM      4  C   UNL     1      35.103 -16.878 -21.858  0.00  0.00    +0.082 C 
ATOM      5  C   UNL     1      34.833 -17.468 -23.239  0.00  0.00    +0.156 C 
ATOM      6  C   UNL     1      34.897 -18.048 -20.903  0.00  0.00    -0.054 C 
ATOM      7  C   UNL     1      34.743 -18.974 -23.035  0.00  0.00    -0.039 C 
ATOM      8  H   UNL     1      36.367 -19.210 -21.775  0.00  0.00    -0.079 HD
BRANCH   4  10
ATOM      9  O   UNL     1      35.004 -14.352 -23.218  0.00  0.00    -0.270 OA
ATOM     10  N   UNL     1      34.246 -15.769 -21.545  0.00  0.00    -0.302 N 
ATOM     11  C   UNL     1      34.267 -14.577 -22.262  0.00  0.00    +0.252 C 
ATOM     12  H   UNL     1      33.617 -15.855 -20.793  0.00  0.00    +0.150 HD
BRANCH  11  15
ATOM     13 CL   UNL     1      31.372  -9.879 -21.886  0.00  0.00    -0.075 Cl
ATOM     14  S   UNL     1      33.201 -12.070 -22.704  0.00  0.00    -0.071 S 
ATOM     15  C   UNL     1      33.336 -13.516 -21.798  0.00  0.00    +0.084 C 
ATOM     16  C   UNL     1      32.516 -13.513 -20.691  0.00  0.00    +0.012 C 
ATOM     17  C   UNL     1      31.767 -12.305 -20.585  0.00  0.00    +0.019 C 
ATOM     18  C   UNL     1      32.042 -11.433 -21.616  0.00  0.00    +0.087 C 
ENDBRANCH  11  15
ENDBRANCH   4  10
ENDBRANCH   1   3
BRANCH   1  21
ATOM     19  O   UNL     1      36.918 -20.153 -19.712  0.00  0.00    -0.277 OA
ATOM     20  N   UNL     1      35.212 -21.626 -19.056  0.00  0.00    -0.284 N 
ATOM     21  C   UNL     1      35.841 -20.711 -19.896  0.00  0.00    +0.205 C 
ATOM     22  H   UNL     1      34.343 -21.971 -19.361  0.00  0.00    +0.155 HD
BRANCH  20  24
ATOM     23  F   UNL     1      33.538 -23.025 -17.320  0.00  0.00    -0.203 F 
ATOM     24  C   UNL     1      35.678 -22.117 -17.813  0.00  0.00    +0.078 C 
ATOM     25  C   UNL     1      34.814 -22.813 -16.966  0.00  0.00    +0.155 C 
ATOM     26  C   UNL     1      37.003 -21.903 -17.433  0.00  0.00    +0.018 C 
ATOM     27  C   UNL     1      36.600 -23.083 -15.363  0.00  0.00    +0.061 C 
ATOM     28  C   UNL     1      35.275 -23.296 -15.742  0.00  0.00    +0.046 C 
ATOM     29  C   UNL     1      37.464 -22.386 -16.208  0.00  0.00    +0.017 C 
BRANCH  27  31
ATOM     30  O   UNL     1      37.703 -25.718 -14.913  0.00  0.00    -0.269 OA
ATOM     31  N   UNL     1      37.080 -23.585 -14.090  0.00  0.00    -0.233 N 
ATOM     32  C   UNL     1      37.563 -24.916 -13.991  0.00  0.00    +0.257 C 
ATOM     33  C   UNL     1      37.091 -22.761 -12.962  0.00  0.00    +0.072 C 
ATOM     34  C   UNL     1      37.995 -25.368 -12.632  0.00  0.00    +0.059 C 
ATOM     35  C   UNL     1      37.514 -23.179 -11.764  0.00  0.00    +0.017 C 
ATOM     36  C   UNL     1      37.972 -24.525 -11.597  0.00  0.00    +0.006 C 
ENDBRANCH  27  31
ENDBRANCH  20  24
ENDBRANCH   1  21
TORSDOF 6
ENDMDL
MODEL 4
REMARK VINA RESULT:     -11.4      4.838     12.089
REMARK  Name = 42628063
REMARK  6 active torsions:
REMARK  status: ('A' for Active; 'I' for Inactive)
REMARK    1  A    between atoms: C_1  and  N_3
REMARK    2  A    between atoms: C_1  and  C_21
REMARK    3  A    between atoms: C_4  and  N_10
REMARK    4  A    between atoms: C_11  and  C_15
REMARK    5  A    between atoms: N_20  and  C_24
REMARK    6  A    between atoms: C_27  and  N_31
REMARK                            x       y       z     vdW  Elec       q    Type
REMARK                         _______ _______ _______ _____ _____    ______ ____
ROOT
ATOM      1  C   UNL     1      33.837 -20.890 -20.452  0.00  0.00    +0.010 C 
ENDROOT
BRANCH   1   3
ATOM      2  F   UNL     1      37.574 -18.489 -21.015  0.00  0.00    -0.238 F 
ATOM      3  N   UNL     1      34.789 -19.791 -20.514  0.00  0.00    +0.396 N 
ATOM      4  C   UNL     1      35.386 -17.666 -21.221  0.00  0.00    +0.082 C 
ATOM      5  C   UNL     1      36.434 -18.646 -21.739  0.00  0.00    +0.156 C 
ATOM      6  C   UNL     1      34.167 -18.535 -20.935  0.00  0.00    -0.054 C 
ATOM      7  C   UNL     1      35.863 -20.034 -21.484  0.00  0.00    -0.039 C 
ATOM      8  H   UNL     1      35.154 -19.726 -19.565  0.00  0.00    -0.079 HD
BRANCH   4  10
ATOM      9  O   UNL     1      34.186 -15.128 -20.621  0.00  0.00    -0.270 OA
ATOM     10  N   UNL     1      35.092 -16.614 -22.154  0.00  0.00    -0.302 N 
ATOM     11  C   UNL     1      34.507 -15.412 -21.771  0.00  0.00    +0.252 C 
ATOM     12  H   UNL     1      35.314 -16.749 -23.103  0.00  0.00    +0.150 HD
BRANCH  11  15
ATOM     13 CL   UNL     1      33.299 -13.167 -26.680  0.00  0.00    -0.075 Cl
ATOM     14  S   UNL     1      33.851 -15.014 -24.423  0.00  0.00    -0.071 S 
ATOM     15  C   UNL     1      34.245 -14.435 -22.860  0.00  0.00    +0.084 C 
ATOM     16  C   UNL     1      34.266 -13.059 -22.809  0.00  0.00    +0.012 C 
ATOM     17  C   UNL     1      33.958 -12.471 -24.070  0.00  0.00    +0.019 C 
ATOM     18  C   UNL     1      33.710 -13.422 -25.036  0.00  0.00    +0.087 C 
ENDBRANCH  11  15
ENDBRANCH   4  10
ENDBRANCH   1   3
BRANCH   1  21
ATOM     19  O   UNL     1      32.819 -21.707 -18.423  0.00  0.00    -0.277 OA
ATOM     20  N   UNL     1      35.156 -21.737 -18.648  0.00  0.00    -0.284 N 
ATOM     21  C   UNL     1      33.847 -21.488 -19.055  0.00  0.00    +0.205 C 
ATOM     22  H   UNL     1      35.864 -21.503 -19.290  0.00  0.00    +0.155 HD
BRANCH  20  24
ATOM     23  F   UNL     1      37.622 -21.069 -17.533  0.00  0.00    -0.203 F 
ATOM     24  C   UNL     1      35.586 -22.289 -17.418  0.00  0.00    +0.078 C 
ATOM     25  C   UNL     1      36.827 -21.934 -16.886  0.00  0.00    +0.155 C 
ATOM     26  C   UNL     1      34.768 -23.190 -16.735  0.00  0.00    +0.018 C 
ATOM     27  C   UNL     1      36.429 -23.378 -14.992  0.00  0.00    +0.061 C 
ATOM     28  C   UNL     1      37.248 -22.478 -15.674  0.00  0.00    +0.046 C 
ATOM     29  C   UNL     1      35.190 -23.734 -15.523  0.00  0.00    +0.017 C 
BRANCH  27  31
ATOM     30  O   UNL     1      37.822 -25.894 -14.683  0.00  0.00    -0.269 OA
ATOM     31  N   UNL     1      36.868 -23.945 -13.731  0.00  0.00    -0.233 N 
ATOM     32  C   UNL     1      37.508 -25.211 -13.709  0.00  0.00    +0.257 C 
ATOM     33  C   UNL     1      36.684 -23.244 -12.537  0.00  0.00    +0.072 C 
ATOM     34  C   UNL     1      37.886 -25.743 -12.363  0.00  0.00    +0.059 C 
ATOM     35  C   UNL     1      37.061 -23.727 -11.348  0.00  0.00    +0.017 C 
ATOM     36  C   UNL     1      37.674 -25.019 -11.262  0.00  0.00    +0.006 C 
ENDBRANCH  27  31
ENDBRANCH  20  24
ENDBRANCH   1  21
TORSDOF 6
ENDMDL
MODEL 5
REMARK VINA RESULT:     -11.2      1.796      2.111
REMARK  Name = 42628063
REMARK  6 active torsions:
REMARK  status: ('A' for Active; 'I' for Inactive)
REMARK    1  A    between atoms: C_1  and  N_3
REMARK    2  A    between atoms: C_1  and  C_21
REMARK    3  A    between atoms: C_4  and  N_10
REMARK    4  A    between atoms: C_11  and  C_15
REMARK    5  A    between atoms: N_20  and  C_24
REMARK    6  A    between atoms: C_27  and  N_31
REMARK                            x       y       z     vdW  Elec       q    Type
REMARK                         _______ _______ _______ _____ _____    ______ ____
ROOT
ATOM      1  C   UNL     1      36.522 -20.563 -20.619  0.00  0.00    +0.010 C 
ENDROOT
BRANCH   1   3
ATOM      2  F   UNL     1      33.675 -22.174 -17.562  0.00  0.00    -0.238 F 
ATOM      3  N   UNL     1      35.910 -20.960 -19.359  0.00  0.00    +0.396 N 
ATOM      4  C   UNL     1      36.005 -22.049 -17.316  0.00  0.00    +0.082 C 
ATOM      5  C   UNL     1      34.835 -22.630 -18.105  0.00  0.00    +0.156 C 
ATOM      6  C   UNL     1      36.895 -21.413 -18.377  0.00  0.00    -0.054 C 
ATOM      7  C   UNL     1      34.979 -22.082 -19.519  0.00  0.00    -0.039 C 
ATOM      8  H   UNL     1      35.427 -20.119 -19.043  0.00  0.00    -0.079 HD
BRANCH   4  10
ATOM      9  O   UNL     1      35.414 -22.861 -14.627  0.00  0.00    -0.270 OA
ATOM     10  N   UNL     1      36.707 -23.037 -16.545  0.00  0.00    -0.302 N 
ATOM     11  C   UNL     1      36.348 -23.367 -15.242  0.00  0.00    +0.252 C 
ATOM     12  H   UNL     1      37.472 -23.500 -16.955  0.00  0.00    +0.150 HD
BRANCH  11  15
ATOM     13 CL   UNL     1      40.662 -26.416 -13.603  0.00  0.00    -0.075 Cl
ATOM     14  S   UNL     1      38.872 -24.425 -14.885  0.00  0.00    -0.071 S 
ATOM     15  C   UNL     1      37.189 -24.392 -14.571  0.00  0.00    +0.084 C 
ATOM     16  C   UNL     1      36.809 -25.374 -13.684  0.00  0.00    +0.012 C 
ATOM     17  C   UNL     1      37.914 -26.166 -13.256  0.00  0.00    +0.019 C 
ATOM     18  C   UNL     1      39.097 -25.757 -13.833  0.00  0.00    +0.087 C 
ENDBRANCH  11  15
ENDBRANCH   4  10
ENDBRANCH   1   3
BRANCH   1  21
ATOM     19  O   UNL     1      37.414 -18.340 -20.328  0.00  0.00    -0.277 OA
ATOM     20  N   UNL     1      35.326 -18.631 -21.360  0.00  0.00    -0.284 N 
ATOM     21  C   UNL     1      36.499 -19.048 -20.736  0.00  0.00    +0.205 C 
ATOM     22  H   UNL     1      34.699 -19.341 -21.628  0.00  0.00    +0.155 HD
BRANCH  20  24
ATOM     23  F   UNL     1      35.227 -17.686 -23.981  0.00  0.00    -0.203 F 
ATOM     24  C   UNL     1      34.929 -17.305 -21.654  0.00  0.00    +0.078 C 
ATOM     25  C   UNL     1      34.891 -16.862 -22.977  0.00  0.00    +0.155 C 
ATOM     26  C   UNL     1      34.577 -16.438 -20.619  0.00  0.00    +0.018 C 
ATOM     27  C   UNL     1      34.147 -14.689 -22.229  0.00  0.00    +0.061 C 
ATOM     28  C   UNL     1      34.500 -15.555 -23.264  0.00  0.00    +0.046 C 
ATOM     29  C   UNL     1      34.186 -15.131 -20.907  0.00  0.00    +0.017 C 
BRANCH  27  31
ATOM     30  O   UNL     1      32.170 -13.175 -20.759  0.00  0.00    -0.269 OA
ATOM     31  N   UNL     1      33.741 -13.330 -22.528  0.00  0.00    -0.233 N 
ATOM     32  C   UNL     1      32.727 -12.708 -21.752  0.00  0.00    +0.257 C 
ATOM     33  C   UNL     1      34.354 -12.616 -23.559  0.00  0.00    +0.072 C 
ATOM     34  C   UNL     1      32.335 -11.322 -22.156  0.00  0.00    +0.059 C 
ATOM     35  C   UNL     1      34.009 -11.365 -23.881  0.00  0.00    +0.017 C 
ATOM     36  C   UNL     1      32.963 -10.704 -23.160  0.00  0.00    +0.006 C 
ENDBRANCH  27  31
ENDBRANCH  20  24
ENDBRANCH   1  21
TORSDOF 6
ENDMDL
MODEL 6
REMARK VINA RESULT:     -10.9      4.716     12.134
REMARK  Name = 42628063
REMARK  6 active torsions:
REMARK  status: ('A' for Active; 'I' for Inactive)
REMARK    1  A    between atoms: C_1  and  N_3
REMARK    2  A    between atoms: C_1  and  C_21
REMARK    3  A    between atoms: C_4  and  N_10
REMARK    4  A    between atoms: C_11  and  C_15
REMARK    5  A    between atoms: N_20  and  C_24
REMARK    6  A    between atoms: C_27  and  N_31
REMARK                            x       y       z     vdW  Elec       q    Type
REMARK                         _______ _______ _______ _____ _____    ______ ____
ROOT
ATOM      1  C   UNL     1      33.486 -21.030 -20.205  0.00  0.00    +0.010 C 
ENDROOT
BRANCH   1   3
ATOM      2  F   UNL     1      37.366 -18.935 -20.983  0.00  0.00    -0.238 F 
ATOM      3  N   UNL     1      34.517 -20.010 -20.328  0.00  0.00    +0.396 N 
ATOM      4  C   UNL     1      35.241 -17.945 -21.090  0.00  0.00    +0.082 C 
ATOM      5  C   UNL     1      36.182 -19.008 -21.648  0.00  0.00    +0.156 C 
ATOM      6  C   UNL     1      33.975 -18.712 -20.733  0.00  0.00    -0.054 C 
ATOM      7  C   UNL     1      35.517 -20.345 -21.347  0.00  0.00    -0.039 C 
ATOM      8  H   UNL     1      34.933 -19.966 -19.399  0.00  0.00    -0.079 HD
BRANCH   4  10
ATOM      9  O   UNL     1      34.335 -15.295 -20.457  0.00  0.00    -0.270 OA
ATOM     10  N   UNL     1      34.984 -16.881 -22.021  0.00  0.00    -0.302 N 
ATOM     11  C   UNL     1      34.545 -15.623 -21.621  0.00  0.00    +0.252 C 
ATOM     12  H   UNL     1      35.124 -17.048 -22.980  0.00  0.00    +0.150 HD
BRANCH  11  15
ATOM     13 CL   UNL     1      33.502 -13.345 -26.553  0.00  0.00    -0.075 Cl
ATOM     14  S   UNL     1      34.011 -15.207 -24.297  0.00  0.00    -0.071 S 
ATOM     15  C   UNL     1      34.300 -14.639 -22.708  0.00  0.00    +0.084 C 
ATOM     16  C   UNL     1      34.265 -13.264 -22.635  0.00  0.00    +0.012 C 
ATOM     17  C   UNL     1      33.998 -12.668 -23.902  0.00  0.00    +0.019 C 
ATOM     18  C   UNL     1      33.838 -13.611 -24.894  0.00  0.00    +0.087 C 
ENDBRANCH  11  15
ENDBRANCH   4  10
ENDBRANCH   1   3
BRANCH   1  21
ATOM     19  O   UNL     1      33.854 -23.336 -19.599  0.00  0.00    -0.277 OA
ATOM     20  N   UNL     1      34.605 -21.624 -18.178  0.00  0.00    -0.284 N 
ATOM     21  C   UNL     1      33.990 -22.151 -19.311  0.00  0.00    +0.205 C 
ATOM     22  H   UNL     1      34.629 -20.643 -18.113  0.00  0.00    +0.155 HD
BRANCH  20  24
ATOM     23  F   UNL     1      33.085 -23.195 -16.448  0.00  0.00    -0.203 F 
ATOM     24  C   UNL     1      35.200 -22.337 -17.110  0.00  0.00    +0.078 C 
ATOM     25  C   UNL     1      34.411 -23.115 -16.261  0.00  0.00    +0.155 C 
ATOM     26  C   UNL     1      36.578 -22.261 -16.905  0.00  0.00    +0.018 C 
ATOM     27  C   UNL     1      36.377 -23.740 -15.005  0.00  0.00    +0.061 C 
ATOM     28  C   UNL     1      34.999 -23.816 -15.210  0.00  0.00    +0.046 C 
ATOM     29  C   UNL     1      37.166 -22.963 -15.853  0.00  0.00    +0.017 C 
BRANCH  27  31
ATOM     30  O   UNL     1      37.502 -22.547 -12.623  0.00  0.00    -0.269 OA
ATOM     31  N   UNL     1      36.989 -24.469 -13.912  0.00  0.00    -0.233 N 
ATOM     32  C   UNL     1      37.542 -23.762 -12.812  0.00  0.00    +0.257 C 
ATOM     33  C   UNL     1      37.020 -25.865 -13.919  0.00  0.00    +0.072 C 
ATOM     34  C   UNL     1      38.195 -24.588 -11.750  0.00  0.00    +0.059 C 
ATOM     35  C   UNL     1      37.581 -26.583 -12.941  0.00  0.00    +0.017 C 
ATOM     36  C   UNL     1      38.192 -25.921 -11.828  0.00  0.00    +0.006 C 
ENDBRANCH  27  31
ENDBRANCH  20  24
ENDBRANCH   1  21
TORSDOF 6
ENDMDL
MODEL 7
REMARK VINA RESULT:     -10.8      6.555     10.250
REMARK  Name = 42628063
REMARK  6 active torsions:
REMARK  status: ('A' for Active; 'I' for Inactive)
REMARK    1  A    between atoms: C_1  and  N_3
REMARK    2  A    between atoms: C_1  and  C_21
REMARK    3  A    between atoms: C_4  and  N_10
REMARK    4  A    between atoms: C_11  and  C_15
REMARK    5  A    between atoms: N_20  and  C_24
REMARK    6  A    between atoms: C_27  and  N_31
REMARK                            x       y       z     vdW  Elec       q    Type
REMARK                         _______ _______ _______ _____ _____    ______ ____
ROOT
ATOM      1  C   UNL     1      32.059 -12.195 -20.474  0.00  0.00    +0.010 C 
ENDROOT
BRANCH   1   3
ATOM      2  F   UNL     1      34.487 -14.020 -23.763  0.00  0.00    -0.238 F 
ATOM      3  N   UNL     1      32.623 -13.136 -21.430  0.00  0.00    +0.396 N 
ATOM      4  C   UNL     1      33.598 -15.179 -21.927  0.00  0.00    +0.082 C 
ATOM      5  C   UNL     1      34.540 -14.079 -22.405  0.00  0.00    +0.156 C 
ATOM      6  C   UNL     1      32.715 -14.494 -20.891  0.00  0.00    -0.054 C 
ATOM      7  C   UNL     1      33.991 -12.783 -21.823  0.00  0.00    -0.039 C 
ATOM      8  H   UNL     1      31.985 -13.093 -22.224  0.00  0.00    -0.079 HD
BRANCH   4  10
ATOM      9  O   UNL     1      34.873 -17.284 -23.404  0.00  0.00    -0.270 OA
ATOM     10  N   UNL     1      34.291 -16.312 -21.380  0.00  0.00    -0.302 N 
ATOM     11  C   UNL     1      34.881 -17.288 -22.177  0.00  0.00    +0.252 C 
ATOM     12  H   UNL     1      34.352 -16.402 -20.402  0.00  0.00    +0.150 HD
BRANCH  11  15
ATOM     13 CL   UNL     1      35.775 -22.010 -19.440  0.00  0.00    -0.075 Cl
ATOM     14  S   UNL     1      34.581 -19.707 -20.883  0.00  0.00    -0.071 S 
ATOM     15  C   UNL     1      35.539 -18.410 -21.458  0.00  0.00    +0.084 C 
ATOM     16  C   UNL     1      36.874 -18.583 -21.167  0.00  0.00    +0.012 C 
ATOM     17  C   UNL     1      37.114 -19.797 -20.460  0.00  0.00    +0.019 C 
ATOM     18  C   UNL     1      35.953 -20.506 -20.240  0.00  0.00    +0.087 C 
ENDBRANCH  11  15
ENDBRANCH   4  10
ENDBRANCH   1   3
BRANCH   1  21
ATOM     19  O   UNL     1      30.370 -11.001 -21.715  0.00  0.00    -0.277 OA
ATOM     20  N   UNL     1      32.414  -9.955 -21.227  0.00  0.00    -0.284 N 
ATOM     21  C   UNL     1      31.491 -10.998 -21.218  0.00  0.00    +0.205 C 
ATOM     22  H   UNL     1      33.270 -10.126 -20.771  0.00  0.00    +0.155 HD
BRANCH  20  24
ATOM     23  F   UNL     1      33.397  -7.658 -19.991  0.00  0.00    -0.203 F 
ATOM     24  C   UNL     1      32.265  -8.676 -21.815  0.00  0.00    +0.078 C 
ATOM     25  C   UNL     1      32.769  -7.545 -21.170  0.00  0.00    +0.155 C 
ATOM     26  C   UNL     1      31.613  -8.547 -23.041  0.00  0.00    +0.018 C 
ATOM     27  C   UNL     1      31.969  -6.158 -22.978  0.00  0.00    +0.061 C 
ATOM     28  C   UNL     1      32.620  -6.287 -21.752  0.00  0.00    +0.046 C 
ATOM     29  C   UNL     1      31.465  -7.288 -23.623  0.00  0.00    +0.017 C 
BRANCH  27  31
ATOM     30  O   UNL     1      30.159  -4.096 -22.063  0.00  0.00    -0.269 OA
ATOM     31  N   UNL     1      31.815  -4.849 -23.583  0.00  0.00    -0.233 N 
ATOM     32  C   UNL     1      30.860  -3.937 -23.062  0.00  0.00    +0.257 C 
ATOM     33  C   UNL     1      32.614  -4.468 -24.662  0.00  0.00    +0.072 C 
ATOM     34  C   UNL     1      30.732  -2.628 -23.773  0.00  0.00    +0.059 C 
ATOM     35  C   UNL     1      32.505  -3.277 -25.261  0.00  0.00    +0.017 C 
ATOM     36  C   UNL     1      31.528  -2.334 -24.804  0.00  0.00    +0.006 C 
ENDBRANCH  27  31
ENDBRANCH  20  24
ENDBRANCH   1  21
TORSDOF 6
ENDMDL
MODEL 8
REMARK VINA RESULT:     -10.8      5.625     12.277
REMARK  Name = 42628063
REMARK  6 active torsions:
REMARK  status: ('A' for Active; 'I' for Inactive)
REMARK    1  A    between atoms: C_1  and  N_3
REMARK    2  A    between atoms: C_1  and  C_21
REMARK    3  A    between atoms: C_4  and  N_10
REMARK    4  A    between atoms: C_11  and  C_15
REMARK    5  A    between atoms: N_20  and  C_24
REMARK    6  A    between atoms: C_27  and  N_31
REMARK                            x       y       z     vdW  Elec       q    Type
REMARK                         _______ _______ _______ _____ _____    ______ ____
ROOT
ATOM      1  C   UNL     1      35.524 -18.050 -23.213  0.00  0.00    +0.010 C 
ENDROOT
BRANCH   1   3
ATOM      2  F   UNL     1      32.923 -15.185 -20.962  0.00  0.00    -0.238 F 
ATOM      3  N   UNL     1      34.604 -16.973 -22.879  0.00  0.00    +0.396 N 
ATOM      4  C   UNL     1      33.933 -14.761 -23.037  0.00  0.00    +0.082 C 
ATOM      5  C   UNL     1      34.140 -15.086 -21.561  0.00  0.00    +0.156 C 
ATOM      6  C   UNL     1      34.742 -15.822 -23.772  0.00  0.00    -0.054 C 
ATOM      7  C   UNL     1      34.828 -16.444 -21.530  0.00  0.00    -0.039 C 
ATOM      8  H   UNL     1      33.683 -17.401 -22.962  0.00  0.00    -0.079 HD
BRANCH   4  10
ATOM      9  O   UNL     1      32.457 -12.337 -22.605  0.00  0.00    -0.270 OA
ATOM     10  N   UNL     1      34.350 -13.430 -23.381  0.00  0.00    -0.302 N 
ATOM     11  C   UNL     1      33.565 -12.309 -23.133  0.00  0.00    +0.252 C 
ATOM     12  H   UNL     1      35.227 -13.305 -23.810  0.00  0.00    +0.150 HD
BRANCH  11  15
ATOM     13 CL   UNL     1      34.508  -6.891 -23.730  0.00  0.00    -0.075 Cl
ATOM     14  S   UNL     1      33.468  -9.557 -22.939  0.00  0.00    -0.071 S 
ATOM     15  C   UNL     1      34.128 -11.005 -23.572  0.00  0.00    +0.084 C 
ATOM     16  C   UNL     1      35.156 -10.763 -24.455  0.00  0.00    +0.012 C 
ATOM     17  C   UNL     1      35.406  -9.369 -24.616  0.00  0.00    +0.019 C 
ATOM     18  C   UNL     1      34.559  -8.600 -23.848  0.00  0.00    +0.087 C 
ENDBRANCH  11  15
ENDBRANCH   4  10
ENDBRANCH   1   3
BRANCH   1  21
ATOM     19  O   UNL     1      37.071 -18.534 -21.426  0.00  0.00    -0.277 OA
ATOM     20  N   UNL     1      34.980 -19.601 -21.478  0.00  0.00    -0.284 N 
ATOM     21  C   UNL     1      35.976 -18.743 -21.938  0.00  0.00    +0.205 C 
ATOM     22  H   UNL     1      34.157 -19.640 -22.016  0.00  0.00    +0.155 HD
BRANCH  20  24
ATOM     23  F   UNL     1      32.641 -20.547 -20.293  0.00  0.00    -0.203 F 
ATOM     24  C   UNL     1      35.014 -20.423 -20.327  0.00  0.00    +0.078 C 
ATOM     25  C   UNL     1      33.825 -20.880 -19.757  0.00  0.00    +0.155 C 
ATOM     26  C   UNL     1      36.239 -20.775 -19.760  0.00  0.00    +0.018 C 
ATOM     27  C   UNL     1      35.086 -22.043 -18.057  0.00  0.00    +0.061 C 
ATOM     28  C   UNL     1      33.861 -21.690 -18.623  0.00  0.00    +0.046 C 
ATOM     29  C   UNL     1      36.274 -21.586 -18.625  0.00  0.00    +0.017 C 
BRANCH  27  31
ATOM     30  O   UNL     1      37.380 -22.406 -16.334  0.00  0.00    -0.269 OA
ATOM     31  N   UNL     1      35.123 -22.885 -16.877  0.00  0.00    -0.233 N 
ATOM     32  C   UNL     1      36.327 -23.010 -16.135  0.00  0.00    +0.257 C 
ATOM     33  C   UNL     1      33.977 -23.558 -16.449  0.00  0.00    +0.072 C 
ATOM     34  C   UNL     1      36.292 -23.934 -14.960  0.00  0.00    +0.059 C 
ATOM     35  C   UNL     1      33.962 -24.353 -15.374  0.00  0.00    +0.017 C 
ATOM     36  C   UNL     1      35.159 -24.550 -14.613  0.00  0.00    +0.006 C 
ENDBRANCH  27  31
ENDBRANCH  20  24
ENDBRANCH   1  21
TORSDOF 6
ENDMDL
MODEL 9
REMARK VINA RESULT:     -10.5      5.320     11.560
REMARK  Name = 42628063
REMARK  6 active torsions:
REMARK  status: ('A' for Active; 'I' for Inactive)
REMARK    1  A    between atoms: C_1  and  N_3
REMARK    2  A    between atoms: C_1  and  C_21
REMARK    3  A    between atoms: C_4  and  N_10
REMARK    4  A    between atoms: C_11  and  C_15
REMARK    5  A    between atoms: N_20  and  C_24
REMARK    6  A    between atoms: C_27  and  N_31
REMARK                            x       y       z     vdW  Elec       q    Type
REMARK                         _______ _______ _______ _____ _____    ______ ____
ROOT
ATOM      1  C   UNL     1      36.697 -20.212 -21.058  0.00  0.00    +0.010 C 
ENDROOT
BRANCH   1   3
ATOM      2  F   UNL     1      35.303 -17.744 -24.523  0.00  0.00    -0.238 F 
ATOM      3  N   UNL     1      36.395 -19.092 -21.936  0.00  0.00    +0.396 N 
ATOM      4  C   UNL     1      35.473 -16.998 -22.304  0.00  0.00    +0.082 C 
ATOM      5  C   UNL     1      34.818 -17.977 -23.273  0.00  0.00    +0.156 C 
ATOM      6  C   UNL     1      36.033 -17.882 -21.197  0.00  0.00    -0.054 C 
ATOM      7  C   UNL     1      35.253 -19.363 -22.816  0.00  0.00    -0.039 C 
ATOM      8  H   UNL     1      37.252 -18.960 -22.471  0.00  0.00    -0.079 HD
BRANCH   4  10
ATOM      9  O   UNL     1      34.936 -14.415 -23.436  0.00  0.00    -0.270 OA
ATOM     10  N   UNL     1      34.558 -16.013 -21.798  0.00  0.00    -0.302 N 
ATOM     11  C   UNL     1      34.361 -14.783 -22.416  0.00  0.00    +0.252 C 
ATOM     12  H   UNL     1      34.049 -16.218 -20.981  0.00  0.00    +0.150 HD
BRANCH  11  15
ATOM     13 CL   UNL     1      31.034 -10.499 -21.331  0.00  0.00    -0.075 Cl
ATOM     14  S   UNL     1      32.953 -12.412 -22.544  0.00  0.00    -0.071 S 
ATOM     15  C   UNL     1      33.398 -13.865 -21.754  0.00  0.00    +0.084 C 
ATOM     16  C   UNL     1      32.768 -14.006 -20.537  0.00  0.00    +0.012 C 
ATOM     17  C   UNL     1      31.909 -12.906 -20.248  0.00  0.00    +0.019 C 
ATOM     18  C   UNL     1      31.915 -11.967 -21.257  0.00  0.00    +0.087 C 
ENDBRANCH  11  15
ENDBRANCH   4  10
ENDBRANCH   1   3
BRANCH   1  21
ATOM     19  O   UNL     1      34.388 -19.999 -20.391  0.00  0.00    -0.277 OA
ATOM     20  N   UNL     1      35.798 -21.489 -19.249  0.00  0.00    -0.284 N 
ATOM     21  C   UNL     1      35.478 -20.532 -20.209  0.00  0.00    +0.205 C 
ATOM     22  H   UNL     1      36.727 -21.813 -19.250  0.00  0.00    +0.155 HD
BRANCH  20  24
ATOM     23  F   UNL     1      36.774 -22.381 -16.795  0.00  0.00    -0.203 F 
ATOM     24  C   UNL     1      34.942 -22.050 -18.272  0.00  0.00    +0.078 C 
ATOM     25  C   UNL     1      35.462 -22.488 -17.052  0.00  0.00    +0.155 C 
ATOM     26  C   UNL     1      33.576 -22.167 -18.528  0.00  0.00    +0.018 C 
ATOM     27  C   UNL     1      33.251 -23.155 -16.348  0.00  0.00    +0.061 C 
ATOM     28  C   UNL     1      34.617 -23.040 -16.091  0.00  0.00    +0.046 C 
ATOM     29  C   UNL     1      32.730 -22.719 -17.566  0.00  0.00    +0.017 C 
BRANCH  27  31
ATOM     30  O   UNL     1      30.363 -22.995 -16.371  0.00  0.00    -0.269 OA
ATOM     31  N   UNL     1      32.371 -23.730 -15.348  0.00  0.00    -0.233 N 
ATOM     32  C   UNL     1      30.967 -23.547 -15.452  0.00  0.00    +0.257 C 
ATOM     33  C   UNL     1      32.892 -24.482 -14.293  0.00  0.00    +0.072 C 
ATOM     34  C   UNL     1      30.137 -24.132 -14.354  0.00  0.00    +0.059 C 
ATOM     35  C   UNL     1      32.125 -25.024 -13.342  0.00  0.00    +0.017 C 
ATOM     36  C   UNL     1      30.706 -24.836 -13.373  0.00  0.00    +0.006 C 
ENDBRANCH  27  31
ENDBRANCH  20  24
ENDBRANCH   1  21
TORSDOF 6
ENDMDL
