MODEL 1
REMARK VINA RESULT:     -11.1      0.000      0.000
REMARK  Name = 2929
REMARK  5 active torsions:
REMARK  status: ('A' for Active; 'I' for Inactive)
REMARK    1  A    between atoms: N_1  and  C_22
REMARK    2  A    between atoms: C_4  and  C_11
REMARK    3  A    between atoms: C_11  and  C_14
REMARK    4  A    between atoms: N_13  and  C_17
REMARK    5  A    between atoms: C_22  and  C_24
REMARK                            x       y       z     vdW  Elec       q    Type
REMARK                         _______ _______ _______ _____ _____    ______ ____
ROOT
ATOM      1  N   UNL     1      34.164 -23.342 -14.805  0.00  0.00    -0.281 N 
ATOM      2  C   UNL     1      32.791 -23.238 -14.825  0.00  0.00    +0.052 C 
ATOM      3  C   UNL     1      32.408 -23.104 -16.161  0.00  0.00    +0.018 C 
ATOM      4  C   UNL     1      33.597 -23.132 -16.941  0.00  0.00    +0.060 C 
ATOM      5  C   UNL     1      34.661 -23.279 -16.080  0.00  0.00    +0.069 C 
ATOM      6  C   UNL     1      31.870 -23.252 -13.772  0.00  0.00    +0.015 C 
ATOM      7  C   UNL     1      31.038 -22.977 -16.463  0.00  0.00    +0.001 C 
ATOM      8  C   UNL     1      30.516 -23.124 -14.096  0.00  0.00    +0.001 C 
ATOM      9  C   UNL     1      30.105 -22.990 -15.420  0.00  0.00    +0.000 C 
ENDROOT
BRANCH   4  11
ATOM     10  O   UNL     1      33.784 -23.998 -19.145  0.00  0.00    -0.282 OA
ATOM     11  C   UNL     1      33.724 -23.031 -18.367  0.00  0.00    +0.250 C 
BRANCH  11  14
ATOM     12  O   UNL     1      32.817 -20.996 -19.064  0.00  0.00    -0.266 OA
ATOM     13  N   UNL     1      35.052 -21.512 -19.656  0.00  0.00    -0.278 N 
ATOM     14  C   UNL     1      33.812 -21.699 -19.083  0.00  0.00    +0.289 C 
ATOM     15  H   UNL     1      35.707 -22.237 -19.535  0.00  0.00    +0.155 HD
BRANCH  13  17
ATOM     16  N   UNL     1      36.335 -18.181 -21.852  0.00  0.00    -0.242 NA
ATOM     17  C   UNL     1      35.485 -20.387 -20.396  0.00  0.00    +0.054 C 
ATOM     18  C   UNL     1      36.778 -19.930 -20.242  0.00  0.00    +0.035 C 
ATOM     19  C   UNL     1      34.607 -19.766 -21.262  0.00  0.00    +0.035 C 
ATOM     20  C   UNL     1      37.154 -18.826 -20.991  0.00  0.00    +0.100 C 
ATOM     21  C   UNL     1      35.079 -18.669 -21.964  0.00  0.00    +0.100 C 
ENDBRANCH  13  17
ENDBRANCH  11  14
ENDBRANCH   4  11
BRANCH   1  22
ATOM     22  C   UNL     1      34.980 -23.496 -13.620  0.00  0.00    +0.122 C 
BRANCH  22  24
ATOM     23 CL   UNL     1      40.322 -25.891 -14.940  0.00  0.00    -0.082 Cl
ATOM     24  C   UNL     1      36.320 -24.096 -13.950  0.00  0.00    -0.002 C 
ATOM     25  C   UNL     1      37.309 -23.297 -14.507  0.00  0.00    -0.002 C 
ATOM     26  C   UNL     1      36.548 -25.441 -13.694  0.00  0.00    -0.002 C 
ATOM     27  C   UNL     1      38.551 -23.854 -14.813  0.00  0.00    +0.011 C 
ATOM     28  C   UNL     1      37.789 -25.998 -14.002  0.00  0.00    +0.011 C 
ATOM     29  C   UNL     1      38.791 -25.204 -14.561  0.00  0.00    +0.058 C 
ENDBRANCH  22  24
ENDBRANCH   1  22
TORSDOF 5
ENDMDL
MODEL 2
REMARK VINA RESULT:     -11.1      9.821     14.693
REMARK  Name = 2929
REMARK  5 active torsions:
REMARK  status: ('A' for Active; 'I' for Inactive)
REMARK    1  A    between atoms: N_1  and  C_22
REMARK    2  A    between atoms: C_4  and  C_11
REMARK    3  A    between atoms: C_11  and  C_14
REMARK    4  A    between atoms: N_13  and  C_17
REMARK    5  A    between atoms: C_22  and  C_24
REMARK                            x       y       z     vdW  Elec       q    Type
REMARK                         _______ _______ _______ _____ _____    ______ ____
ROOT
ATOM      1  N   UNL     1      32.674  -9.169 -22.277  0.00  0.00    -0.281 N 
ATOM      2  C   UNL     1      32.212 -10.139 -21.418  0.00  0.00    +0.052 C 
ATOM      3  C   UNL     1      32.569 -11.374 -21.962  0.00  0.00    +0.018 C 
ATOM      4  C   UNL     1      33.261 -11.111 -23.177  0.00  0.00    +0.060 C 
ATOM      5  C   UNL     1      33.310  -9.746 -23.343  0.00  0.00    +0.069 C 
ATOM      6  C   UNL     1      31.512 -10.018 -20.212  0.00  0.00    +0.015 C 
ATOM      7  C   UNL     1      32.209 -12.548 -21.271  0.00  0.00    +0.001 C 
ATOM      8  C   UNL     1      31.166 -11.196 -19.544  0.00  0.00    +0.001 C 
ATOM      9  C   UNL     1      31.510 -12.443 -20.063  0.00  0.00    +0.000 C 
ENDROOT
BRANCH   4  11
ATOM     10  O   UNL     1      34.472 -11.756 -25.116  0.00  0.00    -0.282 OA
ATOM     11  C   UNL     1      33.827 -12.056 -24.097  0.00  0.00    +0.250 C 
BRANCH  11  14
ATOM     12  O   UNL     1      32.747 -14.087 -24.497  0.00  0.00    -0.266 OA
ATOM     13  N   UNL     1      34.660 -14.067 -23.099  0.00  0.00    -0.278 N 
ATOM     14  C   UNL     1      33.678 -13.552 -23.919  0.00  0.00    +0.289 C 
ATOM     15  H   UNL     1      35.316 -13.425 -22.742  0.00  0.00    +0.155 HD
BRANCH  13  17
ATOM     16  N   UNL     1      35.159 -18.071 -21.972  0.00  0.00    -0.242 NA
ATOM     17  C   UNL     1      34.827 -15.418 -22.719  0.00  0.00    +0.054 C 
ATOM     18  C   UNL     1      35.081 -16.370 -23.687  0.00  0.00    +0.035 C 
ATOM     19  C   UNL     1      34.736 -15.764 -21.385  0.00  0.00    +0.035 C 
ATOM     20  C   UNL     1      35.239 -17.679 -23.263  0.00  0.00    +0.100 C 
ATOM     21  C   UNL     1      34.909 -17.101 -21.064  0.00  0.00    +0.100 C 
ENDBRANCH  13  17
ENDBRANCH  11  14
ENDBRANCH   4  11
BRANCH   1  22
ATOM     22  C   UNL     1      32.520  -7.740 -22.097  0.00  0.00    +0.122 C 
BRANCH  22  24
ATOM     23 CL   UNL     1      35.270  -4.670 -26.459  0.00  0.00    -0.082 Cl
ATOM     24  C   UNL     1      33.210  -6.971 -23.191  0.00  0.00    -0.002 C 
ATOM     25  C   UNL     1      34.596  -6.976 -23.261  0.00  0.00    -0.002 C 
ATOM     26  C   UNL     1      32.450  -6.267 -24.115  0.00  0.00    -0.002 C 
ATOM     27  C   UNL     1      35.235  -6.263 -24.275  0.00  0.00    +0.011 C 
ATOM     28  C   UNL     1      33.089  -5.553 -25.128  0.00  0.00    +0.011 C 
ATOM     29  C   UNL     1      34.482  -5.551 -25.209  0.00  0.00    +0.058 C 
ENDBRANCH  22  24
ENDBRANCH   1  22
TORSDOF 5
ENDMDL
MODEL 3
REMARK VINA RESULT:     -10.7      5.697      9.606
REMARK  Name = 2929
REMARK  5 active torsions:
REMARK  status: ('A' for Active; 'I' for Inactive)
REMARK    1  A    between atoms: N_1  and  C_22
REMARK    2  A    between atoms: C_4  and  C_11
REMARK    3  A    between atoms: C_11  and  C_14
REMARK    4  A    between atoms: N_13  and  C_17
REMARK    5  A    between atoms: C_22  and  C_24
REMARK                            x       y       z     vdW  Elec       q    Type
REMARK                         _______ _______ _______ _____ _____    ______ ____
ROOT
ATOM      1  N   UNL     1      35.219 -17.606 -21.845  0.00  0.00    -0.281 N 
ATOM      2  C   UNL     1      34.916 -16.945 -23.014  0.00  0.00    +0.052 C 
ATOM      3  C   UNL     1      34.139 -15.837 -22.671  0.00  0.00    +0.018 C 
ATOM      4  C   UNL     1      33.986 -15.857 -21.257  0.00  0.00    +0.060 C 
ATOM      5  C   UNL     1      34.661 -16.956 -20.777  0.00  0.00    +0.069 C 
ATOM      6  C   UNL     1      35.268 -17.241 -24.336  0.00  0.00    +0.015 C 
ATOM      7  C   UNL     1      33.689 -14.982 -23.696  0.00  0.00    +0.001 C 
ATOM      8  C   UNL     1      34.811 -16.378 -25.335  0.00  0.00    +0.001 C 
ATOM      9  C   UNL     1      34.034 -15.264 -25.022  0.00  0.00    +0.000 C 
ENDROOT
BRANCH   4  11
ATOM     10  O   UNL     1      32.433 -15.242 -19.568  0.00  0.00    -0.282 OA
ATOM     11  C   UNL     1      33.271 -14.927 -20.430  0.00  0.00    +0.250 C 
BRANCH  11  14
ATOM     12  O   UNL     1      34.601 -13.031 -20.723  0.00  0.00    -0.266 OA
ATOM     13  N   UNL     1      32.271 -12.752 -20.398  0.00  0.00    -0.278 N 
ATOM     14  C   UNL     1      33.463 -13.429 -20.537  0.00  0.00    +0.289 C 
ATOM     15  H   UNL     1      31.467 -13.301 -20.251  0.00  0.00    +0.155 HD
BRANCH  13  17
ATOM     16  N   UNL     1      31.702  -8.603 -20.538  0.00  0.00    -0.242 NA
ATOM     17  C   UNL     1      32.078 -11.352 -20.445  0.00  0.00    +0.054 C 
ATOM     18  C   UNL     1      32.023 -10.634 -19.267  0.00  0.00    +0.035 C 
ATOM     19  C   UNL     1      31.949 -10.726 -21.669  0.00  0.00    +0.035 C 
ATOM     20  C   UNL     1      31.834  -9.265 -19.367  0.00  0.00    +0.100 C 
ATOM     21  C   UNL     1      31.763  -9.353 -21.662  0.00  0.00    +0.100 C 
ENDBRANCH  13  17
ENDBRANCH  11  14
ENDBRANCH   4  11
BRANCH   1  22
ATOM     22  C   UNL     1      36.010 -18.815 -21.741  0.00  0.00    +0.122 C 
BRANCH  22  24
ATOM     23 CL   UNL     1      33.431 -22.807 -18.077  0.00  0.00    -0.082 Cl
ATOM     24  C   UNL     1      35.363 -19.816 -20.823  0.00  0.00    -0.002 C 
ATOM     25  C   UNL     1      33.979 -19.919 -20.789  0.00  0.00    -0.002 C 
ATOM     26  C   UNL     1      36.159 -20.623 -20.022  0.00  0.00    -0.002 C 
ATOM     27  C   UNL     1      33.380 -20.847 -19.937  0.00  0.00    +0.011 C 
ATOM     28  C   UNL     1      35.560 -21.550 -19.170  0.00  0.00    +0.011 C 
ATOM     29  C   UNL     1      34.170 -21.663 -19.128  0.00  0.00    +0.058 C 
ENDBRANCH  22  24
ENDBRANCH   1  22
TORSDOF 5
ENDMDL
MODEL 4
REMARK VINA RESULT:     -10.4      3.460      6.880
REMARK  Name = 2929
REMARK  5 active torsions:
REMARK  status: ('A' for Active; 'I' for Inactive)
REMARK    1  A    between atoms: N_1  and  C_22
REMARK    2  A    between atoms: C_4  and  C_11
REMARK    3  A    between atoms: C_11  and  C_14
REMARK    4  A    between atoms: N_13  and  C_17
REMARK    5  A    between atoms: C_22  and  C_24
REMARK                            x       y       z     vdW  Elec       q    Type
REMARK                         _______ _______ _______ _____ _____    ______ ____
ROOT
ATOM      1  N   UNL     1      33.609 -23.710 -16.786  0.00  0.00    -0.281 N 
ATOM      2  C   UNL     1      32.449 -23.330 -16.147  0.00  0.00    +0.052 C 
ATOM      3  C   UNL     1      32.733 -23.271 -14.782  0.00  0.00    +0.018 C 
ATOM      4  C   UNL     1      34.100 -23.628 -14.623  0.00  0.00    +0.060 C 
ATOM      5  C   UNL     1      34.612 -23.892 -15.873  0.00  0.00    +0.069 C 
ATOM      6  C   UNL     1      31.185 -23.038 -16.671  0.00  0.00    +0.015 C 
ATOM      7  C   UNL     1      31.704 -22.903 -13.892  0.00  0.00    +0.001 C 
ATOM      8  C   UNL     1      30.181 -22.674 -15.770  0.00  0.00    +0.001 C 
ATOM      9  C   UNL     1      30.434 -22.607 -14.401  0.00  0.00    +0.000 C 
ENDROOT
BRANCH   4  11
ATOM     10  O   UNL     1      34.368 -23.813 -12.270  0.00  0.00    -0.282 OA
ATOM     11  C   UNL     1      34.859 -23.712 -13.407  0.00  0.00    +0.250 C 
BRANCH  11  14
ATOM     12  O   UNL     1      36.892 -22.685 -12.898  0.00  0.00    -0.266 OA
ATOM     13  N   UNL     1      36.917 -24.805 -13.956  0.00  0.00    -0.278 N 
ATOM     14  C   UNL     1      36.372 -23.673 -13.389  0.00  0.00    +0.289 C 
ATOM     15  H   UNL     1      36.282 -25.478 -14.292  0.00  0.00    +0.155 HD
BRANCH  13  17
ATOM     16  N   UNL     1      40.989 -25.688 -14.397  0.00  0.00    -0.242 NA
ATOM     17  C   UNL     1      38.291 -25.104 -14.106  0.00  0.00    +0.054 C 
ATOM     18  C   UNL     1      39.003 -24.525 -15.137  0.00  0.00    +0.035 C 
ATOM     19  C   UNL     1      38.898 -25.967 -13.216  0.00  0.00    +0.035 C 
ATOM     20  C   UNL     1      40.346 -24.849 -15.240  0.00  0.00    +0.100 C 
ATOM     21  C   UNL     1      40.246 -26.227 -13.405  0.00  0.00    +0.100 C 
ENDBRANCH  13  17
ENDBRANCH  11  14
ENDBRANCH   4  11
BRANCH   1  22
ATOM     22  C   UNL     1      33.763 -23.895 -18.213  0.00  0.00    +0.122 C 
BRANCH  22  24
ATOM     23 CL   UNL     1      35.019 -18.715 -20.972  0.00  0.00    -0.082 Cl
ATOM     24  C   UNL     1      34.078 -22.595 -18.904  0.00  0.00    -0.002 C 
ATOM     25  C   UNL     1      33.039 -21.783 -19.340  0.00  0.00    -0.002 C 
ATOM     26  C   UNL     1      35.402 -22.227 -19.097  0.00  0.00    -0.002 C 
ATOM     27  C   UNL     1      33.332 -20.579 -19.981  0.00  0.00    +0.011 C 
ATOM     28  C   UNL     1      35.694 -21.024 -19.739  0.00  0.00    +0.011 C 
ATOM     29  C   UNL     1      34.659 -20.199 -20.180  0.00  0.00    +0.058 C 
ENDBRANCH  22  24
ENDBRANCH   1  22
TORSDOF 5
ENDMDL
MODEL 5
REMARK VINA RESULT:     -10.3     10.654     15.763
REMARK  Name = 2929
REMARK  5 active torsions:
REMARK  status: ('A' for Active; 'I' for Inactive)
REMARK    1  A    between atoms: N_1  and  C_22
REMARK    2  A    between atoms: C_4  and  C_11
REMARK    3  A    between atoms: C_11  and  C_14
REMARK    4  A    between atoms: N_13  and  C_17
REMARK    5  A    between atoms: C_22  and  C_24
REMARK                            x       y       z     vdW  Elec       q    Type
REMARK                         _______ _______ _______ _____ _____    ______ ____
ROOT
ATOM      1  N   UNL     1      34.537  -8.561 -23.293  0.00  0.00    -0.281 N 
ATOM      2  C   UNL     1      33.488  -8.966 -22.498  0.00  0.00    +0.052 C 
ATOM      3  C   UNL     1      33.143 -10.257 -22.901  0.00  0.00    +0.018 C 
ATOM      4  C   UNL     1      34.019 -10.612 -23.964  0.00  0.00    +0.060 C 
ATOM      5  C   UNL     1      34.865  -9.549 -24.182  0.00  0.00    +0.069 C 
ATOM      6  C   UNL     1      32.828  -8.294 -21.464  0.00  0.00    +0.015 C 
ATOM      7  C   UNL     1      32.084 -10.912 -22.241  0.00  0.00    +0.001 C 
ATOM      8  C   UNL     1      31.781  -8.963 -20.823  0.00  0.00    +0.001 C 
ATOM      9  C   UNL     1      31.414 -10.253 -21.204  0.00  0.00    +0.000 C 
ENDROOT
BRANCH   4  11
ATOM     10  O   UNL     1      34.319 -11.927 -25.919  0.00  0.00    -0.282 OA
ATOM     11  C   UNL     1      34.059 -11.840 -24.707  0.00  0.00    +0.250 C 
BRANCH  11  14
ATOM     12  O   UNL     1      32.808 -13.799 -24.501  0.00  0.00    -0.266 OA
ATOM     13  N   UNL     1      34.677 -13.483 -23.080  0.00  0.00    -0.278 N 
ATOM     14  C   UNL     1      33.769 -13.183 -24.073  0.00  0.00    +0.289 C 
ATOM     15  H   UNL     1      35.379 -12.815 -22.909  0.00  0.00    +0.155 HD
BRANCH  13  17
ATOM     16  N   UNL     1      34.777 -16.941 -20.716  0.00  0.00    -0.242 NA
ATOM     17  C   UNL     1      34.710 -14.651 -22.283  0.00  0.00    +0.054 C 
ATOM     18  C   UNL     1      35.165 -15.834 -22.829  0.00  0.00    +0.035 C 
ATOM     19  C   UNL     1      34.288 -14.587 -20.970  0.00  0.00    +0.035 C 
ATOM     20  C   UNL     1      35.178 -16.949 -22.006  0.00  0.00    +0.100 C 
ATOM     21  C   UNL     1      34.340 -15.757 -20.230  0.00  0.00    +0.100 C 
ENDBRANCH  13  17
ENDBRANCH  11  14
ENDBRANCH   4  11
BRANCH   1  22
ATOM     22  C   UNL     1      35.207  -7.280 -23.215  0.00  0.00    +0.122 C 
BRANCH  22  24
ATOM     23 CL   UNL     1      32.729  -3.279 -26.940  0.00  0.00    -0.082 Cl
ATOM     24  C   UNL     1      34.585  -6.277 -24.150  0.00  0.00    -0.002 C 
ATOM     25  C   UNL     1      35.292  -5.855 -25.268  0.00  0.00    -0.002 C 
ATOM     26  C   UNL     1      33.314  -5.788 -23.880  0.00  0.00    -0.002 C 
ATOM     27  C   UNL     1      34.715  -4.925 -26.133  0.00  0.00    +0.011 C 
ATOM     28  C   UNL     1      32.739  -4.858 -24.745  0.00  0.00    +0.011 C 
ATOM     29  C   UNL     1      33.439  -4.427 -25.872  0.00  0.00    +0.058 C 
ENDBRANCH  22  24
ENDBRANCH   1  22
TORSDOF 5
ENDMDL
MODEL 6
REMARK VINA RESULT:     -10.3      6.721     11.972
REMARK  Name = 2929
REMARK  5 active torsions:
REMARK  status: ('A' for Active; 'I' for Inactive)
REMARK    1  A    between atoms: N_1  and  C_22
REMARK    2  A    between atoms: C_4  and  C_11
REMARK    3  A    between atoms: C_11  and  C_14
REMARK    4  A    between atoms: N_13  and  C_17
REMARK    5  A    between atoms: C_22  and  C_24
REMARK                            x       y       z     vdW  Elec       q    Type
REMARK                         _______ _______ _______ _____ _____    ______ ____
ROOT
ATOM      1  N   UNL     1      33.523 -13.801 -23.859  0.00  0.00    -0.281 N 
ATOM      2  C   UNL     1      33.112 -13.807 -22.545  0.00  0.00    +0.052 C 
ATOM      3  C   UNL     1      33.623 -14.967 -21.960  0.00  0.00    +0.018 C 
ATOM      4  C   UNL     1      34.353 -15.657 -22.968  0.00  0.00    +0.060 C 
ATOM      5  C   UNL     1      34.273 -14.915 -24.124  0.00  0.00    +0.069 C 
ATOM      6  C   UNL     1      32.336 -12.882 -21.838  0.00  0.00    +0.015 C 
ATOM      7  C   UNL     1      33.345 -15.220 -20.602  0.00  0.00    +0.001 C 
ATOM      8  C   UNL     1      32.074 -13.154 -20.492  0.00  0.00    +0.001 C 
ATOM      9  C   UNL     1      32.571 -14.304 -19.881  0.00  0.00    +0.000 C 
ENDROOT
BRANCH   4  11
ATOM     10  O   UNL     1      35.688 -17.446 -23.779  0.00  0.00    -0.282 OA
ATOM     11  C   UNL     1      35.063 -16.899 -22.855  0.00  0.00    +0.250 C 
BRANCH  11  14
ATOM     12  O   UNL     1      35.599 -17.140 -20.596  0.00  0.00    -0.266 OA
ATOM     13  N   UNL     1      34.576 -18.954 -21.727  0.00  0.00    -0.278 N 
ATOM     14  C   UNL     1      35.111 -17.693 -21.567  0.00  0.00    +0.289 C 
ATOM     15  H   UNL     1      34.239 -19.179 -22.624  0.00  0.00    +0.155 HD
BRANCH  13  17
ATOM     16  N   UNL     1      34.226 -21.933 -18.801  0.00  0.00    -0.242 NA
ATOM     17  C   UNL     1      34.458 -19.958 -20.739  0.00  0.00    +0.054 C 
ATOM     18  C   UNL     1      33.206 -20.311 -20.276  0.00  0.00    +0.035 C 
ATOM     19  C   UNL     1      35.597 -20.572 -20.255  0.00  0.00    +0.035 C 
ATOM     20  C   UNL     1      33.144 -21.302 -19.309  0.00  0.00    +0.100 C 
ATOM     21  C   UNL     1      35.427 -21.550 -19.289  0.00  0.00    +0.100 C 
ENDBRANCH  13  17
ENDBRANCH  11  14
ENDBRANCH   4  11
BRANCH   1  22
ATOM     22  C   UNL     1      33.215 -12.775 -24.833  0.00  0.00    +0.122 C 
BRANCH  22  24
ATOM     23 CL   UNL     1      35.596  -7.490 -23.278  0.00  0.00    -0.082 Cl
ATOM     24  C   UNL     1      33.812 -11.450 -24.442  0.00  0.00    -0.002 C 
ATOM     25  C   UNL     1      33.151 -10.646 -23.523  0.00  0.00    -0.002 C 
ATOM     26  C   UNL     1      35.015 -11.050 -25.007  0.00  0.00    -0.002 C 
ATOM     27  C   UNL     1      33.705  -9.418 -23.162  0.00  0.00    +0.011 C 
ATOM     28  C   UNL     1      35.568  -9.821 -24.646  0.00  0.00    +0.011 C 
ATOM     29  C   UNL     1      34.914  -9.006 -23.723  0.00  0.00    +0.058 C 
ENDBRANCH  22  24
ENDBRANCH   1  22
TORSDOF 5
ENDMDL
MODEL 7
REMARK VINA RESULT:     -10.3      3.012      5.441
REMARK  Name = 2929
REMARK  5 active torsions:
REMARK  status: ('A' for Active; 'I' for Inactive)
REMARK    1  A    between atoms: N_1  and  C_22
REMARK    2  A    between atoms: C_4  and  C_11
REMARK    3  A    between atoms: C_11  and  C_14
REMARK    4  A    between atoms: N_13  and  C_17
REMARK    5  A    between atoms: C_22  and  C_24
REMARK                            x       y       z     vdW  Elec       q    Type
REMARK                         _______ _______ _______ _____ _____    ______ ____
ROOT
ATOM      1  N   UNL     1      32.841 -23.756 -15.359  0.00  0.00    -0.281 N 
ATOM      2  C   UNL     1      34.159 -23.451 -15.103  0.00  0.00    +0.052 C 
ATOM      3  C   UNL     1      34.749 -23.119 -16.323  0.00  0.00    +0.018 C 
ATOM      4  C   UNL     1      33.741 -23.235 -17.320  0.00  0.00    +0.060 C 
ATOM      5  C   UNL     1      32.578 -23.628 -16.696  0.00  0.00    +0.069 C 
ATOM      6  C   UNL     1      34.864 -23.444 -13.894  0.00  0.00    +0.015 C 
ATOM      7  C   UNL     1      36.112 -22.763 -16.342  0.00  0.00    +0.001 C 
ATOM      8  C   UNL     1      36.215 -23.088 -13.937  0.00  0.00    +0.001 C 
ATOM      9  C   UNL     1      36.831 -22.751 -15.141  0.00  0.00    +0.000 C 
ENDROOT
BRANCH   4  11
ATOM     10  O   UNL     1      33.921 -23.886 -19.597  0.00  0.00    -0.282 OA
ATOM     11  C   UNL     1      33.857 -22.997 -18.731  0.00  0.00    +0.250 C 
BRANCH  11  14
ATOM     12  O   UNL     1      32.947 -20.895 -19.178  0.00  0.00    -0.266 OA
ATOM     13  N   UNL     1      35.142 -21.372 -19.931  0.00  0.00    -0.278 N 
ATOM     14  C   UNL     1      33.929 -21.603 -19.316  0.00  0.00    +0.289 C 
ATOM     15  H   UNL     1      35.791 -22.112 -19.916  0.00  0.00    +0.155 HD
BRANCH  13  17
ATOM     16  N   UNL     1      36.360 -17.851 -21.849  0.00  0.00    -0.242 NA
ATOM     17  C   UNL     1      35.553 -20.185 -20.579  0.00  0.00    +0.054 C 
ATOM     18  C   UNL     1      34.645 -19.477 -21.341  0.00  0.00    +0.035 C 
ATOM     19  C   UNL     1      36.856 -19.751 -20.438  0.00  0.00    +0.035 C 
ATOM     20  C   UNL     1      35.097 -18.320 -21.954  0.00  0.00    +0.100 C 
ATOM     21  C   UNL     1      37.210 -18.582 -21.092  0.00  0.00    +0.100 C 
ENDBRANCH  13  17
ENDBRANCH  11  14
ENDBRANCH   4  11
BRANCH   1  22
ATOM     22  C   UNL     1      31.861 -24.156 -14.371  0.00  0.00    +0.122 C 
BRANCH  22  24
ATOM     23 CL   UNL     1      26.351 -22.315 -15.879  0.00  0.00    -0.082 Cl
ATOM     24  C   UNL     1      30.479 -23.694 -14.750  0.00  0.00    -0.002 C 
ATOM     25  C   UNL     1      30.057 -22.425 -14.379  0.00  0.00    -0.002 C 
ATOM     26  C   UNL     1      29.647 -24.544 -15.465  0.00  0.00    -0.002 C 
ATOM     27  C   UNL     1      28.777 -21.997 -14.730  0.00  0.00    +0.011 C 
ATOM     28  C   UNL     1      28.366 -24.117 -15.814  0.00  0.00    +0.011 C 
ATOM     29  C   UNL     1      27.931 -22.843 -15.448  0.00  0.00    +0.058 C 
ENDBRANCH  22  24
ENDBRANCH   1  22
TORSDOF 5
ENDMDL
MODEL 8
REMARK VINA RESULT:     -10.2      2.931      5.422
REMARK  Name = 2929
REMARK  5 active torsions:
REMARK  status: ('A' for Active; 'I' for Inactive)
REMARK    1  A    between atoms: N_1  and  C_22
REMARK    2  A    between atoms: C_4  and  C_11
REMARK    3  A    between atoms: C_11  and  C_14
REMARK    4  A    between atoms: N_13  and  C_17
REMARK    5  A    between atoms: C_22  and  C_24
REMARK                            x       y       z     vdW  Elec       q    Type
REMARK                         _______ _______ _______ _____ _____    ______ ____
ROOT
ATOM      1  N   UNL     1      35.295 -23.674 -13.329  0.00  0.00    -0.281 N 
ATOM      2  C   UNL     1      36.301 -24.568 -13.038  0.00  0.00    +0.052 C 
ATOM      3  C   UNL     1      37.309 -24.376 -13.985  0.00  0.00    +0.018 C 
ATOM      4  C   UNL     1      36.874 -23.336 -14.852  0.00  0.00    +0.060 C 
ATOM      5  C   UNL     1      35.632 -22.924 -14.424  0.00  0.00    +0.069 C 
ATOM      6  C   UNL     1      36.392 -25.523 -12.019  0.00  0.00    +0.015 C 
ATOM      7  C   UNL     1      38.466 -25.175 -13.913  0.00  0.00    +0.001 C 
ATOM      8  C   UNL     1      37.550 -26.304 -11.968  0.00  0.00    +0.001 C 
ATOM      9  C   UNL     1      38.573 -26.134 -12.899  0.00  0.00    +0.000 C 
ENDROOT
BRANCH   4  11
ATOM     10  O   UNL     1      38.719 -23.075 -16.325  0.00  0.00    -0.282 OA
ATOM     11  C   UNL     1      37.562 -22.778 -15.982  0.00  0.00    +0.250 C 
BRANCH  11  14
ATOM     12  O   UNL     1      37.248 -20.576 -16.687  0.00  0.00    -0.266 OA
ATOM     13  N   UNL     1      36.080 -22.309 -17.802  0.00  0.00    -0.278 N 
ATOM     14  C   UNL     1      36.934 -21.737 -16.884  0.00  0.00    +0.289 C 
ATOM     15  H   UNL     1      35.985 -23.289 -17.765  0.00  0.00    +0.155 HD
BRANCH  13  17
ATOM     16  N   UNL     1      33.850 -20.324 -20.742  0.00  0.00    -0.242 NA
ATOM     17  C   UNL     1      35.328 -21.640 -18.795  0.00  0.00    +0.054 C 
ATOM     18  C   UNL     1      33.950 -21.723 -18.773  0.00  0.00    +0.035 C 
ATOM     19  C   UNL     1      35.984 -20.914 -19.769  0.00  0.00    +0.035 C 
ATOM     20  C   UNL     1      33.258 -21.048 -19.767  0.00  0.00    +0.100 C 
ATOM     21  C   UNL     1      35.202 -20.276 -20.718  0.00  0.00    +0.100 C 
ENDBRANCH  13  17
ENDBRANCH  11  14
ENDBRANCH   4  11
BRANCH   1  22
ATOM     22  C   UNL     1      34.055 -23.532 -12.595  0.00  0.00    +0.122 C 
BRANCH  22  24
ATOM     23 CL   UNL     1      29.306 -24.706 -16.071  0.00  0.00    -0.082 Cl
ATOM     24  C   UNL     1      32.865 -23.827 -13.467  0.00  0.00    -0.002 C 
ATOM     25  C   UNL     1      32.425 -22.868 -14.370  0.00  0.00    -0.002 C 
ATOM     26  C   UNL     1      32.223 -25.052 -13.356  0.00  0.00    -0.002 C 
ATOM     27  C   UNL     1      31.321 -23.142 -15.178  0.00  0.00    +0.011 C 
ATOM     28  C   UNL     1      31.118 -25.325 -14.163  0.00  0.00    +0.011 C 
ATOM     29  C   UNL     1      30.668 -24.370 -15.075  0.00  0.00    +0.058 C 
ENDBRANCH  22  24
ENDBRANCH   1  22
TORSDOF 5
ENDMDL
MODEL 9
REMARK VINA RESULT:     -10.1      6.218      9.966
REMARK  Name = 2929
REMARK  5 active torsions:
REMARK  status: ('A' for Active; 'I' for Inactive)
REMARK    1  A    between atoms: N_1  and  C_22
REMARK    2  A    between atoms: C_4  and  C_11
REMARK    3  A    between atoms: C_11  and  C_14
REMARK    4  A    between atoms: N_13  and  C_17
REMARK    5  A    between atoms: C_22  and  C_24
REMARK                            x       y       z     vdW  Elec       q    Type
REMARK                         _______ _______ _______ _____ _____    ______ ____
ROOT
ATOM      1  N   UNL     1      35.460 -16.820 -22.816  0.00  0.00    -0.281 N 
ATOM      2  C   UNL     1      34.700 -16.094 -21.927  0.00  0.00    +0.052 C 
ATOM      3  C   UNL     1      33.909 -15.222 -22.678  0.00  0.00    +0.018 C 
ATOM      4  C   UNL     1      34.222 -15.450 -24.047  0.00  0.00    +0.060 C 
ATOM      5  C   UNL     1      35.178 -16.438 -24.100  0.00  0.00    +0.069 C 
ATOM      6  C   UNL     1      34.653 -16.144 -20.530  0.00  0.00    +0.015 C 
ATOM      7  C   UNL     1      33.028 -14.355 -22.003  0.00  0.00    +0.001 C 
ATOM      8  C   UNL     1      33.771 -15.274 -19.881  0.00  0.00    +0.001 C 
ATOM      9  C   UNL     1      32.969 -14.393 -20.605  0.00  0.00    +0.000 C 
ENDROOT
BRANCH   4  11
ATOM     10  O   UNL     1      33.184 -15.387 -26.183  0.00  0.00    -0.282 OA
ATOM     11  C   UNL     1      33.671 -14.799 -25.202  0.00  0.00    +0.250 C 
BRANCH  11  14
ATOM     12  O   UNL     1      33.268 -12.851 -26.422  0.00  0.00    -0.266 OA
ATOM     13  N   UNL     1      34.052 -12.662 -24.194  0.00  0.00    -0.278 N 
ATOM     14  C   UNL     1      33.638 -13.293 -25.348  0.00  0.00    +0.289 C 
ATOM     15  H   UNL     1      34.308 -13.243 -23.442  0.00  0.00    +0.155 HD
BRANCH  13  17
ATOM     16  N   UNL     1      34.328  -8.532 -23.540  0.00  0.00    -0.242 NA
ATOM     17  C   UNL     1      34.144 -11.268 -23.974  0.00  0.00    +0.054 C 
ATOM     18  C   UNL     1      33.165 -10.630 -23.240  0.00  0.00    +0.035 C 
ATOM     19  C   UNL     1      35.214 -10.568 -24.497  0.00  0.00    +0.035 C 
ATOM     20  C   UNL     1      33.302  -9.264 -23.052  0.00  0.00    +0.100 C 
ATOM     21  C   UNL     1      35.260  -9.205 -24.253  0.00  0.00    +0.100 C 
ENDBRANCH  13  17
ENDBRANCH  11  14
ENDBRANCH   4  11
BRANCH   1  22
ATOM     22  C   UNL     1      36.423 -17.842 -22.463  0.00  0.00    +0.122 C 
BRANCH  22  24
ATOM     23 CL   UNL     1      33.944 -22.087 -19.021  0.00  0.00    -0.082 Cl
ATOM     24  C   UNL     1      35.801 -18.907 -21.600  0.00  0.00    -0.002 C 
ATOM     25  C   UNL     1      34.448 -19.187 -21.728  0.00  0.00    -0.002 C 
ATOM     26  C   UNL     1      36.590 -19.595 -20.689  0.00  0.00    -0.002 C 
ATOM     27  C   UNL     1      33.872 -20.174 -20.928  0.00  0.00    +0.011 C 
ATOM     28  C   UNL     1      36.014 -20.581 -19.888  0.00  0.00    +0.011 C 
ATOM     29  C   UNL     1      34.655 -20.871 -20.008  0.00  0.00    +0.058 C 
ENDBRANCH  22  24
ENDBRANCH   1  22
TORSDOF 5
ENDMDL
