MODEL 1
REMARK VINA RESULT:     -11.4      0.000      0.000
REMARK  Name = 448942
REMARK  8 active torsions:
REMARK  status: ('A' for Active; 'I' for Inactive)
REMARK    1  A    between atoms: C_2  and  C_20
REMARK    2  A    between atoms: C_3  and  C_6
REMARK    3  A    between atoms: C_7  and  C_13
REMARK    4  A    between atoms: N_19  and  C_22
REMARK    5  A    between atoms: C_22  and  C_23
REMARK    6  A    between atoms: C_22  and  C_29
REMARK    7  A    between atoms: C_29  and  C_31
REMARK    8  A    between atoms: C_31  and  O_32
REMARK                            x       y       z     vdW  Elec       q    Type
REMARK                         _______ _______ _______ _____ _____    ______ ____
ROOT
ATOM      1  S   UNL     1      36.884 -21.257 -19.513  0.00  0.00    -0.082 S 
ATOM      2  C   UNL     1      35.196 -21.368 -19.452  0.00  0.00    +0.083 C 
ATOM      3  C   UNL     1      35.465 -19.550 -20.807  0.00  0.00    +0.007 C 
ATOM      4  C   UNL     1      34.541 -20.425 -20.164  0.00  0.00    +0.012 C 
ATOM      5  C   UNL     1      36.772 -19.888 -20.537  0.00  0.00    +0.036 C 
ENDROOT
BRANCH   3   6
ATOM      6  C   UNL     1      35.153 -18.427 -21.649  0.00  0.00    +0.001 C 
ATOM      7  C   UNL     1      34.547 -16.251 -23.284  0.00  0.00    +0.000 C 
ATOM      8  C   UNL     1      34.934 -17.172 -21.084  0.00  0.00    +0.000 C 
ATOM      9  C   UNL     1      35.069 -18.596 -23.031  0.00  0.00    +0.000 C 
ATOM     10  C   UNL     1      34.630 -16.083 -21.901  0.00  0.00    +0.000 C 
ATOM     11  C   UNL     1      34.765 -17.507 -23.848  0.00  0.00    +0.000 C 
BRANCH   7  13
ATOM     12  N   UNL     1      33.617 -12.940 -25.766  0.00  0.00    -0.242 NA
ATOM     13  C   UNL     1      34.231 -15.122 -24.130  0.00  0.00    +0.003 C 
ATOM     14  C   UNL     1      34.267 -13.832 -23.615  0.00  0.00    +0.021 C 
ATOM     15  C   UNL     1      33.887 -15.323 -25.463  0.00  0.00    +0.021 C 
ATOM     16  C   UNL     1      33.955 -12.784 -24.466  0.00  0.00    +0.099 C 
ATOM     17  C   UNL     1      33.592 -14.209 -26.232  0.00  0.00    +0.099 C 
ENDBRANCH   7  13
ENDBRANCH   3   6
BRANCH   2  20
ATOM     18  O   UNL     1      33.803 -23.256 -19.123  0.00  0.00    -0.270 OA
ATOM     19  N   UNL     1      34.995 -22.490 -17.315  0.00  0.00    -0.298 N 
ATOM     20  C   UNL     1      34.608 -22.450 -18.651  0.00  0.00    +0.252 C 
ATOM     21  H   UNL     1      35.640 -21.824 -16.985  0.00  0.00    +0.150 HD
BRANCH  19  22
ATOM     22  C   UNL     1      34.477 -23.479 -16.394  0.00  0.00    +0.105 C 
BRANCH  22  23
ATOM     23  C   UNL     1      35.604 -24.055 -15.559  0.00  0.00    -0.004 C 
ATOM     24  C   UNL     1      35.431 -25.287 -14.955  0.00  0.00    -0.003 C 
ATOM     25  C   UNL     1      36.776 -23.335 -15.422  0.00  0.00    -0.003 C 
ATOM     26  C   UNL     1      36.467 -25.817 -14.187  0.00  0.00    -0.000 C 
ATOM     27  C   UNL     1      37.812 -23.865 -14.654  0.00  0.00    -0.000 C 
ATOM     28  C   UNL     1      37.657 -25.106 -14.035  0.00  0.00    -0.000 C 
ENDBRANCH  22  23
BRANCH  22  29
ATOM     29  C   UNL     1      33.335 -22.879 -15.556  0.00  0.00    +0.133 C 
BRANCH  29  31
ATOM     30  O   UNL     1      31.196 -24.048 -15.642  0.00  0.00    -0.250 OA
ATOM     31  C   UNL     1      31.958 -23.206 -16.096  0.00  0.00    +0.316 C 
BRANCH  31  32
ATOM     32  O   UNL     1      31.664 -22.456 -17.192  0.00  0.00    -0.480 OA
ATOM     33  H   UNL     1      32.318 -21.904 -17.571  0.00  0.00    +0.295 HD
ENDBRANCH  31  32
ENDBRANCH  29  31
ENDBRANCH  22  29
ENDBRANCH  19  22
ENDBRANCH   2  20
TORSDOF 8
ENDMDL
MODEL 2
REMARK VINA RESULT:     -10.0      6.420     13.353
REMARK  Name = 448942
REMARK  8 active torsions:
REMARK  status: ('A' for Active; 'I' for Inactive)
REMARK    1  A    between atoms: C_2  and  C_20
REMARK    2  A    between atoms: C_3  and  C_6
REMARK    3  A    between atoms: C_7  and  C_13
REMARK    4  A    between atoms: N_19  and  C_22
REMARK    5  A    between atoms: C_22  and  C_23
REMARK    6  A    between atoms: C_22  and  C_29
REMARK    7  A    between atoms: C_29  and  C_31
REMARK    8  A    between atoms: C_31  and  O_32
REMARK                            x       y       z     vdW  Elec       q    Type
REMARK                         _______ _______ _______ _____ _____    ______ ____
ROOT
ATOM      1  S   UNL     1      33.850 -11.411 -24.957  0.00  0.00    -0.082 S 
ATOM      2  C   UNL     1      33.533 -11.093 -23.324  0.00  0.00    +0.083 C 
ATOM      3  C   UNL     1      34.155 -13.288 -23.228  0.00  0.00    +0.007 C 
ATOM      4  C   UNL     1      33.722 -12.144 -22.497  0.00  0.00    +0.012 C 
ATOM      5  C   UNL     1      34.265 -13.029 -24.575  0.00  0.00    +0.036 C 
ENDROOT
BRANCH   3   6
ATOM      6  C   UNL     1      34.458 -14.591 -22.700  0.00  0.00    +0.001 C 
ATOM      7  C   UNL     1      35.048 -17.117 -21.677  0.00  0.00    +0.000 C 
ATOM      8  C   UNL     1      34.340 -14.832 -21.332  0.00  0.00    +0.000 C 
ATOM      9  C   UNL     1      34.871 -15.610 -23.558  0.00  0.00    +0.000 C 
ATOM     10  C   UNL     1      34.635 -16.096 -20.820  0.00  0.00    +0.000 C 
ATOM     11  C   UNL     1      35.167 -16.873 -23.045  0.00  0.00    +0.000 C 
BRANCH   7  13
ATOM     12  N   UNL     1      35.952 -20.958 -20.122  0.00  0.00    -0.242 NA
ATOM     13  C   UNL     1      35.356 -18.426 -21.146  0.00  0.00    +0.003 C 
ATOM     14  C   UNL     1      36.676 -18.789 -20.907  0.00  0.00    +0.021 C 
ATOM     15  C   UNL     1      34.333 -19.328 -20.874  0.00  0.00    +0.021 C 
ATOM     16  C   UNL     1      36.920 -20.055 -20.398  0.00  0.00    +0.099 C 
ATOM     17  C   UNL     1      34.680 -20.570 -20.368  0.00  0.00    +0.099 C 
ENDBRANCH   7  13
ENDBRANCH   3   6
BRANCH   2  20
ATOM     18  O   UNL     1      31.910  -9.395 -23.015  0.00  0.00    -0.270 OA
ATOM     19  N   UNL     1      34.101  -8.858 -22.585  0.00  0.00    -0.298 N 
ATOM     20  C   UNL     1      33.092  -9.739 -22.963  0.00  0.00    +0.252 C 
ATOM     21  H   UNL     1      35.031  -9.180 -22.559  0.00  0.00    +0.150 HD
BRANCH  19  22
ATOM     22  C   UNL     1      33.827  -7.482 -22.231  0.00  0.00    +0.105 C 
BRANCH  22  23
ATOM     23  C   UNL     1      33.858  -6.608 -23.470  0.00  0.00    -0.004 C 
ATOM     24  C   UNL     1      32.740  -5.860 -23.792  0.00  0.00    -0.003 C 
ATOM     25  C   UNL     1      35.001  -6.580 -24.245  0.00  0.00    -0.003 C 
ATOM     26  C   UNL     1      32.768  -5.056 -24.932  0.00  0.00    -0.000 C 
ATOM     27  C   UNL     1      35.029  -5.777 -25.385  0.00  0.00    -0.000 C 
ATOM     28  C   UNL     1      33.912  -5.016 -25.729  0.00  0.00    -0.000 C 
ENDBRANCH  22  23
BRANCH  22  29
ATOM     29  C   UNL     1      32.508  -7.388 -21.444  0.00  0.00    +0.133 C 
BRANCH  29  31
ATOM     30  O   UNL     1      32.159  -8.740 -19.444  0.00  0.00    -0.250 OA
ATOM     31  C   UNL     1      32.653  -7.759 -19.983  0.00  0.00    +0.316 C 
BRANCH  31  32
ATOM     32  O   UNL     1      33.396  -6.842 -19.308  0.00  0.00    -0.480 OA
ATOM     33  H   UNL     1      33.331  -6.781 -18.377  0.00  0.00    +0.295 HD
ENDBRANCH  31  32
ENDBRANCH  29  31
ENDBRANCH  22  29
ENDBRANCH  19  22
ENDBRANCH   2  20
TORSDOF 8
ENDMDL
MODEL 3
REMARK VINA RESULT:      -9.9      7.627     13.959
REMARK  Name = 448942
REMARK  8 active torsions:
REMARK  status: ('A' for Active; 'I' for Inactive)
REMARK    1  A    between atoms: C_2  and  C_20
REMARK    2  A    between atoms: C_3  and  C_6
REMARK    3  A    between atoms: C_7  and  C_13
REMARK    4  A    between atoms: N_19  and  C_22
REMARK    5  A    between atoms: C_22  and  C_23
REMARK    6  A    between atoms: C_22  and  C_29
REMARK    7  A    between atoms: C_29  and  C_31
REMARK    8  A    between atoms: C_31  and  O_32
REMARK                            x       y       z     vdW  Elec       q    Type
REMARK                         _______ _______ _______ _____ _____    ______ ____
ROOT
ATOM      1  S   UNL     1      30.802 -10.357 -19.410  0.00  0.00    -0.082 S 
ATOM      2  C   UNL     1      31.938  -9.737 -20.502  0.00  0.00    +0.083 C 
ATOM      3  C   UNL     1      32.381 -11.974 -20.633  0.00  0.00    +0.007 C 
ATOM      4  C   UNL     1      32.720 -10.668 -21.092  0.00  0.00    +0.012 C 
ATOM      5  C   UNL     1      31.355 -11.949 -19.715  0.00  0.00    +0.036 C 
ENDROOT
BRANCH   3   6
ATOM      6  C   UNL     1      32.988 -13.216 -21.028  0.00  0.00    +0.001 C 
ATOM      7  C   UNL     1      34.166 -15.624 -21.795  0.00  0.00    +0.000 C 
ATOM      8  C   UNL     1      33.006 -14.294 -20.144  0.00  0.00    +0.000 C 
ATOM      9  C   UNL     1      33.558 -13.340 -22.295  0.00  0.00    +0.000 C 
ATOM     10  C   UNL     1      33.596 -15.499 -20.527  0.00  0.00    +0.000 C 
ATOM     11  C   UNL     1      34.147 -14.545 -22.678  0.00  0.00    +0.000 C 
BRANCH   7  13
ATOM     12  N   UNL     1      35.964 -19.285 -22.957  0.00  0.00    -0.242 NA
ATOM     13  C   UNL     1      34.778 -16.873 -22.191  0.00  0.00    +0.003 C 
ATOM     14  C   UNL     1      35.365 -17.695 -21.237  0.00  0.00    +0.021 C 
ATOM     15  C   UNL     1      34.783 -17.255 -23.529  0.00  0.00    +0.021 C 
ATOM     16  C   UNL     1      35.939 -18.881 -21.667  0.00  0.00    +0.099 C 
ATOM     17  C   UNL     1      35.384 -18.459 -23.856  0.00  0.00    +0.099 C 
ENDBRANCH   7  13
ENDBRANCH   3   6
BRANCH   2  20
ATOM     18  O   UNL     1      31.741  -7.485 -19.797  0.00  0.00    -0.270 OA
ATOM     19  N   UNL     1      32.249  -7.863 -22.005  0.00  0.00    -0.298 N 
ATOM     20  C   UNL     1      31.971  -8.283 -20.707  0.00  0.00    +0.252 C 
ATOM     21  H   UNL     1      32.426  -8.540 -22.697  0.00  0.00    +0.150 HD
BRANCH  19  22
ATOM     22  C   UNL     1      32.285  -6.463 -22.368  0.00  0.00    +0.105 C 
BRANCH  22  23
ATOM     23  C   UNL     1      33.325  -6.231 -23.447  0.00  0.00    -0.004 C 
ATOM     24  C   UNL     1      33.011  -5.415 -24.518  0.00  0.00    -0.003 C 
ATOM     25  C   UNL     1      34.560  -6.841 -23.334  0.00  0.00    -0.003 C 
ATOM     26  C   UNL     1      33.966  -5.201 -25.512  0.00  0.00    -0.000 C 
ATOM     27  C   UNL     1      35.516  -6.628 -24.327  0.00  0.00    -0.000 C 
ATOM     28  C   UNL     1      35.218  -5.809 -25.417  0.00  0.00    -0.000 C 
ENDBRANCH  22  23
BRANCH  22  29
ATOM     29  C   UNL     1      30.877  -5.977 -22.754  0.00  0.00    +0.133 C 
BRANCH  29  31
ATOM     30  O   UNL     1      30.085  -3.692 -22.443  0.00  0.00    -0.250 OA
ATOM     31  C   UNL     1      30.423  -4.767 -21.966  0.00  0.00    +0.316 C 
BRANCH  31  32
ATOM     32  O   UNL     1      30.458  -5.003 -20.628  0.00  0.00    -0.480 OA
ATOM     33  H   UNL     1      31.280  -5.114 -20.194  0.00  0.00    +0.295 HD
ENDBRANCH  31  32
ENDBRANCH  29  31
ENDBRANCH  22  29
ENDBRANCH  19  22
ENDBRANCH   2  20
TORSDOF 8
ENDMDL
MODEL 4
REMARK VINA RESULT:      -9.9      7.619     13.980
REMARK  Name = 448942
REMARK  8 active torsions:
REMARK  status: ('A' for Active; 'I' for Inactive)
REMARK    1  A    between atoms: C_2  and  C_20
REMARK    2  A    between atoms: C_3  and  C_6
REMARK    3  A    between atoms: C_7  and  C_13
REMARK    4  A    between atoms: N_19  and  C_22
REMARK    5  A    between atoms: C_22  and  C_23
REMARK    6  A    between atoms: C_22  and  C_29
REMARK    7  A    between atoms: C_29  and  C_31
REMARK    8  A    between atoms: C_31  and  O_32
REMARK                            x       y       z     vdW  Elec       q    Type
REMARK                         _______ _______ _______ _____ _____    ______ ____
ROOT
ATOM      1  S   UNL     1      30.794 -10.371 -19.437  0.00  0.00    -0.082 S 
ATOM      2  C   UNL     1      31.939  -9.747 -20.516  0.00  0.00    +0.083 C 
ATOM      3  C   UNL     1      32.392 -11.981 -20.644  0.00  0.00    +0.007 C 
ATOM      4  C   UNL     1      32.731 -10.674 -21.099  0.00  0.00    +0.012 C 
ATOM      5  C   UNL     1      31.357 -11.961 -19.737  0.00  0.00    +0.036 C 
ENDROOT
BRANCH   3   6
ATOM      6  C   UNL     1      33.008 -13.221 -21.033  0.00  0.00    +0.001 C 
ATOM      7  C   UNL     1      34.200 -15.627 -21.787  0.00  0.00    +0.000 C 
ATOM      8  C   UNL     1      33.609 -13.337 -22.285  0.00  0.00    +0.000 C 
ATOM      9  C   UNL     1      33.001 -14.306 -20.156  0.00  0.00    +0.000 C 
ATOM     10  C   UNL     1      34.205 -14.540 -22.663  0.00  0.00    +0.000 C 
ATOM     11  C   UNL     1      33.598 -15.509 -20.534  0.00  0.00    +0.000 C 
BRANCH   7  13
ATOM     12  N   UNL     1      36.006 -19.287 -22.937  0.00  0.00    -0.242 NA
ATOM     13  C   UNL     1      34.816 -16.874 -22.179  0.00  0.00    +0.003 C 
ATOM     14  C   UNL     1      34.821 -17.261 -23.514  0.00  0.00    +0.021 C 
ATOM     15  C   UNL     1      35.406 -17.694 -21.222  0.00  0.00    +0.021 C 
ATOM     16  C   UNL     1      35.423 -18.465 -23.839  0.00  0.00    +0.099 C 
ATOM     17  C   UNL     1      35.982 -18.879 -21.649  0.00  0.00    +0.099 C 
ENDBRANCH   7  13
ENDBRANCH   3   6
BRANCH   2  20
ATOM     18  O   UNL     1      31.737  -7.495 -19.808  0.00  0.00    -0.270 OA
ATOM     19  N   UNL     1      32.247  -7.870 -22.016  0.00  0.00    -0.298 N 
ATOM     20  C   UNL     1      31.969  -8.292 -20.719  0.00  0.00    +0.252 C 
ATOM     21  H   UNL     1      32.426  -8.546 -22.709  0.00  0.00    +0.150 HD
BRANCH  19  22
ATOM     22  C   UNL     1      32.281  -6.470 -22.378  0.00  0.00    +0.105 C 
BRANCH  22  23
ATOM     23  C   UNL     1      33.319  -6.235 -23.458  0.00  0.00    -0.004 C 
ATOM     24  C   UNL     1      34.559  -6.835 -23.339  0.00  0.00    -0.003 C 
ATOM     25  C   UNL     1      33.001  -5.426 -24.533  0.00  0.00    -0.003 C 
ATOM     26  C   UNL     1      35.515  -6.619 -24.332  0.00  0.00    -0.000 C 
ATOM     27  C   UNL     1      33.957  -5.209 -25.525  0.00  0.00    -0.000 C 
ATOM     28  C   UNL     1      35.214  -5.805 -25.424  0.00  0.00    -0.000 C 
ENDBRANCH  22  23
BRANCH  22  29
ATOM     29  C   UNL     1      30.872  -5.986 -22.763  0.00  0.00    +0.133 C 
BRANCH  29  31
ATOM     30  O   UNL     1      30.063  -3.710 -22.430  0.00  0.00    -0.250 OA
ATOM     31  C   UNL     1      30.410  -4.786 -21.964  0.00  0.00    +0.316 C 
BRANCH  31  32
ATOM     32  O   UNL     1      30.449  -5.034 -20.628  0.00  0.00    -0.480 OA
ATOM     33  H   UNL     1      31.272  -5.132 -20.194  0.00  0.00    +0.295 HD
ENDBRANCH  31  32
ENDBRANCH  29  31
ENDBRANCH  22  29
ENDBRANCH  19  22
ENDBRANCH   2  20
TORSDOF 8
ENDMDL
MODEL 5
REMARK VINA RESULT:      -9.7      3.382     10.909
REMARK  Name = 448942
REMARK  8 active torsions:
REMARK  status: ('A' for Active; 'I' for Inactive)
REMARK    1  A    between atoms: C_2  and  C_20
REMARK    2  A    between atoms: C_3  and  C_6
REMARK    3  A    between atoms: C_7  and  C_13
REMARK    4  A    between atoms: N_19  and  C_22
REMARK    5  A    between atoms: C_22  and  C_23
REMARK    6  A    between atoms: C_22  and  C_29
REMARK    7  A    between atoms: C_29  and  C_31
REMARK    8  A    between atoms: C_31  and  O_32
REMARK                            x       y       z     vdW  Elec       q    Type
REMARK                         _______ _______ _______ _____ _____    ______ ____
ROOT
ATOM      1  S   UNL     1      34.962 -19.033 -23.594  0.00  0.00    -0.082 S 
ATOM      2  C   UNL     1      35.109 -17.861 -22.381  0.00  0.00    +0.083 C 
ATOM      3  C   UNL     1      34.805 -19.748 -21.131  0.00  0.00    +0.007 C 
ATOM      4  C   UNL     1      35.013 -18.338 -21.120  0.00  0.00    +0.012 C 
ATOM      5  C   UNL     1      34.756 -20.253 -22.410  0.00  0.00    +0.036 C 
ENDROOT
BRANCH   3   6
ATOM      6  C   UNL     1      34.653 -20.610 -19.990  0.00  0.00    +0.001 C 
ATOM      7  C   UNL     1      34.360 -22.281 -17.778  0.00  0.00    +0.000 C 
ATOM      8  C   UNL     1      33.379 -20.958 -19.545  0.00  0.00    +0.000 C 
ATOM      9  C   UNL     1      35.782 -21.096 -19.331  0.00  0.00    +0.000 C 
ATOM     10  C   UNL     1      33.232 -21.794 -18.438  0.00  0.00    +0.000 C 
ATOM     11  C   UNL     1      35.635 -21.932 -18.224  0.00  0.00    +0.000 C 
BRANCH   7  13
ATOM     12  N   UNL     1      33.913 -24.817 -14.407  0.00  0.00    -0.242 NA
ATOM     13  C   UNL     1      34.208 -23.147 -16.629  0.00  0.00    +0.003 C 
ATOM     14  C   UNL     1      32.941 -23.430 -16.133  0.00  0.00    +0.021 C 
ATOM     15  C   UNL     1      35.328 -23.698 -16.016  0.00  0.00    +0.021 C 
ATOM     16  C   UNL     1      32.847 -24.264 -15.030  0.00  0.00    +0.099 C 
ATOM     17  C   UNL     1      35.128 -24.519 -14.918  0.00  0.00    +0.099 C 
ENDBRANCH   7  13
ENDBRANCH   3   6
BRANCH   2  20
ATOM     18  O   UNL     1      36.217 -16.146 -23.582  0.00  0.00    -0.270 OA
ATOM     19  N   UNL     1      34.475 -15.529 -22.217  0.00  0.00    -0.298 N 
ATOM     20  C   UNL     1      35.325 -16.468 -22.795  0.00  0.00    +0.252 C 
ATOM     21  H   UNL     1      33.778 -15.837 -21.594  0.00  0.00    +0.150 HD
BRANCH  19  22
ATOM     22  C   UNL     1      34.585 -14.115 -22.503  0.00  0.00    +0.105 C 
BRANCH  22  23
ATOM     23  C   UNL     1      34.053 -13.821 -23.892  0.00  0.00    -0.004 C 
ATOM     24  C   UNL     1      34.136 -12.531 -24.384  0.00  0.00    -0.003 C 
ATOM     25  C   UNL     1      33.498 -14.848 -24.632  0.00  0.00    -0.003 C 
ATOM     26  C   UNL     1      33.647 -12.260 -25.662  0.00  0.00    -0.000 C 
ATOM     27  C   UNL     1      33.008 -14.577 -25.909  0.00  0.00    -0.000 C 
ATOM     28  C   UNL     1      33.082 -13.282 -26.424  0.00  0.00    -0.000 C 
ENDBRANCH  22  23
BRANCH  22  29
ATOM     29  C   UNL     1      33.902 -13.294 -21.395  0.00  0.00    +0.133 C 
BRANCH  29  31
ATOM     30  O   UNL     1      32.273 -14.820 -20.412  0.00  0.00    -0.250 OA
ATOM     31  C   UNL     1      32.519 -13.799 -21.040  0.00  0.00    +0.316 C 
BRANCH  31  32
ATOM     32  O   UNL     1      31.550 -12.983 -21.533  0.00  0.00    -0.480 OA
ATOM     33  H   UNL     1      31.731 -12.076 -21.677  0.00  0.00    +0.295 HD
ENDBRANCH  31  32
ENDBRANCH  29  31
ENDBRANCH  22  29
ENDBRANCH  19  22
ENDBRANCH   2  20
TORSDOF 8
ENDMDL
MODEL 6
REMARK VINA RESULT:      -9.6      7.565     12.107
REMARK  Name = 448942
REMARK  8 active torsions:
REMARK  status: ('A' for Active; 'I' for Inactive)
REMARK    1  A    between atoms: C_2  and  C_20
REMARK    2  A    between atoms: C_3  and  C_6
REMARK    3  A    between atoms: C_7  and  C_13
REMARK    4  A    between atoms: N_19  and  C_22
REMARK    5  A    between atoms: C_22  and  C_23
REMARK    6  A    between atoms: C_22  and  C_29
REMARK    7  A    between atoms: C_29  and  C_31
REMARK    8  A    between atoms: C_31  and  O_32
REMARK                            x       y       z     vdW  Elec       q    Type
REMARK                         _______ _______ _______ _____ _____    ______ ____
ROOT
ATOM      1  S   UNL     1      31.993  -8.927 -20.615  0.00  0.00    -0.082 S 
ATOM      2  C   UNL     1      32.429  -9.949 -21.893  0.00  0.00    +0.083 C 
ATOM      3  C   UNL     1      32.900  -7.902 -22.790  0.00  0.00    +0.007 C 
ATOM      4  C   UNL     1      32.894  -9.313 -22.991  0.00  0.00    +0.012 C 
ATOM      5  C   UNL     1      32.434  -7.556 -21.542  0.00  0.00    +0.036 C 
ENDROOT
BRANCH   3   6
ATOM      6  C   UNL     1      33.323  -6.895 -23.725  0.00  0.00    +0.001 C 
ATOM      7  C   UNL     1      34.141  -4.941 -25.538  0.00  0.00    +0.000 C 
ATOM      8  C   UNL     1      34.640  -6.875 -24.178  0.00  0.00    +0.000 C 
ATOM      9  C   UNL     1      32.412  -5.940 -24.177  0.00  0.00    +0.000 C 
ATOM     10  C   UNL     1      35.051  -5.897 -25.084  0.00  0.00    +0.000 C 
ATOM     11  C   UNL     1      32.823  -4.962 -25.083  0.00  0.00    +0.000 C 
BRANCH   7  13
ATOM     12  N   UNL     1      35.392  -1.965 -28.289  0.00  0.00    -0.242 NA
ATOM     13  C   UNL     1      34.567  -3.927 -26.476  0.00  0.00    +0.003 C 
ATOM     14  C   UNL     1      35.798  -4.038 -27.113  0.00  0.00    +0.021 C 
ATOM     15  C   UNL     1      33.748  -2.835 -26.745  0.00  0.00    +0.021 C 
ATOM     16  C   UNL     1      36.161  -3.040 -28.003  0.00  0.00    +0.099 C 
ATOM     17  C   UNL     1      34.203  -1.891 -27.651  0.00  0.00    +0.099 C 
ENDBRANCH   7  13
ENDBRANCH   3   6
BRANCH   2  20
ATOM     18  O   UNL     1      31.427 -11.869 -20.934  0.00  0.00    -0.270 OA
ATOM     19  N   UNL     1      33.151 -12.201 -22.415  0.00  0.00    -0.298 N 
ATOM     20  C   UNL     1      32.269 -11.396 -21.700  0.00  0.00    +0.252 C 
ATOM     21  H   UNL     1      33.806 -11.775 -23.014  0.00  0.00    +0.150 HD
BRANCH  19  22
ATOM     22  C   UNL     1      33.136 -13.644 -22.305  0.00  0.00    +0.105 C 
BRANCH  22  23
ATOM     23  C   UNL     1      33.425 -14.273 -23.654  0.00  0.00    -0.004 C 
ATOM     24  C   UNL     1      34.233 -15.393 -23.713  0.00  0.00    -0.003 C 
ATOM     25  C   UNL     1      32.874 -13.711 -24.790  0.00  0.00    -0.003 C 
ATOM     26  C   UNL     1      34.500 -15.972 -24.954  0.00  0.00    -0.000 C 
ATOM     27  C   UNL     1      33.140 -14.289 -26.031  0.00  0.00    -0.000 C 
ATOM     28  C   UNL     1      33.954 -15.419 -26.113  0.00  0.00    -0.000 C 
ENDBRANCH  22  23
BRANCH  22  29
ATOM     29  C   UNL     1      34.097 -14.102 -21.193  0.00  0.00    +0.133 C 
BRANCH  29  31
ATOM     30  O   UNL     1      32.504 -15.183 -19.696  0.00  0.00    -0.250 OA
ATOM     31  C   UNL     1      33.540 -15.226 -20.345  0.00  0.00    +0.316 C 
BRANCH  31  32
ATOM     32  O   UNL     1      34.356 -16.313 -20.364  0.00  0.00    -0.480 OA
ATOM     33  H   UNL     1      35.139 -16.319 -19.851  0.00  0.00    +0.295 HD
ENDBRANCH  31  32
ENDBRANCH  29  31
ENDBRANCH  22  29
ENDBRANCH  19  22
ENDBRANCH   2  20
TORSDOF 8
ENDMDL
MODEL 7
REMARK VINA RESULT:      -9.5      4.455     10.904
REMARK  Name = 448942
REMARK  8 active torsions:
REMARK  status: ('A' for Active; 'I' for Inactive)
REMARK    1  A    between atoms: C_2  and  C_20
REMARK    2  A    between atoms: C_3  and  C_6
REMARK    3  A    between atoms: C_7  and  C_13
REMARK    4  A    between atoms: N_19  and  C_22
REMARK    5  A    between atoms: C_22  and  C_23
REMARK    6  A    between atoms: C_22  and  C_29
REMARK    7  A    between atoms: C_29  and  C_31
REMARK    8  A    between atoms: C_31  and  O_32
REMARK                            x       y       z     vdW  Elec       q    Type
REMARK                         _______ _______ _______ _____ _____    ______ ____
ROOT
ATOM      1  S   UNL     1      34.996 -18.387 -24.461  0.00  0.00    -0.082 S 
ATOM      2  C   UNL     1      34.611 -17.233 -23.283  0.00  0.00    +0.083 C 
ATOM      3  C   UNL     1      35.003 -19.069 -21.983  0.00  0.00    +0.007 C 
ATOM      4  C   UNL     1      34.642 -17.690 -22.012  0.00  0.00    +0.012 C 
ATOM      5  C   UNL     1      35.222 -19.573 -23.245  0.00  0.00    +0.036 C 
ENDROOT
BRANCH   3   6
ATOM      6  C   UNL     1      35.141 -19.905 -20.821  0.00  0.00    +0.001 C 
ATOM      7  C   UNL     1      35.406 -21.526 -18.568  0.00  0.00    +0.000 C 
ATOM      8  C   UNL     1      36.405 -20.159 -20.292  0.00  0.00    +0.000 C 
ATOM      9  C   UNL     1      34.008 -20.460 -20.226  0.00  0.00    +0.000 C 
ATOM     10  C   UNL     1      36.539 -20.970 -19.166  0.00  0.00    +0.000 C 
ATOM     11  C   UNL     1      34.142 -21.271 -19.099  0.00  0.00    +0.000 C 
BRANCH   7  13
ATOM     12  N   UNL     1      35.815 -23.998 -15.146  0.00  0.00    -0.242 NA
ATOM     13  C   UNL     1      35.545 -22.368 -17.401  0.00  0.00    +0.003 C 
ATOM     14  C   UNL     1      36.754 -22.418 -16.717  0.00  0.00    +0.021 C 
ATOM     15  C   UNL     1      34.471 -23.133 -16.960  0.00  0.00    +0.021 C 
ATOM     16  C   UNL     1      36.837 -23.241 -15.605  0.00  0.00    +0.099 C 
ATOM     17  C   UNL     1      34.656 -23.924 -15.838  0.00  0.00    +0.099 C 
ENDBRANCH   7  13
ENDBRANCH   3   6
BRANCH   2  20
ATOM     18  O   UNL     1      34.528 -15.485 -24.880  0.00  0.00    -0.270 OA
ATOM     19  N   UNL     1      33.715 -15.040 -22.778  0.00  0.00    -0.298 N 
ATOM     20  C   UNL     1      34.286 -15.874 -23.735  0.00  0.00    +0.252 C 
ATOM     21  H   UNL     1      33.542 -15.398 -21.877  0.00  0.00    +0.150 HD
BRANCH  19  22
ATOM     22  C   UNL     1      33.369 -13.665 -23.064  0.00  0.00    +0.105 C 
BRANCH  22  23
ATOM     23  C   UNL     1      32.689 -13.037 -21.863  0.00  0.00    -0.004 C 
ATOM     24  C   UNL     1      32.608 -13.756 -20.685  0.00  0.00    -0.003 C 
ATOM     25  C   UNL     1      32.167 -11.762 -21.975  0.00  0.00    -0.003 C 
ATOM     26  C   UNL     1      31.982 -13.179 -19.580  0.00  0.00    -0.000 C 
ATOM     27  C   UNL     1      31.542 -11.185 -20.871  0.00  0.00    -0.000 C 
ATOM     28  C   UNL     1      31.448 -11.894 -19.673  0.00  0.00    -0.000 C 
ENDBRANCH  22  23
BRANCH  22  29
ATOM     29  C   UNL     1      34.610 -12.892 -23.543  0.00  0.00    +0.133 C 
BRANCH  29  31
ATOM     30  O   UNL     1      33.650 -12.309 -25.707  0.00  0.00    -0.250 OA
ATOM     31  C   UNL     1      34.342 -12.010 -24.744  0.00  0.00    +0.316 C 
BRANCH  31  32
ATOM     32  O   UNL     1      34.995 -10.822 -24.643  0.00  0.00    -0.480 OA
ATOM     33  H   UNL     1      35.812 -10.774 -24.188  0.00  0.00    +0.295 HD
ENDBRANCH  31  32
ENDBRANCH  29  31
ENDBRANCH  22  29
ENDBRANCH  19  22
ENDBRANCH   2  20
TORSDOF 8
ENDMDL
MODEL 8
REMARK VINA RESULT:      -9.4      3.620     10.851
REMARK  Name = 448942
REMARK  8 active torsions:
REMARK  status: ('A' for Active; 'I' for Inactive)
REMARK    1  A    between atoms: C_2  and  C_20
REMARK    2  A    between atoms: C_3  and  C_6
REMARK    3  A    between atoms: C_7  and  C_13
REMARK    4  A    between atoms: N_19  and  C_22
REMARK    5  A    between atoms: C_22  and  C_23
REMARK    6  A    between atoms: C_22  and  C_29
REMARK    7  A    between atoms: C_29  and  C_31
REMARK    8  A    between atoms: C_31  and  O_32
REMARK                            x       y       z     vdW  Elec       q    Type
REMARK                         _______ _______ _______ _____ _____    ______ ____
ROOT
ATOM      1  S   UNL     1      37.354 -18.722 -21.884  0.00  0.00    -0.082 S 
ATOM      2  C   UNL     1      35.674 -18.644 -21.688  0.00  0.00    +0.083 C 
ATOM      3  C   UNL     1      36.242 -20.084 -20.009  0.00  0.00    +0.007 C 
ATOM      4  C   UNL     1      35.188 -19.395 -20.676  0.00  0.00    +0.012 C 
ATOM      5  C   UNL     1      37.472 -19.809 -20.564  0.00  0.00    +0.036 C 
ENDROOT
BRANCH   3   6
ATOM      6  C   UNL     1      36.122 -20.976 -18.888  0.00  0.00    +0.001 C 
ATOM      7  C   UNL     1      35.891 -22.704 -16.712  0.00  0.00    +0.000 C 
ATOM      8  C   UNL     1      34.994 -21.783 -18.758  0.00  0.00    +0.000 C 
ATOM      9  C   UNL     1      37.136 -21.031 -17.932  0.00  0.00    +0.000 C 
ATOM     10  C   UNL     1      34.877 -22.647 -17.669  0.00  0.00    +0.000 C 
ATOM     11  C   UNL     1      37.019 -21.896 -16.844  0.00  0.00    +0.000 C 
BRANCH   7  13
ATOM     12  N   UNL     1      35.535 -25.333 -13.403  0.00  0.00    -0.242 NA
ATOM     13  C   UNL     1      35.769 -23.600 -15.583  0.00  0.00    +0.003 C 
ATOM     14  C   UNL     1      36.896 -24.231 -15.070  0.00  0.00    +0.021 C 
ATOM     15  C   UNL     1      34.525 -23.834 -15.008  0.00  0.00    +0.021 C 
ATOM     16  C   UNL     1      36.728 -25.081 -13.988  0.00  0.00    +0.099 C 
ATOM     17  C   UNL     1      34.462 -24.701 -13.930  0.00  0.00    +0.099 C 
ENDBRANCH   7  13
ENDBRANCH   3   6
BRANCH   2  20
ATOM     18  O   UNL     1      34.578 -18.168 -23.733  0.00  0.00    -0.270 OA
ATOM     19  N   UNL     1      34.627 -16.508 -22.146  0.00  0.00    -0.298 N 
ATOM     20  C   UNL     1      34.916 -17.789 -22.610  0.00  0.00    +0.252 C 
ATOM     21  H   UNL     1      34.919 -16.253 -21.241  0.00  0.00    +0.150 HD
BRANCH  19  22
ATOM     22  C   UNL     1      33.914 -15.541 -22.952  0.00  0.00    +0.105 C 
BRANCH  22  23
ATOM     23  C   UNL     1      33.268 -14.496 -22.062  0.00  0.00    -0.004 C 
ATOM     24  C   UNL     1      33.026 -14.801 -20.735  0.00  0.00    -0.003 C 
ATOM     25  C   UNL     1      32.937 -13.267 -22.600  0.00  0.00    -0.003 C 
ATOM     26  C   UNL     1      32.431 -13.840 -19.917  0.00  0.00    -0.000 C 
ATOM     27  C   UNL     1      32.342 -12.307 -21.782  0.00  0.00    -0.000 C 
ATOM     28  C   UNL     1      32.088 -12.594 -20.440  0.00  0.00    -0.000 C 
ENDBRANCH  22  23
BRANCH  22  29
ATOM     29  C   UNL     1      34.848 -14.947 -24.021  0.00  0.00    +0.133 C 
BRANCH  29  31
ATOM     30  O   UNL     1      33.693 -14.546 -26.131  0.00  0.00    -0.250 OA
ATOM     31  C   UNL     1      34.410 -15.254 -25.437  0.00  0.00    +0.316 C 
BRANCH  31  32
ATOM     32  O   UNL     1      34.895 -16.452 -25.859  0.00  0.00    -0.480 OA
ATOM     33  H   UNL     1      34.305 -17.151 -26.060  0.00  0.00    +0.295 HD
ENDBRANCH  31  32
ENDBRANCH  29  31
ENDBRANCH  22  29
ENDBRANCH  19  22
ENDBRANCH   2  20
TORSDOF 8
ENDMDL
MODEL 9
REMARK VINA RESULT:      -9.2      6.838     11.556
REMARK  Name = 448942
REMARK  8 active torsions:
REMARK  status: ('A' for Active; 'I' for Inactive)
REMARK    1  A    between atoms: C_2  and  C_20
REMARK    2  A    between atoms: C_3  and  C_6
REMARK    3  A    between atoms: C_7  and  C_13
REMARK    4  A    between atoms: N_19  and  C_22
REMARK    5  A    between atoms: C_22  and  C_23
REMARK    6  A    between atoms: C_22  and  C_29
REMARK    7  A    between atoms: C_29  and  C_31
REMARK    8  A    between atoms: C_31  and  O_32
REMARK                            x       y       z     vdW  Elec       q    Type
REMARK                         _______ _______ _______ _____ _____    ______ ____
ROOT
ATOM      1  S   UNL     1      31.776 -10.715 -19.132  0.00  0.00    -0.082 S 
ATOM      2  C   UNL     1      32.164 -11.317 -20.666  0.00  0.00    +0.083 C 
ATOM      3  C   UNL     1      31.923  -9.092 -21.119  0.00  0.00    +0.007 C 
ATOM      4  C   UNL     1      32.216 -10.385 -21.642  0.00  0.00    +0.012 C 
ATOM      5  C   UNL     1      31.664  -9.128 -19.767  0.00  0.00    +0.036 C 
ENDROOT
BRANCH   3   6
ATOM      6  C   UNL     1      31.880  -7.851 -21.845  0.00  0.00    +0.001 C 
ATOM      7  C   UNL     1      31.799  -5.445 -23.252  0.00  0.00    +0.000 C 
ATOM      8  C   UNL     1      31.807  -7.862 -23.236  0.00  0.00    +0.000 C 
ATOM      9  C   UNL     1      31.913  -6.640 -21.154  0.00  0.00    +0.000 C 
ATOM     10  C   UNL     1      31.767  -6.658 -23.941  0.00  0.00    +0.000 C 
ATOM     11  C   UNL     1      31.873  -5.437 -21.859  0.00  0.00    +0.000 C 
BRANCH   7  13
ATOM     12  N   UNL     1      31.678  -1.787 -25.395  0.00  0.00    -0.242 NA
ATOM     13  C   UNL     1      31.759  -4.198 -23.982  0.00  0.00    +0.003 C 
ATOM     14  C   UNL     1      30.810  -3.233 -23.662  0.00  0.00    +0.021 C 
ATOM     15  C   UNL     1      32.667  -3.959 -25.008  0.00  0.00    +0.021 C 
ATOM     16  C   UNL     1      30.812  -2.055 -24.391  0.00  0.00    +0.099 C 
ATOM     17  C   UNL     1      32.585  -2.749 -25.677  0.00  0.00    +0.099 C 
ENDBRANCH   7  13
ENDBRANCH   3   6
BRANCH   2  20
ATOM     18  O   UNL     1      32.042 -13.568 -19.938  0.00  0.00    -0.270 OA
ATOM     19  N   UNL     1      33.093 -13.156 -21.938  0.00  0.00    -0.298 N 
ATOM     20  C   UNL     1      32.403 -12.760 -20.796  0.00  0.00    +0.252 C 
ATOM     21  H   UNL     1      33.361 -12.473 -22.594  0.00  0.00    +0.150 HD
BRANCH  19  22
ATOM     22  C   UNL     1      33.431 -14.541 -22.191  0.00  0.00    +0.105 C 
BRANCH  22  23
ATOM     23  C   UNL     1      33.630 -14.766 -23.677  0.00  0.00    -0.004 C 
ATOM     24  C   UNL     1      34.377 -15.851 -24.097  0.00  0.00    -0.003 C 
ATOM     25  C   UNL     1      33.062 -13.882 -24.574  0.00  0.00    -0.003 C 
ATOM     26  C   UNL     1      34.561 -16.059 -25.465  0.00  0.00    -0.000 C 
ATOM     27  C   UNL     1      33.246 -14.088 -25.941  0.00  0.00    -0.000 C 
ATOM     28  C   UNL     1      33.997 -15.177 -26.386  0.00  0.00    -0.000 C 
ENDBRANCH  22  23
BRANCH  22  29
ATOM     29  C   UNL     1      34.641 -14.957 -21.337  0.00  0.00    +0.133 C 
BRANCH  29  31
ATOM     30  O   UNL     1      35.332 -17.193 -20.650  0.00  0.00    -0.250 OA
ATOM     31  C   UNL     1      34.479 -16.317 -20.690  0.00  0.00    +0.316 C 
BRANCH  31  32
ATOM     32  O   UNL     1      33.234 -16.473 -20.165  0.00  0.00    -0.480 OA
ATOM     33  H   UNL     1      33.035 -16.117 -19.322  0.00  0.00    +0.295 HD
ENDBRANCH  31  32
ENDBRANCH  29  31
ENDBRANCH  22  29
ENDBRANCH  19  22
ENDBRANCH   2  20
TORSDOF 8
ENDMDL
