MODEL 1
REMARK VINA RESULT:     -12.0      0.000      0.000
REMARK  Name = 24875320
REMARK  6 active torsions:
REMARK  status: ('A' for Active; 'I' for Inactive)
REMARK    1  A    between atoms: C_1  and  N_22
REMARK    2  A    between atoms: C_3  and  C_10
REMARK    3  A    between atoms: N_9  and  C_12
REMARK    4  A    between atoms: C_14  and  C_21
REMARK    5  A    between atoms: N_22  and  C_25
REMARK    6  A    between atoms: C_28  and  C_32
REMARK                            x       y       z     vdW  Elec       q    Type
REMARK                         _______ _______ _______ _____ _____    ______ ____
ROOT
ATOM      1  C   UNL     1      34.900 -23.011 -16.900  0.00  0.00    +0.044 C 
ATOM      2  C   UNL     1      36.234 -22.834 -16.535  0.00  0.00    -0.008 C 
ATOM      3  C   UNL     1      35.196 -21.464 -18.733  0.00  0.00    +0.055 C 
ATOM      4  C   UNL     1      34.381 -22.326 -17.999  0.00  0.00    +0.019 C 
ATOM      5  C   UNL     1      37.050 -21.973 -17.269  0.00  0.00    -0.003 C 
ATOM      6  C   UNL     1      36.531 -21.287 -18.367  0.00  0.00    +0.004 C 
ATOM      7  C   UNL     1      36.817 -23.556 -15.363  0.00  0.00    +0.032 C 
ENDROOT
BRANCH   3  10
ATOM      8  O   UNL     1      33.522 -21.043 -20.291  0.00  0.00    -0.270 OA
ATOM      9  N   UNL     1      35.492 -19.779 -20.444  0.00  0.00    -0.280 N 
ATOM     10  C   UNL     1      34.655 -20.750 -19.877  0.00  0.00    +0.250 C 
ATOM     11  H   UNL     1      36.365 -19.656 -20.005  0.00  0.00    +0.155 HD
BRANCH   9  12
ATOM     12  C   UNL     1      35.248 -18.950 -21.567  0.00  0.00    +0.050 C 
ATOM     13  C   UNL     1      35.034 -17.583 -21.393  0.00  0.00    +0.019 C 
ATOM     14  C   UNL     1      34.793 -16.768 -22.499  0.00  0.00    +0.073 C 
ATOM     15  C   UNL     1      35.220 -19.503 -22.848  0.00  0.00    +0.015 C 
ATOM     16  C   UNL     1      34.766 -17.321 -23.780  0.00  0.00    +0.004 C 
ATOM     17  C   UNL     1      34.979 -18.688 -23.954  0.00  0.00    +0.001 C 
BRANCH  14  21
ATOM     18  F   UNL     1      35.257 -14.527 -23.195  0.00  0.00    -0.166 F 
ATOM     19  F   UNL     1      33.258 -14.935 -22.460  0.00  0.00    -0.166 F 
ATOM     20  F   UNL     1      34.931 -14.871 -21.073  0.00  0.00    -0.166 F 
ATOM     21  C   UNL     1      34.564 -15.306 -22.314  0.00  0.00    +0.419 C 
ENDBRANCH  14  21
ENDBRANCH   9  12
ENDBRANCH   3  10
BRANCH   1  22
ATOM     22  N   UNL     1      34.060 -23.880 -16.169  0.00  0.00    -0.312 N 
ATOM     23  H   UNL     1      34.285 -24.832 -16.277  0.00  0.00    +0.152 HD
BRANCH  22  25
ATOM     24  N   UNL     1      32.073 -23.588 -13.070  0.00  0.00    -0.241 NA
ATOM     25  C   UNL     1      32.964 -23.650 -15.316  0.00  0.00    +0.068 C 
ATOM     26  C   UNL     1      31.726 -23.273 -15.826  0.00  0.00    +0.022 C 
ATOM     27  C   UNL     1      33.084 -23.793 -13.944  0.00  0.00    +0.113 C 
ATOM     28  C   UNL     1      30.662 -23.052 -14.958  0.00  0.00    +0.073 C 
ATOM     29  C   UNL     1      30.885 -23.222 -13.602  0.00  0.00    +0.103 C 
BRANCH  28  32
ATOM     30  O   UNL     1      28.581 -21.964 -14.776  0.00  0.00    -0.270 OA
ATOM     31  N   UNL     1      29.004 -23.065 -16.743  0.00  0.00    -0.325 N 
ATOM     32  C   UNL     1      29.357 -22.657 -15.459  0.00  0.00    +0.244 C 
ATOM     33  H   UNL     1      28.127 -22.816 -17.115  0.00  0.00    +0.145 HD
ATOM     34  H   UNL     1      29.631 -23.602 -17.279  0.00  0.00    +0.145 HD
ENDBRANCH  28  32
ENDBRANCH  22  25
ENDBRANCH   1  22
TORSDOF 6
ENDMDL
MODEL 2
REMARK VINA RESULT:     -11.3      3.992      7.380
REMARK  Name = 24875320
REMARK  6 active torsions:
REMARK  status: ('A' for Active; 'I' for Inactive)
REMARK    1  A    between atoms: C_1  and  N_22
REMARK    2  A    between atoms: C_3  and  C_10
REMARK    3  A    between atoms: N_9  and  C_12
REMARK    4  A    between atoms: C_14  and  C_21
REMARK    5  A    between atoms: N_22  and  C_25
REMARK    6  A    between atoms: C_28  and  C_32
REMARK                            x       y       z     vdW  Elec       q    Type
REMARK                         _______ _______ _______ _____ _____    ______ ____
ROOT
ATOM      1  C   UNL     1      35.136 -18.012 -22.192  0.00  0.00    +0.044 C 
ATOM      2  C   UNL     1      34.993 -18.049 -23.579  0.00  0.00    -0.008 C 
ATOM      3  C   UNL     1      34.445 -15.697 -22.183  0.00  0.00    +0.055 C 
ATOM      4  C   UNL     1      34.863 -16.836 -21.494  0.00  0.00    +0.019 C 
ATOM      5  C   UNL     1      34.576 -16.910 -24.268  0.00  0.00    -0.003 C 
ATOM      6  C   UNL     1      34.303 -15.734 -23.570  0.00  0.00    +0.004 C 
ATOM      7  C   UNL     1      35.278 -19.296 -24.352  0.00  0.00    +0.032 C 
ENDROOT
BRANCH   3  10
ATOM      8  O   UNL     1      34.950 -14.096 -20.573  0.00  0.00    -0.270 OA
ATOM      9  N   UNL     1      32.976 -13.810 -21.808  0.00  0.00    -0.280 N 
ATOM     10  C   UNL     1      34.161 -14.471 -21.455  0.00  0.00    +0.250 C 
ATOM     11  H   UNL     1      32.452 -14.228 -22.529  0.00  0.00    +0.155 HD
BRANCH   9  12
ATOM     12  C   UNL     1      32.433 -12.621 -21.262  0.00  0.00    +0.050 C 
ATOM     13  C   UNL     1      32.447 -11.441 -22.006  0.00  0.00    +0.019 C 
ATOM     14  C   UNL     1      31.913 -10.270 -21.468  0.00  0.00    +0.073 C 
ATOM     15  C   UNL     1      31.885 -12.630 -19.979  0.00  0.00    +0.015 C 
ATOM     16  C   UNL     1      31.364 -10.280 -20.185  0.00  0.00    +0.004 C 
ATOM     17  C   UNL     1      31.351 -11.459 -19.442  0.00  0.00    +0.001 C 
BRANCH  14  21
ATOM     18  F   UNL     1      30.734  -8.725 -22.863  0.00  0.00    -0.166 F 
ATOM     19  F   UNL     1      32.226  -7.901 -21.523  0.00  0.00    -0.166 F 
ATOM     20  F   UNL     1      32.847  -9.035 -23.272  0.00  0.00    -0.166 F 
ATOM     21  C   UNL     1      31.927  -9.009 -22.263  0.00  0.00    +0.419 C 
ENDBRANCH  14  21
ENDBRANCH   9  12
ENDBRANCH   3  10
BRANCH   1  22
ATOM     22  N   UNL     1      35.556 -19.156 -21.479  0.00  0.00    -0.312 N 
ATOM     23  H   UNL     1      36.504 -19.383 -21.617  0.00  0.00    +0.152 HD
BRANCH  22  25
ATOM     24  N   UNL     1      32.811 -21.055 -19.898  0.00  0.00    -0.241 NA
ATOM     25  C   UNL     1      34.885 -20.036 -20.608  0.00  0.00    +0.068 C 
ATOM     26  C   UNL     1      35.576 -20.741 -19.629  0.00  0.00    +0.022 C 
ATOM     27  C   UNL     1      33.516 -20.226 -20.701  0.00  0.00    +0.113 C 
ATOM     28  C   UNL     1      34.886 -21.604 -18.785  0.00  0.00    +0.073 C 
ATOM     29  C   UNL     1      33.517 -21.724 -18.958  0.00  0.00    +0.103 C 
BRANCH  28  32
ATOM     30  O   UNL     1      36.785 -22.168 -17.511  0.00  0.00    -0.270 OA
ATOM     31  N   UNL     1      34.842 -23.282 -17.020  0.00  0.00    -0.325 N 
ATOM     32  C   UNL     1      35.578 -22.354 -17.752  0.00  0.00    +0.244 C 
ATOM     33  H   UNL     1      35.278 -23.809 -16.311  0.00  0.00    +0.145 HD
ATOM     34  H   UNL     1      33.884 -23.411 -17.209  0.00  0.00    +0.145 HD
ENDBRANCH  28  32
ENDBRANCH  22  25
ENDBRANCH   1  22
TORSDOF 6
ENDMDL
MODEL 3
REMARK VINA RESULT:     -11.2      1.365      2.038
REMARK  Name = 24875320
REMARK  6 active torsions:
REMARK  status: ('A' for Active; 'I' for Inactive)
REMARK    1  A    between atoms: C_1  and  N_22
REMARK    2  A    between atoms: C_3  and  C_10
REMARK    3  A    between atoms: N_9  and  C_12
REMARK    4  A    between atoms: C_14  and  C_21
REMARK    5  A    between atoms: N_22  and  C_25
REMARK    6  A    between atoms: C_28  and  C_32
REMARK                            x       y       z     vdW  Elec       q    Type
REMARK                         _______ _______ _______ _____ _____    ______ ____
ROOT
ATOM      1  C   UNL     1      34.977 -22.763 -17.389  0.00  0.00    +0.044 C 
ATOM      2  C   UNL     1      35.976 -22.802 -16.417  0.00  0.00    -0.008 C 
ATOM      3  C   UNL     1      36.284 -21.184 -18.669  0.00  0.00    +0.055 C 
ATOM      4  C   UNL     1      35.130 -21.954 -18.515  0.00  0.00    +0.019 C 
ATOM      5  C   UNL     1      37.129 -22.033 -16.571  0.00  0.00    -0.003 C 
ATOM      6  C   UNL     1      37.283 -21.223 -17.696  0.00  0.00    +0.004 C 
ATOM      7  C   UNL     1      35.838 -23.660 -15.202  0.00  0.00    +0.032 C 
ENDROOT
BRANCH   3  10
ATOM      8  O   UNL     1      37.588 -20.055 -20.229  0.00  0.00    -0.270 OA
ATOM      9  N   UNL     1      35.257 -19.892 -20.439  0.00  0.00    -0.280 N 
ATOM     10  C   UNL     1      36.443 -20.340 -19.842  0.00  0.00    +0.250 C 
ATOM     11  H   UNL     1      34.422 -20.203 -20.020  0.00  0.00    +0.155 HD
BRANCH   9  12
ATOM     12  C   UNL     1      35.102 -19.048 -21.567  0.00  0.00    +0.050 C 
ATOM     13  C   UNL     1      34.933 -17.674 -21.393  0.00  0.00    +0.019 C 
ATOM     14  C   UNL     1      34.779 -16.844 -22.503  0.00  0.00    +0.073 C 
ATOM     15  C   UNL     1      35.118 -19.591 -22.851  0.00  0.00    +0.015 C 
ATOM     16  C   UNL     1      34.795 -17.387 -23.788  0.00  0.00    +0.004 C 
ATOM     17  C   UNL     1      34.965 -18.761 -23.961  0.00  0.00    +0.001 C 
BRANCH  14  21
ATOM     18  F   UNL     1      34.996 -14.924 -21.091  0.00  0.00    -0.166 F 
ATOM     19  F   UNL     1      35.296 -14.621 -23.218  0.00  0.00    -0.166 F 
ATOM     20  F   UNL     1      33.296 -14.987 -22.446  0.00  0.00    -0.166 F 
ATOM     21  C   UNL     1      34.598 -15.376 -22.317  0.00  0.00    +0.419 C 
ENDBRANCH  14  21
ENDBRANCH   9  12
ENDBRANCH   3  10
BRANCH   1  22
ATOM     22  N   UNL     1      33.803 -23.536 -17.251  0.00  0.00    -0.312 N 
ATOM     23  H   UNL     1      33.834 -24.394 -17.733  0.00  0.00    +0.152 HD
BRANCH  22  25
ATOM     24  N   UNL     1      30.365 -22.392 -16.538  0.00  0.00    -0.241 NA
ATOM     25  C   UNL     1      32.597 -23.320 -16.558  0.00  0.00    +0.068 C 
ATOM     26  C   UNL     1      32.421 -23.792 -15.262  0.00  0.00    +0.022 C 
ATOM     27  C   UNL     1      31.548 -22.633 -17.146  0.00  0.00    +0.113 C 
ATOM     28  C   UNL     1      31.218 -23.565 -14.603  0.00  0.00    +0.073 C 
ATOM     29  C   UNL     1      30.230 -22.865 -15.278  0.00  0.00    +0.103 C 
BRANCH  28  32
ATOM     30  O   UNL     1      31.416 -23.409 -12.261  0.00  0.00    -0.270 OA
ATOM     31  N   UNL     1      30.299 -25.234 -13.085  0.00  0.00    -0.325 N 
ATOM     32  C   UNL     1      31.003 -24.043 -13.249  0.00  0.00    +0.244 C 
ATOM     33  H   UNL     1      30.135 -25.589 -12.181  0.00  0.00    +0.145 HD
ATOM     34  H   UNL     1      29.965 -25.721 -13.873  0.00  0.00    +0.145 HD
ENDBRANCH  28  32
ENDBRANCH  22  25
ENDBRANCH   1  22
TORSDOF 6
ENDMDL
MODEL 4
REMARK VINA RESULT:     -11.1      1.737      2.794
REMARK  Name = 24875320
REMARK  6 active torsions:
REMARK  status: ('A' for Active; 'I' for Inactive)
REMARK    1  A    between atoms: C_1  and  N_22
REMARK    2  A    between atoms: C_3  and  C_10
REMARK    3  A    between atoms: N_9  and  C_12
REMARK    4  A    between atoms: C_14  and  C_21
REMARK    5  A    between atoms: N_22  and  C_25
REMARK    6  A    between atoms: C_28  and  C_32
REMARK                            x       y       z     vdW  Elec       q    Type
REMARK                         _______ _______ _______ _____ _____    ______ ____
ROOT
ATOM      1  C   UNL     1      35.342 -22.014 -18.575  0.00  0.00    +0.044 C 
ATOM      2  C   UNL     1      36.620 -21.694 -18.117  0.00  0.00    -0.008 C 
ATOM      3  C   UNL     1      35.482 -20.240 -20.210  0.00  0.00    +0.055 C 
ATOM      4  C   UNL     1      34.773 -21.287 -19.620  0.00  0.00    +0.019 C 
ATOM      5  C   UNL     1      37.330 -20.647 -18.706  0.00  0.00    -0.003 C 
ATOM      6  C   UNL     1      36.761 -19.920 -19.752  0.00  0.00    +0.004 C 
ATOM      7  C   UNL     1      37.254 -22.456 -16.999  0.00  0.00    +0.032 C 
ENDROOT
BRANCH   3  10
ATOM      8  O   UNL     1      33.999 -20.009 -21.986  0.00  0.00    -0.270 OA
ATOM      9  N   UNL     1      35.403 -18.193 -21.498  0.00  0.00    -0.280 N 
ATOM     10  C   UNL     1      34.889 -19.482 -21.299  0.00  0.00    +0.250 C 
ATOM     11  H   UNL     1      36.108 -17.912 -20.871  0.00  0.00    +0.155 HD
BRANCH   9  12
ATOM     12  C   UNL     1      35.042 -17.243 -22.485  0.00  0.00    +0.050 C 
ATOM     13  C   UNL     1      34.582 -15.982 -22.105  0.00  0.00    +0.019 C 
ATOM     14  C   UNL     1      34.227 -15.046 -23.076  0.00  0.00    +0.073 C 
ATOM     15  C   UNL     1      35.146 -17.568 -23.837  0.00  0.00    +0.015 C 
ATOM     16  C   UNL     1      34.331 -15.373 -24.429  0.00  0.00    +0.004 C 
ATOM     17  C   UNL     1      34.790 -16.633 -24.809  0.00  0.00    +0.001 C 
BRANCH  14  21
ATOM     18  F   UNL     1      33.866 -13.447 -21.335  0.00  0.00    -0.166 F 
ATOM     19  F   UNL     1      34.385 -12.670 -23.292  0.00  0.00    -0.166 F 
ATOM     20  F   UNL     1      32.411 -13.517 -22.949  0.00  0.00    -0.166 F 
ATOM     21  C   UNL     1      33.735 -13.699 -22.670  0.00  0.00    +0.419 C 
ENDBRANCH  14  21
ENDBRANCH   9  12
ENDBRANCH   3  10
BRANCH   1  22
ATOM     22  N   UNL     1      34.610 -23.071 -17.991  0.00  0.00    -0.312 N 
ATOM     23  H   UNL     1      34.810 -23.954 -18.379  0.00  0.00    +0.152 HD
BRANCH  22  25
ATOM     24  N   UNL     1      31.377 -22.706 -16.244  0.00  0.00    -0.241 NA
ATOM     25  C   UNL     1      33.649 -23.110 -16.963  0.00  0.00    +0.068 C 
ATOM     26  C   UNL     1      33.977 -23.568 -15.692  0.00  0.00    +0.022 C 
ATOM     27  C   UNL     1      32.346 -22.694 -17.186  0.00  0.00    +0.113 C 
ATOM     28  C   UNL     1      33.007 -23.597 -14.697  0.00  0.00    +0.073 C 
ATOM     29  C   UNL     1      31.733 -23.158 -15.021  0.00  0.00    +0.103 C 
BRANCH  28  32
ATOM     30  O   UNL     1      32.548 -24.827 -12.742  0.00  0.00    -0.270 OA
ATOM     31  N   UNL     1      34.522 -23.661 -12.790  0.00  0.00    -0.325 N 
ATOM     32  C   UNL     1      33.318 -24.069 -13.360  0.00  0.00    +0.244 C 
ATOM     33  H   UNL     1      34.766 -23.962 -11.885  0.00  0.00    +0.145 HD
ATOM     34  H   UNL     1      35.130 -23.072 -13.294  0.00  0.00    +0.145 HD
ENDBRANCH  28  32
ENDBRANCH  22  25
ENDBRANCH   1  22
TORSDOF 6
ENDMDL
MODEL 5
REMARK VINA RESULT:     -11.1      5.964     11.236
REMARK  Name = 24875320
REMARK  6 active torsions:
REMARK  status: ('A' for Active; 'I' for Inactive)
REMARK    1  A    between atoms: C_1  and  N_22
REMARK    2  A    between atoms: C_3  and  C_10
REMARK    3  A    between atoms: N_9  and  C_12
REMARK    4  A    between atoms: C_14  and  C_21
REMARK    5  A    between atoms: N_22  and  C_25
REMARK    6  A    between atoms: C_28  and  C_32
REMARK                            x       y       z     vdW  Elec       q    Type
REMARK                         _______ _______ _______ _____ _____    ______ ____
ROOT
ATOM      1  C   UNL     1      34.157 -13.352 -23.931  0.00  0.00    +0.044 C 
ATOM      2  C   UNL     1      33.881 -13.906 -25.180  0.00  0.00    -0.008 C 
ATOM      3  C   UNL     1      34.512 -15.566 -23.029  0.00  0.00    +0.055 C 
ATOM      4  C   UNL     1      34.472 -14.183 -22.855  0.00  0.00    +0.019 C 
ATOM      5  C   UNL     1      33.920 -15.289 -25.356  0.00  0.00    -0.003 C 
ATOM      6  C   UNL     1      34.235 -16.119 -24.280  0.00  0.00    +0.004 C 
ATOM      7  C   UNL     1      33.541 -13.040 -26.350  0.00  0.00    +0.032 C 
ENDROOT
BRANCH   3  10
ATOM      8  O   UNL     1      34.878 -15.949 -20.765  0.00  0.00    -0.270 OA
ATOM      9  N   UNL     1      35.113 -17.769 -22.227  0.00  0.00    -0.280 N 
ATOM     10  C   UNL     1      34.840 -16.432 -21.908  0.00  0.00    +0.250 C 
ATOM     11  H   UNL     1      35.041 -18.005 -23.180  0.00  0.00    +0.155 HD
BRANCH   9  12
ATOM     12  C   UNL     1      35.480 -18.826 -21.357  0.00  0.00    +0.050 C 
ATOM     13  C   UNL     1      34.509 -19.708 -20.882  0.00  0.00    +0.019 C 
ATOM     14  C   UNL     1      34.870 -20.748 -20.026  0.00  0.00    +0.073 C 
ATOM     15  C   UNL     1      36.812 -18.983 -20.975  0.00  0.00    +0.015 C 
ATOM     16  C   UNL     1      36.204 -20.905 -19.644  0.00  0.00    +0.004 C 
ATOM     17  C   UNL     1      37.173 -20.023 -20.119  0.00  0.00    +0.001 C 
BRANCH  14  21
ATOM     18  F   UNL     1      34.233 -22.998 -19.521  0.00  0.00    -0.166 F 
ATOM     19  F   UNL     1      33.448 -21.439 -18.232  0.00  0.00    -0.166 F 
ATOM     20  F   UNL     1      32.687 -21.658 -20.258  0.00  0.00    -0.166 F 
ATOM     21  C   UNL     1      33.834 -21.692 -19.518  0.00  0.00    +0.419 C 
ENDBRANCH  14  21
ENDBRANCH   9  12
ENDBRANCH   3  10
BRANCH   1  22
ATOM     22  N   UNL     1      34.123 -11.954 -23.736  0.00  0.00    -0.312 N 
ATOM     23  H   UNL     1      34.846 -11.472 -24.198  0.00  0.00    +0.152 HD
BRANCH  22  25
ATOM     24  N   UNL     1      31.522 -10.884 -21.343  0.00  0.00    -0.241 NA
ATOM     25  C   UNL     1      33.258 -11.115 -23.009  0.00  0.00    +0.068 C 
ATOM     26  C   UNL     1      33.260  -9.739 -23.209  0.00  0.00    +0.022 C 
ATOM     27  C   UNL     1      32.378 -11.633 -22.073  0.00  0.00    +0.113 C 
ATOM     28  C   UNL     1      32.394  -8.934 -22.475  0.00  0.00    +0.073 C 
ATOM     29  C   UNL     1      31.552  -9.551 -21.563  0.00  0.00    +0.103 C 
BRANCH  28  32
ATOM     30  O   UNL     1      33.422  -6.831 -22.729  0.00  0.00    -0.270 OA
ATOM     31  N   UNL     1      31.130  -6.874 -22.778  0.00  0.00    -0.325 N 
ATOM     32  C   UNL     1      32.372  -7.494 -22.660  0.00  0.00    +0.244 C 
ATOM     33  H   UNL     1      31.077  -5.899 -22.904  0.00  0.00    +0.145 HD
ATOM     34  H   UNL     1      30.306  -7.410 -22.735  0.00  0.00    +0.145 HD
ENDBRANCH  28  32
ENDBRANCH  22  25
ENDBRANCH   1  22
TORSDOF 6
ENDMDL
MODEL 6
REMARK VINA RESULT:     -11.0      4.486      9.447
REMARK  Name = 24875320
REMARK  6 active torsions:
REMARK  status: ('A' for Active; 'I' for Inactive)
REMARK    1  A    between atoms: C_1  and  N_22
REMARK    2  A    between atoms: C_3  and  C_10
REMARK    3  A    between atoms: N_9  and  C_12
REMARK    4  A    between atoms: C_14  and  C_21
REMARK    5  A    between atoms: N_22  and  C_25
REMARK    6  A    between atoms: C_28  and  C_32
REMARK                            x       y       z     vdW  Elec       q    Type
REMARK                         _______ _______ _______ _____ _____    ______ ____
ROOT
ATOM      1  C   UNL     1      35.481 -19.695 -21.161  0.00  0.00    +0.044 C 
ATOM      2  C   UNL     1      36.809 -19.720 -20.733  0.00  0.00    -0.008 C 
ATOM      3  C   UNL     1      34.888 -21.247 -19.406  0.00  0.00    +0.055 C 
ATOM      4  C   UNL     1      34.521 -20.459 -20.497  0.00  0.00    +0.019 C 
ATOM      5  C   UNL     1      37.176 -20.508 -19.642  0.00  0.00    -0.003 C 
ATOM      6  C   UNL     1      36.216 -21.272 -18.979  0.00  0.00    +0.004 C 
ATOM      7  C   UNL     1      37.858 -18.911 -21.424  0.00  0.00    +0.032 C 
ENDROOT
BRANCH   3  10
ATOM      8  O   UNL     1      32.915 -22.478 -19.355  0.00  0.00    -0.270 OA
ATOM      9  N   UNL     1      34.102 -22.241 -17.344  0.00  0.00    -0.280 N 
ATOM     10  C   UNL     1      33.887 -22.044 -18.716  0.00  0.00    +0.250 C 
ATOM     11  H   UNL     1      34.920 -21.836 -16.976  0.00  0.00    +0.155 HD
BRANCH   9  12
ATOM     12  C   UNL     1      33.294 -22.946 -16.418  0.00  0.00    +0.050 C 
ATOM     13  C   UNL     1      31.904 -22.861 -16.497  0.00  0.00    +0.019 C 
ATOM     14  C   UNL     1      31.109 -23.555 -15.585  0.00  0.00    +0.073 C 
ATOM     15  C   UNL     1      33.889 -23.726 -15.426  0.00  0.00    +0.015 C 
ATOM     16  C   UNL     1      31.705 -24.335 -14.593  0.00  0.00    +0.004 C 
ATOM     17  C   UNL     1      33.094 -24.420 -14.514  0.00  0.00    +0.001 C 
BRANCH  14  21
ATOM     18  F   UNL     1      29.070 -22.650 -14.721  0.00  0.00    -0.166 F 
ATOM     19  F   UNL     1      29.172 -22.978 -16.863  0.00  0.00    -0.166 F 
ATOM     20  F   UNL     1      29.013 -24.675 -15.512  0.00  0.00    -0.166 F 
ATOM     21  C   UNL     1      29.623 -23.464 -15.668  0.00  0.00    +0.419 C 
ENDBRANCH  14  21
ENDBRANCH   9  12
ENDBRANCH   3  10
BRANCH   1  22
ATOM     22  N   UNL     1      35.092 -18.903 -22.262  0.00  0.00    -0.312 N 
ATOM     23  H   UNL     1      34.969 -19.415 -23.095  0.00  0.00    +0.152 HD
BRANCH  22  25
ATOM     24  N   UNL     1      34.659 -15.344 -21.378  0.00  0.00    -0.241 NA
ATOM     25  C   UNL     1      34.845 -17.524 -22.404  0.00  0.00    +0.068 C 
ATOM     26  C   UNL     1      34.553 -16.973 -23.647  0.00  0.00    +0.022 C 
ATOM     27  C   UNL     1      34.886 -16.675 -21.311  0.00  0.00    +0.113 C 
ATOM     28  C   UNL     1      34.315 -15.607 -23.757  0.00  0.00    +0.073 C 
ATOM     29  C   UNL     1      34.379 -14.843 -22.602  0.00  0.00    +0.103 C 
BRANCH  28  32
ATOM     30  O   UNL     1      34.202 -15.606 -26.109  0.00  0.00    -0.270 OA
ATOM     31  N   UNL     1      33.466 -13.717 -25.038  0.00  0.00    -0.325 N 
ATOM     32  C   UNL     1      34.007 -15.001 -25.039  0.00  0.00    +0.244 C 
ATOM     33  H   UNL     1      33.244 -13.275 -25.889  0.00  0.00    +0.145 HD
ATOM     34  H   UNL     1      33.303 -13.252 -24.185  0.00  0.00    +0.145 HD
ENDBRANCH  28  32
ENDBRANCH  22  25
ENDBRANCH   1  22
TORSDOF 6
ENDMDL
MODEL 7
REMARK VINA RESULT:     -11.0      4.694      9.872
REMARK  Name = 24875320
REMARK  6 active torsions:
REMARK  status: ('A' for Active; 'I' for Inactive)
REMARK    1  A    between atoms: C_1  and  N_22
REMARK    2  A    between atoms: C_3  and  C_10
REMARK    3  A    between atoms: N_9  and  C_12
REMARK    4  A    between atoms: C_14  and  C_21
REMARK    5  A    between atoms: N_22  and  C_25
REMARK    6  A    between atoms: C_28  and  C_32
REMARK                            x       y       z     vdW  Elec       q    Type
REMARK                         _______ _______ _______ _____ _____    ______ ____
ROOT
ATOM      1  C   UNL     1      35.268 -17.165 -22.480  0.00  0.00    +0.044 C 
ATOM      2  C   UNL     1      34.924 -17.764 -23.691  0.00  0.00    -0.008 C 
ATOM      3  C   UNL     1      35.400 -19.343 -21.442  0.00  0.00    +0.055 C 
ATOM      4  C   UNL     1      35.506 -17.955 -21.355  0.00  0.00    +0.019 C 
ATOM      5  C   UNL     1      34.819 -19.151 -23.779  0.00  0.00    -0.003 C 
ATOM      6  C   UNL     1      35.056 -19.942 -22.654  0.00  0.00    +0.004 C 
ATOM      7  C   UNL     1      34.666 -16.942 -24.913  0.00  0.00    +0.032 C 
ENDROOT
BRANCH   3  10
ATOM      8  O   UNL     1      36.799 -20.234 -19.811  0.00  0.00    -0.270 OA
ATOM      9  N   UNL     1      34.535 -20.848 -19.755  0.00  0.00    -0.280 N 
ATOM     10  C   UNL     1      35.647 -20.166 -20.269  0.00  0.00    +0.250 C 
ATOM     11  H   UNL     1      33.684 -20.695 -20.226  0.00  0.00    +0.155 HD
BRANCH   9  12
ATOM     12  C   UNL     1      34.476 -21.731 -18.649  0.00  0.00    +0.050 C 
ATOM     13  C   UNL     1      35.595 -21.904 -17.833  0.00  0.00    +0.019 C 
ATOM     14  C   UNL     1      35.536 -22.774 -16.744  0.00  0.00    +0.073 C 
ATOM     15  C   UNL     1      33.299 -22.428 -18.375  0.00  0.00    +0.015 C 
ATOM     16  C   UNL     1      34.358 -23.470 -16.470  0.00  0.00    +0.004 C 
ATOM     17  C   UNL     1      33.241 -23.297 -17.286  0.00  0.00    +0.001 C 
BRANCH  14  21
ATOM     18  F   UNL     1      37.912 -22.658 -16.488  0.00  0.00    -0.166 F 
ATOM     19  F   UNL     1      36.711 -22.187 -14.745  0.00  0.00    -0.166 F 
ATOM     20  F   UNL     1      36.865 -24.245 -15.432  0.00  0.00    -0.166 F 
ATOM     21  C   UNL     1      36.731 -22.959 -15.872  0.00  0.00    +0.419 C 
ENDBRANCH  14  21
ENDBRANCH   9  12
ENDBRANCH   3  10
BRANCH   1  22
ATOM     22  N   UNL     1      35.381 -15.761 -22.373  0.00  0.00    -0.312 N 
ATOM     23  H   UNL     1      36.310 -15.437 -22.383  0.00  0.00    +0.152 HD
BRANCH  22  25
ATOM     24  N   UNL     1      32.369 -13.932 -21.269  0.00  0.00    -0.241 NA
ATOM     25  C   UNL     1      34.424 -14.736 -22.255  0.00  0.00    +0.068 C 
ATOM     26  C   UNL     1      34.556 -13.548 -22.966  0.00  0.00    +0.022 C 
ATOM     27  C   UNL     1      33.323 -14.877 -21.428  0.00  0.00    +0.113 C 
ATOM     28  C   UNL     1      33.596 -12.551 -22.829  0.00  0.00    +0.073 C 
ATOM     29  C   UNL     1      32.531 -12.791 -21.976  0.00  0.00    +0.103 C 
BRANCH  28  32
ATOM     30  O   UNL     1      33.038 -10.300 -23.236  0.00  0.00    -0.270 OA
ATOM     31  N   UNL     1      34.598 -11.246 -24.625  0.00  0.00    -0.325 N 
ATOM     32  C   UNL     1      33.705 -11.300 -23.557  0.00  0.00    +0.244 C 
ATOM     33  H   UNL     1      34.698 -10.414 -25.141  0.00  0.00    +0.145 HD
ATOM     34  H   UNL     1      35.131 -12.039 -24.862  0.00  0.00    +0.145 HD
ENDBRANCH  28  32
ENDBRANCH  22  25
ENDBRANCH   1  22
TORSDOF 6
ENDMDL
MODEL 8
REMARK VINA RESULT:     -11.0      8.887     13.033
REMARK  Name = 24875320
REMARK  6 active torsions:
REMARK  status: ('A' for Active; 'I' for Inactive)
REMARK    1  A    between atoms: C_1  and  N_22
REMARK    2  A    between atoms: C_3  and  C_10
REMARK    3  A    between atoms: N_9  and  C_12
REMARK    4  A    between atoms: C_14  and  C_21
REMARK    5  A    between atoms: N_22  and  C_25
REMARK    6  A    between atoms: C_28  and  C_32
REMARK                            x       y       z     vdW  Elec       q    Type
REMARK                         _______ _______ _______ _____ _____    ______ ____
ROOT
ATOM      1  C   UNL     1      31.599 -10.805 -20.997  0.00  0.00    +0.044 C 
ATOM      2  C   UNL     1      31.649 -10.258 -19.715  0.00  0.00    -0.008 C 
ATOM      3  C   UNL     1      31.919  -8.606 -21.946  0.00  0.00    +0.055 C 
ATOM      4  C   UNL     1      31.734  -9.978 -22.112  0.00  0.00    +0.019 C 
ATOM      5  C   UNL     1      31.835  -8.886 -19.548  0.00  0.00    -0.003 C 
ATOM      6  C   UNL     1      31.969  -8.060 -20.663  0.00  0.00    +0.004 C 
ATOM      7  C   UNL     1      31.509 -11.120 -18.502  0.00  0.00    +0.032 C 
ENDROOT
BRANCH   3  10
ATOM      8  O   UNL     1      31.152  -7.724 -23.957  0.00  0.00    -0.270 OA
ATOM      9  N   UNL     1      33.249  -7.008 -23.185  0.00  0.00    -0.280 N 
ATOM     10  C   UNL     1      32.059  -7.745 -23.109  0.00  0.00    +0.250 C 
ATOM     11  H   UNL     1      33.876  -7.128 -22.435  0.00  0.00    +0.155 HD
BRANCH   9  12
ATOM     12  C   UNL     1      33.669  -6.114 -24.201  0.00  0.00    +0.050 C 
ATOM     13  C   UNL     1      32.854  -5.044 -24.571  0.00  0.00    +0.019 C 
ATOM     14  C   UNL     1      33.268  -4.165 -25.571  0.00  0.00    +0.073 C 
ATOM     15  C   UNL     1      34.898  -6.305 -24.833  0.00  0.00    +0.015 C 
ATOM     16  C   UNL     1      34.498  -4.356 -26.203  0.00  0.00    +0.004 C 
ATOM     17  C   UNL     1      35.312  -5.426 -25.833  0.00  0.00    +0.001 C 
BRANCH  14  21
ATOM     18  F   UNL     1      31.121  -3.113 -25.491  0.00  0.00    -0.166 F 
ATOM     19  F   UNL     1      32.854  -1.810 -25.530  0.00  0.00    -0.166 F 
ATOM     20  F   UNL     1      32.275  -2.899 -27.321  0.00  0.00    -0.166 F 
ATOM     21  C   UNL     1      32.397  -3.021 -25.967  0.00  0.00    +0.419 C 
ENDBRANCH  14  21
ENDBRANCH   9  12
ENDBRANCH   3  10
BRANCH   1  22
ATOM     22  N   UNL     1      31.413 -12.192 -21.184  0.00  0.00    -0.312 N 
ATOM     23  H   UNL     1      30.467 -12.462 -21.230  0.00  0.00    +0.152 HD
BRANCH  22  25
ATOM     24  N   UNL     1      33.591 -15.032 -20.275  0.00  0.00    -0.241 NA
ATOM     25  C   UNL     1      32.315 -13.265 -21.319  0.00  0.00    +0.068 C 
ATOM     26  C   UNL     1      32.817 -13.626 -22.563  0.00  0.00    +0.022 C 
ATOM     27  C   UNL     1      32.729 -13.993 -20.215  0.00  0.00    +0.113 C 
ATOM     28  C   UNL     1      33.706 -14.691 -22.666  0.00  0.00    +0.073 C 
ATOM     29  C   UNL     1      34.059 -15.355 -21.502  0.00  0.00    +0.103 C 
BRANCH  28  32
ATOM     30  O   UNL     1      33.771 -14.672 -25.020  0.00  0.00    -0.270 OA
ATOM     31  N   UNL     1      35.341 -15.958 -23.953  0.00  0.00    -0.325 N 
ATOM     32  C   UNL     1      34.249 -15.093 -23.951  0.00  0.00    +0.244 C 
ATOM     33  H   UNL     1      35.735 -16.252 -24.806  0.00  0.00    +0.145 HD
ATOM     34  H   UNL     1      35.719 -16.275 -23.101  0.00  0.00    +0.145 HD
ENDBRANCH  28  32
ENDBRANCH  22  25
ENDBRANCH   1  22
TORSDOF 6
ENDMDL
MODEL 9
REMARK VINA RESULT:     -11.0      4.548      8.311
REMARK  Name = 24875320
REMARK  6 active torsions:
REMARK  status: ('A' for Active; 'I' for Inactive)
REMARK    1  A    between atoms: C_1  and  N_22
REMARK    2  A    between atoms: C_3  and  C_10
REMARK    3  A    between atoms: N_9  and  C_12
REMARK    4  A    between atoms: C_14  and  C_21
REMARK    5  A    between atoms: N_22  and  C_25
REMARK    6  A    between atoms: C_28  and  C_32
REMARK                            x       y       z     vdW  Elec       q    Type
REMARK                         _______ _______ _______ _____ _____    ______ ____
ROOT
ATOM      1  C   UNL     1      35.250 -16.788 -22.855  0.00  0.00    +0.044 C 
ATOM      2  C   UNL     1      34.725 -16.710 -24.144  0.00  0.00    -0.008 C 
ATOM      3  C   UNL     1      34.140 -14.721 -22.277  0.00  0.00    +0.055 C 
ATOM      4  C   UNL     1      34.958 -15.793 -21.922  0.00  0.00    +0.019 C 
ATOM      5  C   UNL     1      33.907 -15.638 -24.501  0.00  0.00    -0.003 C 
ATOM      6  C   UNL     1      33.614 -14.643 -23.567  0.00  0.00    +0.004 C 
ATOM      7  C   UNL     1      35.020 -17.762 -25.164  0.00  0.00    +0.032 C 
ENDROOT
BRANCH   3  10
ATOM      8  O   UNL     1      34.482 -13.642 -20.245  0.00  0.00    -0.270 OA
ATOM      9  N   UNL     1      32.796 -12.809 -21.648  0.00  0.00    -0.280 N 
ATOM     10  C   UNL     1      33.836 -13.684 -21.305  0.00  0.00    +0.250 C 
ATOM     11  H   UNL     1      32.376 -12.966 -22.525  0.00  0.00    +0.155 HD
BRANCH   9  12
ATOM     12  C   UNL     1      32.268 -11.729 -20.898  0.00  0.00    +0.050 C 
ATOM     13  C   UNL     1      32.356 -10.427 -21.391  0.00  0.00    +0.019 C 
ATOM     14  C   UNL     1      31.837  -9.364 -20.653  0.00  0.00    +0.073 C 
ATOM     15  C   UNL     1      31.660 -11.968 -19.665  0.00  0.00    +0.015 C 
ATOM     16  C   UNL     1      31.229  -9.603 -19.419  0.00  0.00    +0.004 C 
ATOM     17  C   UNL     1      31.141 -10.905 -18.927  0.00  0.00    +0.001 C 
BRANCH  14  21
ATOM     18  F   UNL     1      31.166  -7.753 -22.289  0.00  0.00    -0.166 F 
ATOM     19  F   UNL     1      31.536  -7.021 -20.281  0.00  0.00    -0.166 F 
ATOM     20  F   UNL     1      33.203  -7.632 -21.538  0.00  0.00    -0.166 F 
ATOM     21  C   UNL     1      31.931  -7.973 -21.179  0.00  0.00    +0.419 C 
ENDBRANCH  14  21
ENDBRANCH   9  12
ENDBRANCH   3  10
BRANCH   1  22
ATOM     22  N   UNL     1      36.080 -17.866 -22.476  0.00  0.00    -0.312 N 
ATOM     23  H   UNL     1      36.918 -17.921 -22.990  0.00  0.00    +0.152 HD
BRANCH  22  25
ATOM     24  N   UNL     1      36.977 -20.317 -19.864  0.00  0.00    -0.241 NA
ATOM     25  C   UNL     1      35.943 -18.879 -21.508  0.00  0.00    +0.068 C 
ATOM     26  C   UNL     1      34.701 -19.439 -21.228  0.00  0.00    +0.022 C 
ATOM     27  C   UNL     1      37.040 -19.348 -20.805  0.00  0.00    +0.113 C 
ATOM     28  C   UNL     1      34.596 -20.438 -20.266  0.00  0.00    +0.073 C 
ATOM     29  C   UNL     1      35.754 -20.838 -19.618  0.00  0.00    +0.103 C 
BRANCH  28  32
ATOM     30  O   UNL     1      32.246 -20.556 -20.362  0.00  0.00    -0.270 OA
ATOM     31  N   UNL     1      33.317 -22.205 -19.183  0.00  0.00    -0.325 N 
ATOM     32  C   UNL     1      33.315 -21.043 -19.951  0.00  0.00    +0.244 C 
ATOM     33  H   UNL     1      32.466 -22.643 -18.950  0.00  0.00    +0.145 HD
ATOM     34  H   UNL     1      34.169 -22.590 -18.874  0.00  0.00    +0.145 HD
ENDBRANCH  28  32
ENDBRANCH  22  25
ENDBRANCH   1  22
TORSDOF 6
ENDMDL
