MODEL 1
REMARK VINA RESULT:     -12.3      0.000      0.000
REMARK  Name = 44123754
REMARK  11 active torsions:
REMARK  status: ('A' for Active; 'I' for Inactive)
REMARK    1  A    between atoms: C_3  and  C_22
REMARK    2  A    between atoms: C_4  and  C_7
REMARK    3  A    between atoms: N_6  and  C_15
REMARK    4  A    between atoms: C_8  and  N_12
REMARK    5  A    between atoms: C_15  and  O_16
REMARK    6  A    between atoms: O_16  and  P_17
REMARK    7  A    between atoms: P_17  and  O_20
REMARK    8  A    between atoms: C_22  and  C_23
REMARK    9  A    between atoms: C_26  and  C_29
REMARK   10  A    between atoms: C_29  and  O_30
REMARK   11  A    between atoms: O_30  and  C_32
REMARK                            x       y       z     vdW  Elec       q    Type
REMARK                         _______ _______ _______ _____ _____    ______ ____
ROOT
ATOM      1  O   UNL     1      33.342 -23.101 -14.471  0.00  0.00    -0.354 OA
ATOM      2  N   UNL     1      32.678 -22.775 -15.648  0.00  0.00    -0.081 NA
ATOM      3  C   UNL     1      33.423 -23.302 -16.622  0.00  0.00    +0.105 C 
ATOM      4  C   UNL     1      34.461 -23.810 -14.769  0.00  0.00    +0.175 C 
ATOM      5  C   UNL     1      34.559 -23.966 -16.126  0.00  0.00    +0.058 C 
ENDROOT
BRANCH   4   7
ATOM      6  N   UNL     1      37.138 -25.320 -12.715  0.00  0.00    -0.266 N 
ATOM      7  C   UNL     1      35.260 -24.222 -13.639  0.00  0.00    +0.048 C 
ATOM      8  C   UNL     1      36.426 -24.958 -13.791  0.00  0.00    +0.156 C 
ATOM      9  C   UNL     1      34.851 -23.873 -12.356  0.00  0.00    +0.003 C 
ATOM     10  C   UNL     1      36.767 -24.997 -11.469  0.00  0.00    +0.064 C 
ATOM     11  C   UNL     1      35.610 -24.262 -11.255  0.00  0.00    +0.016 C 
BRANCH   8  12
ATOM     12  N   UNL     1      36.875 -25.333 -15.076  0.00  0.00    -0.303 NA
ATOM     13  H   UNL     1      37.734 -25.804 -15.179  0.00  0.00    +0.121 HD
ATOM     14  H   UNL     1      36.330 -25.124 -15.868  0.00  0.00    +0.121 HD
ENDBRANCH   8  12
BRANCH   6  15
ATOM     15  C   UNL     1      38.369 -26.097 -12.877  0.00  0.00    +0.251 C 
BRANCH  15  16
ATOM     16  O   UNL     1      39.440 -25.200 -13.139  0.00  0.00    -0.250 OA
BRANCH  16  17
ATOM     17  P   UNL     1      40.584 -25.619 -14.228  0.00  0.00    +0.504 P 
ATOM     18  O   UNL     1      41.306 -26.864 -13.760  0.00  0.00    -0.225 OA
ATOM     19  O   UNL     1      41.362 -24.378 -14.607  0.00  0.00    -0.116 OA
BRANCH  17  20
ATOM     20  O   UNL     1      39.622 -26.018 -15.487  0.00  0.00    -0.301 OA
ATOM     21  H   UNL     1      38.869 -25.407 -15.525  0.00  0.00    +0.222 HD
ENDBRANCH  17  20
ENDBRANCH  16  17
ENDBRANCH  15  16
ENDBRANCH   6  15
ENDBRANCH   4   7
BRANCH   3  22
ATOM     22  C   UNL     1      33.012 -23.148 -18.027  0.00  0.00    +0.075 C 
BRANCH  22  23
ATOM     23  C   UNL     1      33.837 -22.145 -18.823  0.00  0.00    -0.016 C 
ATOM     24  C   UNL     1      35.230 -22.204 -18.788  0.00  0.00    -0.004 C 
ATOM     25  C   UNL     1      33.199 -21.168 -19.588  0.00  0.00    -0.004 C 
ATOM     26  C   UNL     1      35.348 -20.309 -20.282  0.00  0.00    +0.021 C 
ATOM     27  C   UNL     1      35.986 -21.286 -19.517  0.00  0.00    -0.001 C 
ATOM     28  C   UNL     1      33.955 -20.250 -20.317  0.00  0.00    -0.001 C 
BRANCH  26  29
ATOM     29  C   UNL     1      36.156 -19.329 -21.063  0.00  0.00    +0.234 C 
BRANCH  29  30
ATOM     30  O   UNL     1      35.816 -18.008 -20.660  0.00  0.00    -0.455 OA
BRANCH  30  32
ATOM     31  N   UNL     1      34.707 -16.043 -21.202  0.00  0.00    -0.210 NA
ATOM     32  C   UNL     1      35.299 -17.183 -21.624  0.00  0.00    +0.225 C 
ATOM     33  C   UNL     1      35.411 -17.552 -22.955  0.00  0.00    +0.058 C 
ATOM     34  C   UNL     1      34.880 -16.697 -23.915  0.00  0.00    +0.006 C 
ATOM     35  C   UNL     1      34.203 -15.237 -22.163  0.00  0.00    +0.102 C 
ATOM     36  C   UNL     1      34.263 -15.515 -23.519  0.00  0.00    +0.021 C 
ENDBRANCH  30  32
ENDBRANCH  29  30
ENDBRANCH  26  29
ENDBRANCH  22  23
ENDBRANCH   3  22
TORSDOF 11
ENDMDL
MODEL 2
REMARK VINA RESULT:     -12.2      5.510     12.265
REMARK  Name = 44123754
REMARK  11 active torsions:
REMARK  status: ('A' for Active; 'I' for Inactive)
REMARK    1  A    between atoms: C_3  and  C_22
REMARK    2  A    between atoms: C_4  and  C_7
REMARK    3  A    between atoms: N_6  and  C_15
REMARK    4  A    between atoms: C_8  and  N_12
REMARK    5  A    between atoms: C_15  and  O_16
REMARK    6  A    between atoms: O_16  and  P_17
REMARK    7  A    between atoms: P_17  and  O_20
REMARK    8  A    between atoms: C_22  and  C_23
REMARK    9  A    between atoms: C_26  and  C_29
REMARK   10  A    between atoms: C_29  and  O_30
REMARK   11  A    between atoms: O_30  and  C_32
REMARK                            x       y       z     vdW  Elec       q    Type
REMARK                         _______ _______ _______ _____ _____    ______ ____
ROOT
ATOM      1  O   UNL     1      34.872 -15.957 -20.804  0.00  0.00    -0.354 OA
ATOM      2  N   UNL     1      35.334 -17.250 -20.584  0.00  0.00    -0.081 NA
ATOM      3  C   UNL     1      35.267 -17.848 -21.776  0.00  0.00    +0.105 C 
ATOM      4  C   UNL     1      34.543 -15.816 -22.113  0.00  0.00    +0.175 C 
ATOM      5  C   UNL     1      34.775 -16.991 -22.777  0.00  0.00    +0.058 C 
ENDROOT
BRANCH   4   7
ATOM      6  N   UNL     1      32.603 -12.670 -22.176  0.00  0.00    -0.266 N 
ATOM      7  C   UNL     1      34.044 -14.515 -22.495  0.00  0.00    +0.048 C 
ATOM      8  C   UNL     1      33.035 -13.877 -21.787  0.00  0.00    +0.156 C 
ATOM      9  C   UNL     1      34.588 -13.879 -23.606  0.00  0.00    +0.003 C 
ATOM     10  C   UNL     1      33.109 -12.036 -23.242  0.00  0.00    +0.064 C 
ATOM     11  C   UNL     1      34.118 -12.626 -23.988  0.00  0.00    +0.016 C 
BRANCH   8  12
ATOM     12  N   UNL     1      32.457 -14.488 -20.653  0.00  0.00    -0.303 NA
ATOM     13  H   UNL     1      33.007 -15.054 -20.065  0.00  0.00    +0.121 HD
ATOM     14  H   UNL     1      31.504 -14.347 -20.452  0.00  0.00    +0.121 HD
ENDBRANCH   8  12
BRANCH   6  15
ATOM     15  C   UNL     1      31.539 -11.997 -21.427  0.00  0.00    +0.251 C 
BRANCH  15  16
ATOM     16  O   UNL     1      31.999 -11.751 -20.105  0.00  0.00    -0.250 OA
BRANCH  16  17
ATOM     17  P   UNL     1      31.625 -10.336 -19.379  0.00  0.00    +0.504 P 
ATOM     18  O   UNL     1      32.778  -9.889 -18.506  0.00  0.00    -0.225 OA
ATOM     19  O   UNL     1      30.228 -10.444 -18.808  0.00  0.00    -0.116 OA
BRANCH  17  20
ATOM     20  O   UNL     1      31.563  -9.369 -20.694  0.00  0.00    -0.301 OA
ATOM     21  H   UNL     1      31.011  -8.595 -20.500  0.00  0.00    +0.222 HD
ENDBRANCH  17  20
ENDBRANCH  16  17
ENDBRANCH  15  16
ENDBRANCH   6  15
ENDBRANCH   4   7
BRANCH   3  22
ATOM     22  C   UNL     1      35.685 -19.252 -21.918  0.00  0.00    +0.075 C 
BRANCH  22  23
ATOM     23  C   UNL     1      35.185 -20.178 -20.816  0.00  0.00    -0.016 C 
ATOM     24  C   UNL     1      33.817 -20.305 -20.580  0.00  0.00    -0.004 C 
ATOM     25  C   UNL     1      36.097 -20.899 -20.044  0.00  0.00    -0.004 C 
ATOM     26  C   UNL     1      34.270 -21.873 -18.799  0.00  0.00    +0.021 C 
ATOM     27  C   UNL     1      33.359 -21.152 -19.571  0.00  0.00    -0.001 C 
ATOM     28  C   UNL     1      35.638 -21.746 -19.035  0.00  0.00    -0.001 C 
BRANCH  26  29
ATOM     29  C   UNL     1      33.780 -22.781 -17.722  0.00  0.00    +0.234 C 
BRANCH  29  30
ATOM     30  O   UNL     1      32.357 -22.777 -17.712  0.00  0.00    -0.455 OA
BRANCH  30  32
ATOM     31  N   UNL     1      30.401 -22.811 -16.465  0.00  0.00    -0.210 NA
ATOM     32  C   UNL     1      31.748 -22.921 -16.493  0.00  0.00    +0.225 C 
ATOM     33  C   UNL     1      32.530 -23.168 -15.377  0.00  0.00    +0.058 C 
ATOM     34  C   UNL     1      31.889 -23.312 -14.151  0.00  0.00    +0.006 C 
ATOM     35  C   UNL     1      29.812 -22.957 -15.256  0.00  0.00    +0.102 C 
ATOM     36  C   UNL     1      30.504 -23.206 -14.082  0.00  0.00    +0.021 C 
ENDBRANCH  30  32
ENDBRANCH  29  30
ENDBRANCH  26  29
ENDBRANCH  22  23
ENDBRANCH   3  22
TORSDOF 11
ENDMDL
MODEL 3
REMARK VINA RESULT:     -12.2      4.517      6.362
REMARK  Name = 44123754
REMARK  11 active torsions:
REMARK  status: ('A' for Active; 'I' for Inactive)
REMARK    1  A    between atoms: C_3  and  C_22
REMARK    2  A    between atoms: C_4  and  C_7
REMARK    3  A    between atoms: N_6  and  C_15
REMARK    4  A    between atoms: C_8  and  N_12
REMARK    5  A    between atoms: C_15  and  O_16
REMARK    6  A    between atoms: O_16  and  P_17
REMARK    7  A    between atoms: P_17  and  O_20
REMARK    8  A    between atoms: C_22  and  C_23
REMARK    9  A    between atoms: C_26  and  C_29
REMARK   10  A    between atoms: C_29  and  O_30
REMARK   11  A    between atoms: O_30  and  C_32
REMARK                            x       y       z     vdW  Elec       q    Type
REMARK                         _______ _______ _______ _____ _____    ______ ____
ROOT
ATOM      1  O   UNL     1      33.440 -23.460 -18.276  0.00  0.00    -0.354 OA
ATOM      2  N   UNL     1      34.248 -23.105 -19.350  0.00  0.00    -0.081 NA
ATOM      3  C   UNL     1      35.262 -22.425 -18.810  0.00  0.00    +0.105 C 
ATOM      4  C   UNL     1      33.988 -22.985 -17.128  0.00  0.00    +0.175 C 
ATOM      5  C   UNL     1      35.150 -22.319 -17.413  0.00  0.00    +0.058 C 
ENDROOT
BRANCH   4   7
ATOM      6  N   UNL     1      31.268 -23.255 -14.639  0.00  0.00    -0.266 N 
ATOM      7  C   UNL     1      33.255 -23.278 -15.918  0.00  0.00    +0.048 C 
ATOM      8  C   UNL     1      31.910 -22.965 -15.779  0.00  0.00    +0.156 C 
ATOM      9  C   UNL     1      33.913 -23.892 -14.858  0.00  0.00    +0.003 C 
ATOM     10  C   UNL     1      31.878 -23.845 -13.603  0.00  0.00    +0.064 C 
ATOM     11  C   UNL     1      33.221 -24.181 -13.685  0.00  0.00    +0.016 C 
BRANCH   8  12
ATOM     12  N   UNL     1      31.205 -22.341 -16.831  0.00  0.00    -0.303 NA
ATOM     13  H   UNL     1      30.507 -21.677 -16.630  0.00  0.00    +0.121 HD
ATOM     14  H   UNL     1      31.412 -22.572 -17.766  0.00  0.00    +0.121 HD
ENDBRANCH   8  12
BRANCH   6  15
ATOM     15  C   UNL     1      29.848 -22.924 -14.493  0.00  0.00    +0.251 C 
BRANCH  15  16
ATOM     16  O   UNL     1      29.088 -23.833 -15.277  0.00  0.00    -0.250 OA
BRANCH  16  17
ATOM     17  P   UNL     1      27.829 -23.272 -16.155  0.00  0.00    +0.504 P 
ATOM     18  O   UNL     1      26.699 -22.872 -15.231  0.00  0.00    -0.225 OA
ATOM     19  O   UNL     1      27.580 -24.227 -17.301  0.00  0.00    -0.116 OA
BRANCH  17  20
ATOM     20  O   UNL     1      28.509 -21.917 -16.762  0.00  0.00    -0.301 OA
ATOM     21  H   UNL     1      29.471 -22.030 -16.808  0.00  0.00    +0.222 HD
ENDBRANCH  17  20
ENDBRANCH  16  17
ENDBRANCH  15  16
ENDBRANCH   6  15
ENDBRANCH   4   7
BRANCH   3  22
ATOM     22  C   UNL     1      36.328 -21.888 -19.672  0.00  0.00    +0.075 C 
BRANCH  22  23
ATOM     23  C   UNL     1      36.023 -20.528 -20.285  0.00  0.00    -0.016 C 
ATOM     24  C   UNL     1      34.704 -20.162 -20.549  0.00  0.00    -0.004 C 
ATOM     25  C   UNL     1      37.064 -19.647 -20.581  0.00  0.00    -0.004 C 
ATOM     26  C   UNL     1      35.465 -18.036 -21.407  0.00  0.00    +0.021 C 
ATOM     27  C   UNL     1      34.424 -18.917 -21.110  0.00  0.00    -0.001 C 
ATOM     28  C   UNL     1      36.784 -18.401 -21.143  0.00  0.00    -0.001 C 
BRANCH  26  29
ATOM     29  C   UNL     1      35.165 -16.703 -22.004  0.00  0.00    +0.234 C 
BRANCH  29  30
ATOM     30  O   UNL     1      35.259 -16.788 -23.421  0.00  0.00    -0.455 OA
BRANCH  30  32
ATOM     31  N   UNL     1      34.471 -16.064 -25.480  0.00  0.00    -0.210 NA
ATOM     32  C   UNL     1      34.542 -15.871 -24.144  0.00  0.00    +0.225 C 
ATOM     33  C   UNL     1      33.939 -14.816 -23.479  0.00  0.00    +0.058 C 
ATOM     34  C   UNL     1      33.216 -13.898 -24.234  0.00  0.00    +0.006 C 
ATOM     35  C   UNL     1      33.759 -15.153 -26.181  0.00  0.00    +0.102 C 
ATOM     36  C   UNL     1      33.119 -14.064 -25.612  0.00  0.00    +0.021 C 
ENDBRANCH  30  32
ENDBRANCH  29  30
ENDBRANCH  26  29
ENDBRANCH  22  23
ENDBRANCH   3  22
TORSDOF 11
ENDMDL
MODEL 4
REMARK VINA RESULT:     -12.1      5.782     12.628
REMARK  Name = 44123754
REMARK  11 active torsions:
REMARK  status: ('A' for Active; 'I' for Inactive)
REMARK    1  A    between atoms: C_3  and  C_22
REMARK    2  A    between atoms: C_4  and  C_7
REMARK    3  A    between atoms: N_6  and  C_15
REMARK    4  A    between atoms: C_8  and  N_12
REMARK    5  A    between atoms: C_15  and  O_16
REMARK    6  A    between atoms: O_16  and  P_17
REMARK    7  A    between atoms: P_17  and  O_20
REMARK    8  A    between atoms: C_22  and  C_23
REMARK    9  A    between atoms: C_26  and  C_29
REMARK   10  A    between atoms: C_29  and  O_30
REMARK   11  A    between atoms: O_30  and  C_32
REMARK                            x       y       z     vdW  Elec       q    Type
REMARK                         _______ _______ _______ _____ _____    ______ ____
ROOT
ATOM      1  O   UNL     1      34.294 -16.230 -23.105  0.00  0.00    -0.354 OA
ATOM      2  N   UNL     1      35.034 -17.403 -23.189  0.00  0.00    -0.081 NA
ATOM      3  C   UNL     1      35.445 -17.643 -21.941  0.00  0.00    +0.105 C 
ATOM      4  C   UNL     1      34.282 -15.799 -21.817  0.00  0.00    +0.175 C 
ATOM      5  C   UNL     1      35.001 -16.664 -21.036  0.00  0.00    +0.058 C 
ENDROOT
BRANCH   4   7
ATOM      6  N   UNL     1      32.995 -12.346 -22.108  0.00  0.00    -0.266 N 
ATOM      7  C   UNL     1      33.546 -14.580 -21.573  0.00  0.00    +0.048 C 
ATOM      8  C   UNL     1      33.699 -13.456 -22.370  0.00  0.00    +0.156 C 
ATOM      9  C   UNL     1      32.655 -14.529 -20.506  0.00  0.00    +0.003 C 
ATOM     10  C   UNL     1      32.131 -12.269 -21.087  0.00  0.00    +0.064 C 
ATOM     11  C   UNL     1      31.938 -13.362 -20.256  0.00  0.00    +0.016 C 
BRANCH   8  12
ATOM     12  N   UNL     1      34.592 -13.467 -23.463  0.00  0.00    -0.303 NA
ATOM     13  H   UNL     1      34.290 -13.791 -24.343  0.00  0.00    +0.121 HD
ATOM     14  H   UNL     1      35.517 -13.150 -23.346  0.00  0.00    +0.121 HD
ENDBRANCH   8  12
BRANCH   6  15
ATOM     15  C   UNL     1      33.157 -11.159 -22.951  0.00  0.00    +0.251 C 
BRANCH  15  16
ATOM     16  O   UNL     1      32.247 -10.161 -22.510  0.00  0.00    -0.250 OA
BRANCH  16  17
ATOM     17  P   UNL     1      32.677  -8.587 -22.609  0.00  0.00    +0.504 P 
ATOM     18  O   UNL     1      31.519  -7.773 -23.145  0.00  0.00    -0.225 OA
ATOM     19  O   UNL     1      34.040  -8.503 -23.261  0.00  0.00    -0.116 OA
BRANCH  17  20
ATOM     20  O   UNL     1      32.853  -8.257 -21.019  0.00  0.00    -0.301 OA
ATOM     21  H   UNL     1      33.648  -8.701 -20.683  0.00  0.00    +0.222 HD
ENDBRANCH  17  20
ENDBRANCH  16  17
ENDBRANCH  15  16
ENDBRANCH   6  15
ENDBRANCH   4   7
BRANCH   3  22
ATOM     22  C   UNL     1      36.270 -18.828 -21.654  0.00  0.00    +0.075 C 
BRANCH  22  23
ATOM     23  C   UNL     1      35.601 -19.864 -20.760  0.00  0.00    -0.016 C 
ATOM     24  C   UNL     1      34.210 -19.959 -20.723  0.00  0.00    -0.004 C 
ATOM     25  C   UNL     1      36.379 -20.719 -19.979  0.00  0.00    -0.004 C 
ATOM     26  C   UNL     1      34.376 -21.762 -19.123  0.00  0.00    +0.021 C 
ATOM     27  C   UNL     1      33.597 -20.907 -19.904  0.00  0.00    -0.001 C 
ATOM     28  C   UNL     1      35.767 -21.667 -19.161  0.00  0.00    -0.001 C 
BRANCH  26  29
ATOM     29  C   UNL     1      33.720 -22.777 -18.250  0.00  0.00    +0.234 C 
BRANCH  29  30
ATOM     30  O   UNL     1      32.402 -22.348 -17.932  0.00  0.00    -0.455 OA
BRANCH  30  32
ATOM     31  N   UNL     1      30.565 -22.673 -16.553  0.00  0.00    -0.210 NA
ATOM     32  C   UNL     1      31.906 -22.726 -16.712  0.00  0.00    +0.225 C 
ATOM     33  C   UNL     1      32.789 -23.138 -15.727  0.00  0.00    +0.058 C 
ATOM     34  C   UNL     1      32.261 -23.519 -14.498  0.00  0.00    +0.006 C 
ATOM     35  C   UNL     1      30.088 -23.052 -15.346  0.00  0.00    +0.102 C 
ATOM     36  C   UNL     1      30.886 -23.478 -14.296  0.00  0.00    +0.021 C 
ENDBRANCH  30  32
ENDBRANCH  29  30
ENDBRANCH  26  29
ENDBRANCH  22  23
ENDBRANCH   3  22
TORSDOF 11
ENDMDL
MODEL 5
REMARK VINA RESULT:     -12.0      1.530      2.131
REMARK  Name = 44123754
REMARK  11 active torsions:
REMARK  status: ('A' for Active; 'I' for Inactive)
REMARK    1  A    between atoms: C_3  and  C_22
REMARK    2  A    between atoms: C_4  and  C_7
REMARK    3  A    between atoms: N_6  and  C_15
REMARK    4  A    between atoms: C_8  and  N_12
REMARK    5  A    between atoms: C_15  and  O_16
REMARK    6  A    between atoms: O_16  and  P_17
REMARK    7  A    between atoms: P_17  and  O_20
REMARK    8  A    between atoms: C_22  and  C_23
REMARK    9  A    between atoms: C_26  and  C_29
REMARK   10  A    between atoms: C_29  and  O_30
REMARK   11  A    between atoms: O_30  and  C_32
REMARK                            x       y       z     vdW  Elec       q    Type
REMARK                         _______ _______ _______ _____ _____    ______ ____
ROOT
ATOM      1  O   UNL     1      36.353 -22.515 -16.112  0.00  0.00    -0.354 OA
ATOM      2  N   UNL     1      35.904 -22.034 -17.336  0.00  0.00    -0.081 NA
ATOM      3  C   UNL     1      34.722 -22.626 -17.527  0.00  0.00    +0.105 C 
ATOM      4  C   UNL     1      35.435 -23.378 -15.605  0.00  0.00    +0.175 C 
ATOM      5  C   UNL     1      34.377 -23.484 -16.468  0.00  0.00    +0.058 C 
ENDROOT
BRANCH   4   7
ATOM      6  N   UNL     1      37.315 -24.927 -12.824  0.00  0.00    -0.266 N 
ATOM      7  C   UNL     1      35.766 -23.963 -14.327  0.00  0.00    +0.048 C 
ATOM      8  C   UNL     1      37.051 -24.390 -14.023  0.00  0.00    +0.156 C 
ATOM      9  C   UNL     1      34.769 -24.105 -13.367  0.00  0.00    +0.003 C 
ATOM     10  C   UNL     1      36.374 -25.075 -11.883  0.00  0.00    +0.064 C 
ATOM     11  C   UNL     1      35.072 -24.667 -12.130  0.00  0.00    +0.016 C 
BRANCH   8  12
ATOM     12  N   UNL     1      38.092 -24.263 -14.969  0.00  0.00    -0.303 NA
ATOM     13  H   UNL     1      38.913 -24.798 -14.872  0.00  0.00    +0.121 HD
ATOM     14  H   UNL     1      37.996 -23.640 -15.725  0.00  0.00    +0.121 HD
ENDBRANCH   8  12
BRANCH   6  15
ATOM     15  C   UNL     1      38.672 -25.376 -12.505  0.00  0.00    +0.251 C 
BRANCH  15  16
ATOM     16  O   UNL     1      39.088 -26.305 -13.497  0.00  0.00    -0.250 OA
BRANCH  16  17
ATOM     17  P   UNL     1      40.593 -26.187 -14.121  0.00  0.00    +0.504 P 
ATOM     18  O   UNL     1      40.521 -26.160 -15.632  0.00  0.00    -0.225 OA
ATOM     19  O   UNL     1      41.485 -27.185 -13.414  0.00  0.00    -0.116 OA
BRANCH  17  20
ATOM     20  O   UNL     1      40.986 -24.692 -13.592  0.00  0.00    -0.301 OA
ATOM     21  H   UNL     1      41.439 -24.207 -14.300  0.00  0.00    +0.222 HD
ENDBRANCH  17  20
ENDBRANCH  16  17
ENDBRANCH  15  16
ENDBRANCH   6  15
ENDBRANCH   4   7
BRANCH   3  22
ATOM     22  C   UNL     1      33.947 -22.343 -18.747  0.00  0.00    +0.075 C 
BRANCH  22  23
ATOM     23  C   UNL     1      34.528 -21.243 -19.626  0.00  0.00    -0.016 C 
ATOM     24  C   UNL     1      33.677 -20.344 -20.269  0.00  0.00    -0.004 C 
ATOM     25  C   UNL     1      35.909 -21.133 -19.786  0.00  0.00    -0.004 C 
ATOM     26  C   UNL     1      35.590 -19.227 -21.234  0.00  0.00    +0.021 C 
ATOM     27  C   UNL     1      34.208 -19.336 -21.074  0.00  0.00    -0.001 C 
ATOM     28  C   UNL     1      36.440 -20.125 -20.590  0.00  0.00    -0.001 C 
BRANCH  26  29
ATOM     29  C   UNL     1      36.157 -18.147 -22.093  0.00  0.00    +0.234 C 
BRANCH  29  30
ATOM     30  O   UNL     1      35.493 -18.145 -23.350  0.00  0.00    -0.455 OA
BRANCH  30  32
ATOM     31  N   UNL     1      34.710 -16.800 -25.071  0.00  0.00    -0.210 NA
ATOM     32  C   UNL     1      34.924 -16.963 -23.746  0.00  0.00    +0.225 C 
ATOM     33  C   UNL     1      34.602 -16.018 -22.786  0.00  0.00    +0.058 C 
ATOM     34  C   UNL     1      34.024 -14.827 -23.212  0.00  0.00    +0.006 C 
ATOM     35  C   UNL     1      34.146 -15.630 -25.448  0.00  0.00    +0.102 C 
ATOM     36  C   UNL     1      33.788 -14.622 -24.567  0.00  0.00    +0.021 C 
ENDBRANCH  30  32
ENDBRANCH  29  30
ENDBRANCH  26  29
ENDBRANCH  22  23
ENDBRANCH   3  22
TORSDOF 11
ENDMDL
MODEL 6
REMARK VINA RESULT:     -11.8      3.059      5.914
REMARK  Name = 44123754
REMARK  11 active torsions:
REMARK  status: ('A' for Active; 'I' for Inactive)
REMARK    1  A    between atoms: C_3  and  C_22
REMARK    2  A    between atoms: C_4  and  C_7
REMARK    3  A    between atoms: N_6  and  C_15
REMARK    4  A    between atoms: C_8  and  N_12
REMARK    5  A    between atoms: C_15  and  O_16
REMARK    6  A    between atoms: O_16  and  P_17
REMARK    7  A    between atoms: P_17  and  O_20
REMARK    8  A    between atoms: C_22  and  C_23
REMARK    9  A    between atoms: C_26  and  C_29
REMARK   10  A    between atoms: C_29  and  O_30
REMARK   11  A    between atoms: O_30  and  C_32
REMARK                            x       y       z     vdW  Elec       q    Type
REMARK                         _______ _______ _______ _____ _____    ______ ____
ROOT
ATOM      1  O   UNL     1      36.550 -20.154 -19.595  0.00  0.00    -0.354 OA
ATOM      2  N   UNL     1      36.812 -19.370 -20.712  0.00  0.00    -0.081 NA
ATOM      3  C   UNL     1      35.757 -19.545 -21.513  0.00  0.00    +0.105 C 
ATOM      4  C   UNL     1      35.353 -20.775 -19.754  0.00  0.00    +0.175 C 
ATOM      5  C   UNL     1      34.807 -20.420 -20.959  0.00  0.00    +0.058 C 
ENDROOT
BRANCH   4   7
ATOM      6  N   UNL     1      35.380 -22.760 -16.636  0.00  0.00    -0.266 N 
ATOM      7  C   UNL     1      34.943 -21.631 -18.665  0.00  0.00    +0.048 C 
ATOM      8  C   UNL     1      35.802 -21.963 -17.627  0.00  0.00    +0.156 C 
ATOM      9  C   UNL     1      33.648 -22.139 -18.652  0.00  0.00    +0.003 C 
ATOM     10  C   UNL     1      34.139 -23.263 -16.599  0.00  0.00    +0.064 C 
ATOM     11  C   UNL     1      33.238 -22.965 -17.610  0.00  0.00    +0.016 C 
BRANCH   8  12
ATOM     12  N   UNL     1      37.124 -21.468 -17.603  0.00  0.00    -0.303 NA
ATOM     13  H   UNL     1      37.849 -22.019 -17.227  0.00  0.00    +0.121 HD
ATOM     14  H   UNL     1      37.320 -20.573 -17.961  0.00  0.00    +0.121 HD
ENDBRANCH   8  12
BRANCH   6  15
ATOM     15  C   UNL     1      36.288 -23.110 -15.541  0.00  0.00    +0.251 C 
BRANCH  15  16
ATOM     16  O   UNL     1      36.159 -24.499 -15.271  0.00  0.00    -0.250 OA
BRANCH  16  17
ATOM     17  P   UNL     1      37.327 -25.259 -14.417  0.00  0.00    +0.504 P 
ATOM     18  O   UNL     1      36.755 -25.775 -13.114  0.00  0.00    -0.225 OA
ATOM     19  O   UNL     1      38.565 -24.390 -14.420  0.00  0.00    -0.116 OA
BRANCH  17  20
ATOM     20  O   UNL     1      37.597 -26.531 -15.405  0.00  0.00    -0.301 OA
ATOM     21  H   UNL     1      37.253 -27.340 -14.994  0.00  0.00    +0.222 HD
ENDBRANCH  17  20
ENDBRANCH  16  17
ENDBRANCH  15  16
ENDBRANCH   6  15
ENDBRANCH   4   7
BRANCH   3  22
ATOM     22  C   UNL     1      35.696 -18.851 -22.809  0.00  0.00    +0.075 C 
BRANCH  22  23
ATOM     23  C   UNL     1      35.185 -17.418 -22.738  0.00  0.00    -0.016 C 
ATOM     24  C   UNL     1      34.953 -16.701 -23.912  0.00  0.00    -0.004 C 
ATOM     25  C   UNL     1      34.950 -16.821 -21.499  0.00  0.00    -0.004 C 
ATOM     26  C   UNL     1      34.251 -14.793 -22.609  0.00  0.00    +0.021 C 
ATOM     27  C   UNL     1      34.486 -15.389 -23.848  0.00  0.00    -0.001 C 
ATOM     28  C   UNL     1      34.483 -15.509 -21.435  0.00  0.00    -0.001 C 
BRANCH  26  29
ATOM     29  C   UNL     1      33.749 -13.390 -22.540  0.00  0.00    +0.234 C 
BRANCH  29  30
ATOM     30  O   UNL     1      32.445 -13.382 -21.970  0.00  0.00    -0.455 OA
BRANCH  30  32
ATOM     31  N   UNL     1      32.018 -11.105 -21.848  0.00  0.00    -0.210 NA
ATOM     32  C   UNL     1      32.111 -12.292 -21.209  0.00  0.00    +0.225 C 
ATOM     33  C   UNL     1      31.889 -12.463 -19.852  0.00  0.00    +0.058 C 
ATOM     34  C   UNL     1      31.549 -11.343 -19.102  0.00  0.00    +0.006 C 
ATOM     35  C   UNL     1      31.685 -10.038 -21.087  0.00  0.00    +0.102 C 
ATOM     36  C   UNL     1      31.443 -10.103 -19.724  0.00  0.00    +0.021 C 
ENDBRANCH  30  32
ENDBRANCH  29  30
ENDBRANCH  26  29
ENDBRANCH  22  23
ENDBRANCH   3  22
TORSDOF 11
ENDMDL
MODEL 7
REMARK VINA RESULT:     -11.7      4.271      6.890
REMARK  Name = 44123754
REMARK  11 active torsions:
REMARK  status: ('A' for Active; 'I' for Inactive)
REMARK    1  A    between atoms: C_3  and  C_22
REMARK    2  A    between atoms: C_4  and  C_7
REMARK    3  A    between atoms: N_6  and  C_15
REMARK    4  A    between atoms: C_8  and  N_12
REMARK    5  A    between atoms: C_15  and  O_16
REMARK    6  A    between atoms: O_16  and  P_17
REMARK    7  A    between atoms: P_17  and  O_20
REMARK    8  A    between atoms: C_22  and  C_23
REMARK    9  A    between atoms: C_26  and  C_29
REMARK   10  A    between atoms: C_29  and  O_30
REMARK   11  A    between atoms: O_30  and  C_32
REMARK                            x       y       z     vdW  Elec       q    Type
REMARK                         _______ _______ _______ _____ _____    ______ ____
ROOT
ATOM      1  O   UNL     1      33.965 -20.695 -20.043  0.00  0.00    -0.354 OA
ATOM      2  N   UNL     1      34.007 -19.934 -21.205  0.00  0.00    -0.081 NA
ATOM      3  C   UNL     1      35.306 -19.719 -21.430  0.00  0.00    +0.105 C 
ATOM      4  C   UNL     1      35.231 -20.914 -19.604  0.00  0.00    +0.175 C 
ATOM      5  C   UNL     1      36.123 -20.314 -20.453  0.00  0.00    +0.058 C 
ENDROOT
BRANCH   4   7
ATOM      6  N   UNL     1      34.441 -23.157 -16.774  0.00  0.00    -0.266 N 
ATOM      7  C   UNL     1      35.348 -21.698 -18.396  0.00  0.00    +0.048 C 
ATOM      8  C   UNL     1      34.289 -22.443 -17.898  0.00  0.00    +0.156 C 
ATOM      9  C   UNL     1      36.557 -21.707 -17.708  0.00  0.00    +0.003 C 
ATOM     10  C   UNL     1      35.594 -23.183 -16.091  0.00  0.00    +0.064 C 
ATOM     11  C   UNL     1      36.686 -22.456 -16.542  0.00  0.00    +0.016 C 
BRANCH   8  12
ATOM     12  N   UNL     1      33.046 -22.461 -18.567  0.00  0.00    -0.303 NA
ATOM     13  H   UNL     1      32.217 -22.617 -18.059  0.00  0.00    +0.121 HD
ATOM     14  H   UNL     1      33.009 -22.318 -19.540  0.00  0.00    +0.121 HD
ENDBRANCH   8  12
BRANCH   6  15
ATOM     15  C   UNL     1      33.323 -23.944 -16.249  0.00  0.00    +0.251 C 
BRANCH  15  16
ATOM     16  O   UNL     1      32.457 -23.079 -15.528  0.00  0.00    -0.250 OA
BRANCH  16  17
ATOM     17  P   UNL     1      30.840 -23.269 -15.668  0.00  0.00    +0.504 P 
ATOM     18  O   UNL     1      30.489 -24.739 -15.593  0.00  0.00    -0.225 OA
ATOM     19  O   UNL     1      30.356 -22.423 -16.825  0.00  0.00    -0.116 OA
BRANCH  17  20
ATOM     20  O   UNL     1      30.365 -22.550 -14.280  0.00  0.00    -0.301 OA
ATOM     21  H   UNL     1      29.748 -21.829 -14.484  0.00  0.00    +0.222 HD
ENDBRANCH  17  20
ENDBRANCH  16  17
ENDBRANCH  15  16
ENDBRANCH   6  15
ENDBRANCH   4   7
BRANCH   3  22
ATOM     22  C   UNL     1      35.729 -18.932 -22.601  0.00  0.00    +0.075 C 
BRANCH  22  23
ATOM     23  C   UNL     1      35.183 -17.510 -22.639  0.00  0.00    -0.016 C 
ATOM     24  C   UNL     1      34.877 -16.914 -23.863  0.00  0.00    -0.004 C 
ATOM     25  C   UNL     1      34.989 -16.805 -21.452  0.00  0.00    -0.004 C 
ATOM     26  C   UNL     1      34.184 -14.907 -22.711  0.00  0.00    +0.021 C 
ATOM     27  C   UNL     1      34.378 -15.613 -23.899  0.00  0.00    -0.001 C 
ATOM     28  C   UNL     1      34.490 -15.503 -21.488  0.00  0.00    -0.001 C 
BRANCH  26  29
ATOM     29  C   UNL     1      33.648 -13.516 -22.750  0.00  0.00    +0.234 C 
BRANCH  29  30
ATOM     30  O   UNL     1      32.385 -13.478 -22.097  0.00  0.00    -0.455 OA
BRANCH  30  32
ATOM     31  N   UNL     1      32.104 -11.177 -21.997  0.00  0.00    -0.210 NA
ATOM     32  C   UNL     1      32.110 -12.364 -21.349  0.00  0.00    +0.225 C 
ATOM     33  C   UNL     1      31.854 -12.510 -19.995  0.00  0.00    +0.058 C 
ATOM     34  C   UNL     1      31.576 -11.363 -19.258  0.00  0.00    +0.006 C 
ATOM     35  C   UNL     1      31.828 -10.086 -21.249  0.00  0.00    +0.102 C 
ATOM     36  C   UNL     1      31.560 -10.124 -19.890  0.00  0.00    +0.021 C 
ENDBRANCH  30  32
ENDBRANCH  29  30
ENDBRANCH  26  29
ENDBRANCH  22  23
ENDBRANCH   3  22
TORSDOF 11
ENDMDL
MODEL 8
REMARK VINA RESULT:     -11.5      2.778      4.032
REMARK  Name = 44123754
REMARK  11 active torsions:
REMARK  status: ('A' for Active; 'I' for Inactive)
REMARK    1  A    between atoms: C_3  and  C_22
REMARK    2  A    between atoms: C_4  and  C_7
REMARK    3  A    between atoms: N_6  and  C_15
REMARK    4  A    between atoms: C_8  and  N_12
REMARK    5  A    between atoms: C_15  and  O_16
REMARK    6  A    between atoms: O_16  and  P_17
REMARK    7  A    between atoms: P_17  and  O_20
REMARK    8  A    between atoms: C_22  and  C_23
REMARK    9  A    between atoms: C_26  and  C_29
REMARK   10  A    between atoms: C_29  and  O_30
REMARK   11  A    between atoms: O_30  and  C_32
REMARK                            x       y       z     vdW  Elec       q    Type
REMARK                         _______ _______ _______ _____ _____    ______ ____
ROOT
ATOM      1  O   UNL     1      35.872 -22.033 -16.290  0.00  0.00    -0.354 OA
ATOM      2  N   UNL     1      36.577 -21.686 -17.436  0.00  0.00    -0.081 NA
ATOM      3  C   UNL     1      35.830 -22.131 -18.450  0.00  0.00    +0.105 C 
ATOM      4  C   UNL     1      34.728 -22.674 -16.644  0.00  0.00    +0.175 C 
ATOM      5  C   UNL     1      34.654 -22.762 -18.009  0.00  0.00    +0.058 C 
ENDROOT
BRANCH   4   7
ATOM      6  N   UNL     1      33.585 -24.075 -13.420  0.00  0.00    -0.266 N 
ATOM      7  C   UNL     1      33.885 -23.098 -15.551  0.00  0.00    +0.048 C 
ATOM      8  C   UNL     1      34.404 -23.697 -14.412  0.00  0.00    +0.156 C 
ATOM      9  C   UNL     1      32.511 -22.903 -15.639  0.00  0.00    +0.003 C 
ATOM     10  C   UNL     1      32.258 -23.899 -13.479  0.00  0.00    +0.064 C 
ATOM     11  C   UNL     1      31.684 -23.307 -14.594  0.00  0.00    +0.016 C 
BRANCH   8  12
ATOM     12  N   UNL     1      35.793 -23.912 -14.283  0.00  0.00    -0.303 NA
ATOM     13  H   UNL     1      36.164 -24.237 -13.430  0.00  0.00    +0.121 HD
ATOM     14  H   UNL     1      36.390 -23.738 -15.045  0.00  0.00    +0.121 HD
ENDBRANCH   8  12
BRANCH   6  15
ATOM     15  C   UNL     1      34.133 -24.706 -12.217  0.00  0.00    +0.251 C 
BRANCH  15  16
ATOM     16  O   UNL     1      34.994 -23.779 -11.570  0.00  0.00    -0.250 OA
BRANCH  16  17
ATOM     17  P   UNL     1      36.228 -24.337 -10.656  0.00  0.00    +0.504 P 
ATOM     18  O   UNL     1      37.250 -23.240 -10.451  0.00  0.00    -0.225 OA
ATOM     19  O   UNL     1      36.650 -25.687 -11.194  0.00  0.00    -0.116 OA
BRANCH  17  20
ATOM     20  O   UNL     1      35.433 -24.577  -9.250  0.00  0.00    -0.301 OA
ATOM     21  H   UNL     1      35.945 -25.180  -8.688  0.00  0.00    +0.222 HD
ENDBRANCH  17  20
ENDBRANCH  16  17
ENDBRANCH  15  16
ENDBRANCH   6  15
ENDBRANCH   4   7
BRANCH   3  22
ATOM     22  C   UNL     1      36.281 -21.933 -19.837  0.00  0.00    +0.075 C 
BRANCH  22  23
ATOM     23  C   UNL     1      36.002 -20.546 -20.402  0.00  0.00    -0.016 C 
ATOM     24  C   UNL     1      34.691 -20.148 -20.658  0.00  0.00    -0.004 C 
ATOM     25  C   UNL     1      37.060 -19.673 -20.662  0.00  0.00    -0.004 C 
ATOM     26  C   UNL     1      35.492 -18.005 -21.435  0.00  0.00    +0.021 C 
ATOM     27  C   UNL     1      34.435 -18.878 -21.175  0.00  0.00    -0.001 C 
ATOM     28  C   UNL     1      36.804 -18.403 -21.179  0.00  0.00    -0.001 C 
BRANCH  26  29
ATOM     29  C   UNL     1      35.219 -16.646 -21.985  0.00  0.00    +0.234 C 
BRANCH  29  30
ATOM     30  O   UNL     1      35.324 -16.681 -23.403  0.00  0.00    -0.455 OA
BRANCH  30  32
ATOM     31  N   UNL     1      34.451 -15.968 -25.432  0.00  0.00    -0.210 NA
ATOM     32  C   UNL     1      34.574 -15.769 -24.100  0.00  0.00    +0.225 C 
ATOM     33  C   UNL     1      33.993 -14.715 -23.415  0.00  0.00    +0.058 C 
ATOM     34  C   UNL     1      33.236 -13.804 -24.144  0.00  0.00    +0.006 C 
ATOM     35  C   UNL     1      33.707 -15.063 -26.107  0.00  0.00    +0.102 C 
ATOM     36  C   UNL     1      33.085 -13.974 -25.516  0.00  0.00    +0.021 C 
ENDBRANCH  30  32
ENDBRANCH  29  30
ENDBRANCH  26  29
ENDBRANCH  22  23
ENDBRANCH   3  22
TORSDOF 11
ENDMDL
MODEL 9
REMARK VINA RESULT:     -11.4      4.859     11.571
REMARK  Name = 44123754
REMARK  11 active torsions:
REMARK  status: ('A' for Active; 'I' for Inactive)
REMARK    1  A    between atoms: C_3  and  C_22
REMARK    2  A    between atoms: C_4  and  C_7
REMARK    3  A    between atoms: N_6  and  C_15
REMARK    4  A    between atoms: C_8  and  N_12
REMARK    5  A    between atoms: C_15  and  O_16
REMARK    6  A    between atoms: O_16  and  P_17
REMARK    7  A    between atoms: P_17  and  O_20
REMARK    8  A    between atoms: C_22  and  C_23
REMARK    9  A    between atoms: C_26  and  C_29
REMARK   10  A    between atoms: C_29  and  O_30
REMARK   11  A    between atoms: O_30  and  C_32
REMARK                            x       y       z     vdW  Elec       q    Type
REMARK                         _______ _______ _______ _____ _____    ______ ____
ROOT
ATOM      1  O   UNL     1      36.447 -17.679 -20.678  0.00  0.00    -0.354 OA
ATOM      2  N   UNL     1      36.897 -18.979 -20.485  0.00  0.00    -0.081 NA
ATOM      3  C   UNL     1      35.823 -19.750 -20.680  0.00  0.00    +0.105 C 
ATOM      4  C   UNL     1      35.123 -17.703 -20.981  0.00  0.00    +0.175 C 
ATOM      5  C   UNL     1      34.678 -18.998 -20.996  0.00  0.00    +0.058 C 
ENDROOT
BRANCH   4   7
ATOM      6  N   UNL     1      34.191 -14.474 -22.520  0.00  0.00    -0.266 N 
ATOM      7  C   UNL     1      34.511 -16.415 -21.211  0.00  0.00    +0.048 C 
ATOM      8  C   UNL     1      34.782 -15.664 -22.346  0.00  0.00    +0.156 C 
ATOM      9  C   UNL     1      33.621 -15.909 -20.269  0.00  0.00    +0.003 C 
ATOM     10  C   UNL     1      33.331 -13.963 -21.629  0.00  0.00    +0.064 C 
ATOM     11  C   UNL     1      33.022 -14.670 -20.476  0.00  0.00    +0.016 C 
BRANCH   8  12
ATOM     12  N   UNL     1      35.679 -16.142 -23.326  0.00  0.00    -0.303 NA
ATOM     13  H   UNL     1      36.646 -15.982 -23.228  0.00  0.00    +0.121 HD
ATOM     14  H   UNL     1      35.337 -16.633 -24.107  0.00  0.00    +0.121 HD
ENDBRANCH   8  12
BRANCH   6  15
ATOM     15  C   UNL     1      34.477 -13.682 -23.718  0.00  0.00    +0.251 C 
BRANCH  15  16
ATOM     16  O   UNL     1      33.363 -13.765 -24.595  0.00  0.00    -0.250 OA
BRANCH  16  17
ATOM     17  P   UNL     1      33.554 -14.445 -26.069  0.00  0.00    +0.504 P 
ATOM     18  O   UNL     1      34.260 -15.776 -25.930  0.00  0.00    -0.225 OA
ATOM     19  O   UNL     1      34.082 -13.392 -27.018  0.00  0.00    -0.116 OA
BRANCH  17  20
ATOM     20  O   UNL     1      31.988 -14.723 -26.441  0.00  0.00    -0.301 OA
ATOM     21  H   UNL     1      31.494 -13.890 -26.403  0.00  0.00    +0.222 HD
ENDBRANCH  17  20
ENDBRANCH  16  17
ENDBRANCH  15  16
ENDBRANCH   6  15
ENDBRANCH   4   7
BRANCH   3  22
ATOM     22  C   UNL     1      35.935 -21.212 -20.554  0.00  0.00    +0.075 C 
BRANCH  22  23
ATOM     23  C   UNL     1      35.466 -21.771 -19.216  0.00  0.00    -0.016 C 
ATOM     24  C   UNL     1      36.362 -21.877 -18.152  0.00  0.00    -0.004 C 
ATOM     25  C   UNL     1      34.140 -22.175 -19.055  0.00  0.00    -0.004 C 
ATOM     26  C   UNL     1      34.607 -22.793 -16.767  0.00  0.00    +0.021 C 
ATOM     27  C   UNL     1      35.933 -22.389 -16.928  0.00  0.00    -0.001 C 
ATOM     28  C   UNL     1      33.712 -22.687 -17.831  0.00  0.00    -0.001 C 
BRANCH  26  29
ATOM     29  C   UNL     1      34.148 -23.337 -15.457  0.00  0.00    +0.234 C 
BRANCH  29  30
ATOM     30  O   UNL     1      32.909 -22.736 -15.103  0.00  0.00    -0.455 OA
BRANCH  30  32
ATOM     31  N   UNL     1      32.028 -24.470 -13.838  0.00  0.00    -0.210 NA
ATOM     32  C   UNL     1      31.863 -23.583 -14.845  0.00  0.00    +0.225 C 
ATOM     33  C   UNL     1      30.714 -23.485 -15.613  0.00  0.00    +0.058 C 
ATOM     34  C   UNL     1      29.666 -24.355 -15.331  0.00  0.00    +0.006 C 
ATOM     35  C   UNL     1      30.987 -25.298 -13.592  0.00  0.00    +0.102 C 
ATOM     36  C   UNL     1      29.798 -25.281 -14.302  0.00  0.00    +0.021 C 
ENDBRANCH  30  32
ENDBRANCH  29  30
ENDBRANCH  26  29
ENDBRANCH  22  23
ENDBRANCH   3  22
TORSDOF 11
ENDMDL
