MODEL 1
REMARK VINA RESULT:     -12.8      0.000      0.000
REMARK  Name = 46937081
REMARK  6 active torsions:
REMARK  status: ('A' for Active; 'I' for Inactive)
REMARK    1  A    between atoms: N_1  and  C_10
REMARK    2  A    between atoms: C_4  and  C_16
REMARK    3  A    between atoms: C_9  and  C_31
REMARK    4  A    between atoms: C_16  and  C_17
REMARK    5  A    between atoms: C_18  and  N_23
REMARK    6  A    between atoms: C_31  and  N_32
REMARK                            x       y       z     vdW  Elec       q    Type
REMARK                         _______ _______ _______ _____ _____    ______ ____
ROOT
ATOM      1  N   UNL     1      34.175 -23.423 -15.376  0.00  0.00    -0.267 N 
ATOM      2  N   UNL     1      35.244 -23.632 -13.224  0.00  0.00    -0.341 NA
ATOM      3  N   UNL     1      37.613 -23.074 -13.282  0.00  0.00    -0.188 NA
ATOM      4  C   UNL     1      34.553 -23.065 -16.643  0.00  0.00    +0.035 C 
ATOM      5  C   UNL     1      35.257 -23.351 -14.538  0.00  0.00    +0.199 C 
ATOM      6  C   UNL     1      36.351 -22.938 -15.288  0.00  0.00    +0.066 C 
ATOM      7  C   UNL     1      35.896 -22.759 -16.620  0.00  0.00    +0.016 C 
ATOM      8  C   UNL     1      37.561 -22.804 -14.607  0.00  0.00    +0.114 C 
ATOM      9  C   UNL     1      36.467 -23.466 -12.681  0.00  0.00    +0.042 C 
ENDROOT
BRANCH   1  10
ATOM     10  C   UNL     1      32.776 -23.836 -14.956  0.00  0.00    +0.079 C 
ATOM     11  C   UNL     1      32.800 -24.846 -13.796  0.00  0.00    +0.020 C 
ATOM     12  C   UNL     1      31.899 -22.621 -14.610  0.00  0.00    +0.020 C 
ATOM     13  C   UNL     1      31.387 -25.264 -13.389  0.00  0.00    +0.002 C 
ATOM     14  C   UNL     1      30.490 -23.046 -14.200  0.00  0.00    +0.002 C 
ATOM     15  C   UNL     1      30.518 -24.055 -13.054  0.00  0.00    +0.000 C 
ENDBRANCH   1  10
BRANCH   4  16
ATOM     16  C   UNL     1      33.574 -23.044 -17.802  0.00  0.00    +0.068 C 
BRANCH  16  17
ATOM     17  C   UNL     1      33.859 -21.987 -18.815  0.00  0.00    -0.016 C 
ATOM     18  C   UNL     1      34.391 -20.011 -20.711  0.00  0.00    +0.048 C 
ATOM     19  C   UNL     1      35.162 -21.793 -19.273  0.00  0.00    -0.003 C 
ATOM     20  C   UNL     1      32.822 -21.193 -19.304  0.00  0.00    -0.003 C 
ATOM     21  C   UNL     1      35.428 -20.805 -20.221  0.00  0.00    +0.014 C 
ATOM     22  C   UNL     1      33.088 -20.204 -20.252  0.00  0.00    +0.014 C 
BRANCH  18  23
ATOM     23  N   UNL     1      34.658 -19.019 -21.661  0.00  0.00    -0.312 N 
ATOM     24  N   UNL     1      35.453 -17.027 -23.547  0.00  0.00    +0.388 N 
ATOM     25  C   UNL     1      34.996 -19.402 -23.036  0.00  0.00    +0.068 C 
ATOM     26  C   UNL     1      35.234 -17.753 -21.195  0.00  0.00    +0.068 C 
ATOM     27  C   UNL     1      34.980 -16.639 -22.213  0.00  0.00    -0.056 C 
ATOM     28  C   UNL     1      34.750 -18.235 -23.995  0.00  0.00    -0.056 C 
ATOM     29  C   UNL     1      35.254 -15.935 -24.499  0.00  0.00    -0.101 C 
ATOM     30  H   UNL     1      36.452 -17.227 -23.497  0.00  0.00    -0.080 HD
ENDBRANCH  18  23
ENDBRANCH  16  17
ENDBRANCH   4  16
BRANCH   9  31
ATOM     31  C   UNL     1      36.571 -23.753 -11.219  0.00  0.00    +0.030 C 
BRANCH  31  32
ATOM     32  N   UNL     1      37.929 -24.124 -10.821  0.00  0.00    +0.390 N 
ATOM     33  H   UNL     1      37.988 -25.138 -10.720  0.00  0.00    -0.088 HD
ATOM     34  H   UNL     1      38.156 -23.680  -9.932  0.00  0.00    -0.088 HD
ATOM     35  H   UNL     1      38.589 -23.815 -11.535  0.00  0.00    -0.088 HD
ENDBRANCH  31  32
ENDBRANCH   9  31
TORSDOF 6
ENDMDL
MODEL 2
REMARK VINA RESULT:     -11.6      1.869      3.925
REMARK  Name = 46937081
REMARK  6 active torsions:
REMARK  status: ('A' for Active; 'I' for Inactive)
REMARK    1  A    between atoms: N_1  and  C_10
REMARK    2  A    between atoms: C_4  and  C_16
REMARK    3  A    between atoms: C_9  and  C_31
REMARK    4  A    between atoms: C_16  and  C_17
REMARK    5  A    between atoms: C_18  and  N_23
REMARK    6  A    between atoms: C_31  and  N_32
REMARK                            x       y       z     vdW  Elec       q    Type
REMARK                         _______ _______ _______ _____ _____    ______ ____
ROOT
ATOM      1  N   UNL     1      34.225 -23.261 -16.345  0.00  0.00    -0.267 N 
ATOM      2  N   UNL     1      32.830 -23.687 -14.423  0.00  0.00    -0.341 NA
ATOM      3  N   UNL     1      30.479 -23.207 -14.832  0.00  0.00    -0.188 NA
ATOM      4  C   UNL     1      34.042 -22.815 -17.627  0.00  0.00    +0.035 C 
ATOM      5  C   UNL     1      33.019 -23.297 -15.696  0.00  0.00    +0.199 C 
ATOM      6  C   UNL     1      32.043 -22.863 -16.584  0.00  0.00    +0.066 C 
ATOM      7  C   UNL     1      32.700 -22.559 -17.805  0.00  0.00    +0.016 C 
ATOM      8  C   UNL     1      30.734 -22.826 -16.106  0.00  0.00    +0.114 C 
ATOM      9  C   UNL     1      31.528 -23.608 -14.080  0.00  0.00    +0.042 C 
ENDROOT
BRANCH   1  10
ATOM     10  C   UNL     1      35.555 -23.657 -15.730  0.00  0.00    +0.079 C 
ATOM     11  C   UNL     1      36.079 -22.586 -14.757  0.00  0.00    +0.020 C 
ATOM     12  C   UNL     1      35.484 -25.034 -15.046  0.00  0.00    +0.020 C 
ATOM     13  C   UNL     1      37.423 -22.990 -14.152  0.00  0.00    +0.002 C 
ATOM     14  C   UNL     1      36.829 -25.427 -14.440  0.00  0.00    +0.002 C 
ATOM     15  C   UNL     1      37.350 -24.359 -13.483  0.00  0.00    +0.000 C 
ENDBRANCH   1  10
BRANCH   4  16
ATOM     16  C   UNL     1      35.194 -22.665 -18.602  0.00  0.00    +0.068 C 
BRANCH  16  17
ATOM     17  C   UNL     1      35.124 -21.432 -19.438  0.00  0.00    -0.016 C 
ATOM     18  C   UNL     1      34.992 -19.126 -21.003  0.00  0.00    +0.048 C 
ATOM     19  C   UNL     1      36.297 -20.790 -19.834  0.00  0.00    -0.003 C 
ATOM     20  C   UNL     1      33.885 -20.922 -19.824  0.00  0.00    -0.003 C 
ATOM     21  C   UNL     1      36.231 -19.638 -20.617  0.00  0.00    +0.014 C 
ATOM     22  C   UNL     1      33.818 -19.769 -20.606  0.00  0.00    +0.014 C 
BRANCH  18  23
ATOM     23  N   UNL     1      34.925 -17.970 -21.787  0.00  0.00    -0.312 N 
ATOM     24  N   UNL     1      35.032 -15.558 -23.314  0.00  0.00    +0.388 N 
ATOM     25  C   UNL     1      35.441 -17.992 -23.160  0.00  0.00    +0.068 C 
ATOM     26  C   UNL     1      34.984 -16.671 -21.107  0.00  0.00    +0.068 C 
ATOM     27  C   UNL     1      34.390 -15.574 -21.994  0.00  0.00    -0.056 C 
ATOM     28  C   UNL     1      34.834 -16.851 -23.980  0.00  0.00    -0.056 C 
ATOM     29  C   UNL     1      34.495 -14.472 -24.133  0.00  0.00    -0.101 C 
ATOM     30  H   UNL     1      36.032 -15.401 -23.193  0.00  0.00    -0.080 HD
ENDBRANCH  18  23
ENDBRANCH  16  17
ENDBRANCH   4  16
BRANCH   9  31
ATOM     31  C   UNL     1      31.201 -24.018 -12.683  0.00  0.00    +0.030 C 
BRANCH  31  32
ATOM     32  N   UNL     1      30.206 -25.089 -12.637  0.00  0.00    +0.390 N 
ATOM     33  H   UNL     1      29.350 -24.741 -12.203  0.00  0.00    -0.088 HD
ATOM     34  H   UNL     1      30.570 -25.869 -12.091  0.00  0.00    -0.088 HD
ATOM     35  H   UNL     1      30.001 -25.405 -13.586  0.00  0.00    -0.088 HD
ENDBRANCH  31  32
ENDBRANCH   9  31
TORSDOF 6
ENDMDL
MODEL 3
REMARK VINA RESULT:     -10.5      1.845      4.003
REMARK  Name = 46937081
REMARK  6 active torsions:
REMARK  status: ('A' for Active; 'I' for Inactive)
REMARK    1  A    between atoms: N_1  and  C_10
REMARK    2  A    between atoms: C_4  and  C_16
REMARK    3  A    between atoms: C_9  and  C_31
REMARK    4  A    between atoms: C_16  and  C_17
REMARK    5  A    between atoms: C_18  and  N_23
REMARK    6  A    between atoms: C_31  and  N_32
REMARK                            x       y       z     vdW  Elec       q    Type
REMARK                         _______ _______ _______ _____ _____    ______ ____
ROOT
ATOM      1  N   UNL     1      34.376 -23.353 -16.179  0.00  0.00    -0.267 N 
ATOM      2  N   UNL     1      32.710 -24.095 -14.600  0.00  0.00    -0.341 NA
ATOM      3  N   UNL     1      30.438 -23.565 -15.297  0.00  0.00    -0.188 NA
ATOM      4  C   UNL     1      34.383 -22.704 -17.386  0.00  0.00    +0.035 C 
ATOM      5  C   UNL     1      33.084 -23.500 -15.746  0.00  0.00    +0.199 C 
ATOM      6  C   UNL     1      32.247 -22.932 -16.698  0.00  0.00    +0.066 C 
ATOM      7  C   UNL     1      33.077 -22.429 -17.733  0.00  0.00    +0.016 C 
ATOM      8  C   UNL     1      30.878 -22.980 -16.436  0.00  0.00    +0.114 C 
ATOM      9  C   UNL     1      31.368 -24.079 -14.461  0.00  0.00    +0.042 C 
ENDROOT
BRANCH   1  10
ATOM     10  C   UNL     1      35.604 -23.837 -15.431  0.00  0.00    +0.079 C 
ATOM     11  C   UNL     1      35.938 -22.934 -14.231  0.00  0.00    +0.020 C 
ATOM     12  C   UNL     1      35.467 -25.306 -14.994  0.00  0.00    +0.020 C 
ATOM     13  C   UNL     1      37.182 -23.425 -13.491  0.00  0.00    +0.002 C 
ATOM     14  C   UNL     1      36.712 -25.787 -14.252  0.00  0.00    +0.002 C 
ATOM     15  C   UNL     1      37.046 -24.884 -13.067  0.00  0.00    +0.000 C 
ENDBRANCH   1  10
BRANCH   4  16
ATOM     16  C   UNL     1      35.668 -22.391 -18.127  0.00  0.00    +0.068 C 
BRANCH  16  17
ATOM     17  C   UNL     1      35.519 -21.352 -19.186  0.00  0.00    -0.016 C 
ATOM     18  C   UNL     1      35.238 -19.406 -21.166  0.00  0.00    +0.048 C 
ATOM     19  C   UNL     1      34.253 -21.039 -19.682  0.00  0.00    -0.003 C 
ATOM     20  C   UNL     1      36.643 -20.692 -19.679  0.00  0.00    -0.003 C 
ATOM     21  C   UNL     1      34.112 -20.066 -20.671  0.00  0.00    +0.014 C 
ATOM     22  C   UNL     1      36.504 -19.719 -20.670  0.00  0.00    +0.014 C 
BRANCH  18  23
ATOM     23  N   UNL     1      35.097 -18.430 -22.158  0.00  0.00    -0.312 N 
ATOM     24  N   UNL     1      34.554 -16.477 -24.171  0.00  0.00    +0.388 N 
ATOM     25  C   UNL     1      34.828 -17.040 -21.779  0.00  0.00    +0.068 C 
ATOM     26  C   UNL     1      34.570 -18.846 -23.464  0.00  0.00    +0.068 C 
ATOM     27  C   UNL     1      34.961 -17.837 -24.546  0.00  0.00    -0.056 C 
ATOM     28  C   UNL     1      35.210 -16.089 -22.916  0.00  0.00    -0.056 C 
ATOM     29  C   UNL     1      34.884 -15.531 -25.235  0.00  0.00    -0.101 C 
ATOM     30  H   UNL     1      33.544 -16.461 -24.033  0.00  0.00    -0.080 HD
ENDBRANCH  18  23
ENDBRANCH  16  17
ENDBRANCH   4  16
BRANCH   9  31
ATOM     31  C   UNL     1      30.839 -24.714 -13.219  0.00  0.00    +0.030 C 
BRANCH  31  32
ATOM     32  N   UNL     1      31.835 -25.557 -12.558  0.00  0.00    +0.390 N 
ATOM     33  H   UNL     1      32.669 -25.621 -13.144  0.00  0.00    -0.088 HD
ATOM     34  H   UNL     1      31.449 -26.490 -12.414  0.00  0.00    -0.088 HD
ATOM     35  H   UNL     1      32.083 -25.149 -11.657  0.00  0.00    -0.088 HD
ENDBRANCH  31  32
ENDBRANCH   9  31
TORSDOF 6
ENDMDL
