MODEL 1
REMARK VINA RESULT:     -11.8      0.000      0.000
REMARK  Name = 448903
REMARK  11 active torsions:
REMARK  status: ('A' for Active; 'I' for Inactive)
REMARK    1  A    between atoms: N_1  and  C_22
REMARK    2  A    between atoms: C_8  and  N_11
REMARK    3  A    between atoms: C_12  and  C_14
REMARK    4  A    between atoms: C_14  and  C_15
REMARK    5  A    between atoms: C_15  and  C_16
REMARK    6  A    between atoms: C_22  and  C_23
REMARK    7  A    between atoms: C_23  and  C_24
REMARK    8  A    between atoms: C_24  and  N_25
REMARK    9  A    between atoms: C_24  and  C_35
REMARK   10  A    between atoms: C_29  and  C_32
REMARK   11  A    between atoms: C_35  and  O_36
REMARK                            x       y       z     vdW  Elec       q    Type
REMARK                         _______ _______ _______ _____ _____    ______ ____
ROOT
ATOM      1  N   UNL     1      36.287 -23.233 -15.574  0.00  0.00    -0.286 N 
ATOM      2  C   UNL     1      35.582 -22.783 -16.668  0.00  0.00    +0.053 C 
ATOM      3  C   UNL     1      34.269 -23.237 -16.524  0.00  0.00    +0.015 C 
ATOM      4  C   UNL     1      35.468 -23.951 -14.746  0.00  0.00    +0.065 C 
ATOM      5  C   UNL     1      34.212 -23.972 -15.306  0.00  0.00    +0.017 C 
ATOM      6  C   UNL     1      36.002 -22.019 -17.762  0.00  0.00    +0.029 C 
ATOM      7  C   UNL     1      33.327 -22.913 -17.521  0.00  0.00    +0.003 C 
ATOM      8  C   UNL     1      35.049 -21.709 -18.738  0.00  0.00    +0.052 C 
ATOM      9  C   UNL     1      33.732 -22.148 -18.620  0.00  0.00    +0.015 C 
ENDROOT
BRANCH   8  11
ATOM     10  O   UNL     1      33.418 -19.919 -20.520  0.00  0.00    -0.275 OA
ATOM     11  N   UNL     1      35.426 -20.946 -19.844  0.00  0.00    -0.284 N 
ATOM     12  C   UNL     1      34.625 -20.114 -20.636  0.00  0.00    +0.226 C 
ATOM     13  H   UNL     1      36.375 -21.001 -20.102  0.00  0.00    +0.155 HD
BRANCH  12  14
ATOM     14  C   UNL     1      35.406 -19.449 -21.758  0.00  0.00    +0.090 C 
BRANCH  14  15
ATOM     15  C   UNL     1      35.966 -18.092 -21.329  0.00  0.00    +0.036 C 
BRANCH  15  16
ATOM     16  C   UNL     1      35.192 -16.922 -21.885  0.00  0.00    -0.022 C 
ATOM     17  C   UNL     1      34.603 -16.000 -21.020  0.00  0.00    -0.004 C 
ATOM     18  C   UNL     1      35.065 -16.763 -23.266  0.00  0.00    -0.004 C 
ATOM     19  C   UNL     1      33.887 -14.919 -21.535  0.00  0.00    -0.000 C 
ATOM     20  C   UNL     1      34.349 -15.681 -23.780  0.00  0.00    -0.000 C 
ATOM     21  C   UNL     1      33.760 -14.760 -22.914  0.00  0.00    -0.000 C 
ENDBRANCH  15  16
ENDBRANCH  14  15
ENDBRANCH  12  14
ENDBRANCH   8  11
BRANCH   1  22
ATOM     22  C   UNL     1      37.692 -22.989 -15.321  0.00  0.00    +0.097 C 
BRANCH  22  23
ATOM     23  C   UNL     1      38.580 -24.235 -15.436  0.00  0.00    +0.040 C 
BRANCH  23  24
ATOM     24  C   UNL     1      39.253 -24.685 -14.120  0.00  0.00    +0.091 C 
BRANCH  24  25
ATOM     25  N   UNL     1      38.295 -25.076 -13.072  0.00  0.00    -0.246 NA
ATOM     26  N   UNL     1      36.896 -26.229 -11.789  0.00  0.00    -0.251 NA
ATOM     27  C   UNL     1      37.789 -24.270 -12.083  0.00  0.00    +0.125 C 
ATOM     28  C   UNL     1      37.738 -26.248 -12.866  0.00  0.00    +0.201 C 
ATOM     29  C   UNL     1      36.918 -24.963 -11.274  0.00  0.00    +0.124 C 
BRANCH  29  32
ATOM     30  O   UNL     1      35.232 -25.159  -9.629  0.00  0.00    -0.269 OA
ATOM     31  N   UNL     1      36.547 -23.299  -9.554  0.00  0.00    -0.324 N 
ATOM     32  C   UNL     1      36.179 -24.516 -10.142  0.00  0.00    +0.257 C 
ATOM     33  H   UNL     1      36.056 -22.963  -8.770  0.00  0.00    +0.145 HD
ATOM     34  H   UNL     1      37.297 -22.780  -9.926  0.00  0.00    +0.145 HD
ENDBRANCH  29  32
ENDBRANCH  24  25
BRANCH  24  35
ATOM     35  C   UNL     1      40.252 -25.824 -14.385  0.00  0.00    +0.153 C 
BRANCH  35  36
ATOM     36  O   UNL     1      40.471 -25.953 -15.785  0.00  0.00    -0.381 OA
ATOM     37  H   UNL     1      40.173 -25.147 -16.235  0.00  0.00    +0.210 HD
ENDBRANCH  35  36
ENDBRANCH  24  35
ENDBRANCH  23  24
ENDBRANCH  22  23
ENDBRANCH   1  22
TORSDOF 11
ENDMDL
MODEL 2
REMARK VINA RESULT:     -11.7      7.421     12.646
REMARK  Name = 448903
REMARK  11 active torsions:
REMARK  status: ('A' for Active; 'I' for Inactive)
REMARK    1  A    between atoms: N_1  and  C_22
REMARK    2  A    between atoms: C_8  and  N_11
REMARK    3  A    between atoms: C_12  and  C_14
REMARK    4  A    between atoms: C_14  and  C_15
REMARK    5  A    between atoms: C_15  and  C_16
REMARK    6  A    between atoms: C_22  and  C_23
REMARK    7  A    between atoms: C_23  and  C_24
REMARK    8  A    between atoms: C_24  and  N_25
REMARK    9  A    between atoms: C_24  and  C_35
REMARK   10  A    between atoms: C_29  and  C_32
REMARK   11  A    between atoms: C_35  and  O_36
REMARK                            x       y       z     vdW  Elec       q    Type
REMARK                         _______ _______ _______ _____ _____    ______ ____
ROOT
ATOM      1  N   UNL     1      32.774 -13.339 -21.884  0.00  0.00    -0.286 N 
ATOM      2  C   UNL     1      32.332 -12.191 -21.265  0.00  0.00    +0.053 C 
ATOM      3  C   UNL     1      31.896 -12.555 -19.989  0.00  0.00    +0.015 C 
ATOM      4  C   UNL     1      32.635 -14.411 -21.045  0.00  0.00    +0.065 C 
ATOM      5  C   UNL     1      32.095 -13.959 -19.865  0.00  0.00    +0.017 C 
ATOM      6  C   UNL     1      32.284 -10.873 -21.733  0.00  0.00    +0.029 C 
ATOM      7  C   UNL     1      31.388 -11.555 -19.135  0.00  0.00    +0.003 C 
ATOM      8  C   UNL     1      31.776  -9.898 -20.868  0.00  0.00    +0.052 C 
ATOM      9  C   UNL     1      31.335 -10.232 -19.589  0.00  0.00    +0.015 C 
ENDROOT
BRANCH   8  11
ATOM     10  O   UNL     1      33.018  -7.416 -19.712  0.00  0.00    -0.275 OA
ATOM     11  N   UNL     1      31.713  -8.571 -21.294  0.00  0.00    -0.284 N 
ATOM     12  C   UNL     1      32.324  -7.448 -20.724  0.00  0.00    +0.226 C 
ATOM     13  H   UNL     1      31.168  -8.403 -22.098  0.00  0.00    +0.155 HD
BRANCH  12  14
ATOM     14  C   UNL     1      32.014  -6.167 -21.483  0.00  0.00    +0.090 C 
BRANCH  14  15
ATOM     15  C   UNL     1      31.759  -6.438 -22.967  0.00  0.00    +0.036 C 
BRANCH  15  16
ATOM     16  C   UNL     1      32.947  -6.129 -23.845  0.00  0.00    -0.022 C 
ATOM     17  C   UNL     1      32.799  -5.292 -24.950  0.00  0.00    -0.004 C 
ATOM     18  C   UNL     1      34.194  -6.681 -23.549  0.00  0.00    -0.004 C 
ATOM     19  C   UNL     1      33.897  -5.007 -25.762  0.00  0.00    -0.000 C 
ATOM     20  C   UNL     1      35.292  -6.396 -24.361  0.00  0.00    -0.000 C 
ATOM     21  C   UNL     1      35.144  -5.559 -25.467  0.00  0.00    -0.000 C 
ENDBRANCH  15  16
ENDBRANCH  14  15
ENDBRANCH  12  14
ENDBRANCH   8  11
BRANCH   1  22
ATOM     22  C   UNL     1      33.311 -13.417 -23.226  0.00  0.00    +0.097 C 
BRANCH  22  23
ATOM     23  C   UNL     1      34.667 -14.128 -23.323  0.00  0.00    +0.040 C 
BRANCH  23  24
ATOM     24  C   UNL     1      34.735 -15.272 -24.360  0.00  0.00    +0.091 C 
BRANCH  24  25
ATOM     25  N   UNL     1      34.891 -16.606 -23.756  0.00  0.00    -0.246 NA
ATOM     26  N   UNL     1      34.933 -18.802 -23.425  0.00  0.00    -0.251 NA
ATOM     27  C   UNL     1      35.305 -16.883 -22.477  0.00  0.00    +0.125 C 
ATOM     28  C   UNL     1      34.676 -17.783 -24.301  0.00  0.00    +0.201 C 
ATOM     29  C   UNL     1      35.338 -18.239 -22.248  0.00  0.00    +0.124 C 
BRANCH  29  32
ATOM     30  O   UNL     1      34.945 -19.753 -20.476  0.00  0.00    -0.269 OA
ATOM     31  N   UNL     1      36.997 -18.766 -20.565  0.00  0.00    -0.324 N 
ATOM     32  C   UNL     1      35.705 -18.952 -21.071  0.00  0.00    +0.257 C 
ATOM     33  H   UNL     1      37.282 -19.245 -19.753  0.00  0.00    +0.145 HD
ATOM     34  H   UNL     1      37.622 -18.155 -21.021  0.00  0.00    +0.145 HD
ENDBRANCH  29  32
ENDBRANCH  24  25
BRANCH  24  35
ATOM     35  C   UNL     1      33.504 -15.241 -25.282  0.00  0.00    +0.153 C 
BRANCH  35  36
ATOM     36  O   UNL     1      33.923 -15.138 -26.638  0.00  0.00    -0.381 OA
ATOM     37  H   UNL     1      34.595 -14.443 -26.717  0.00  0.00    +0.210 HD
ENDBRANCH  35  36
ENDBRANCH  24  35
ENDBRANCH  23  24
ENDBRANCH  22  23
ENDBRANCH   1  22
TORSDOF 11
ENDMDL
MODEL 3
REMARK VINA RESULT:     -11.4      2.347      4.500
REMARK  Name = 448903
REMARK  11 active torsions:
REMARK  status: ('A' for Active; 'I' for Inactive)
REMARK    1  A    between atoms: N_1  and  C_22
REMARK    2  A    between atoms: C_8  and  N_11
REMARK    3  A    between atoms: C_12  and  C_14
REMARK    4  A    between atoms: C_14  and  C_15
REMARK    5  A    between atoms: C_15  and  C_16
REMARK    6  A    between atoms: C_22  and  C_23
REMARK    7  A    between atoms: C_23  and  C_24
REMARK    8  A    between atoms: C_24  and  N_25
REMARK    9  A    between atoms: C_24  and  C_35
REMARK   10  A    between atoms: C_29  and  C_32
REMARK   11  A    between atoms: C_35  and  O_36
REMARK                            x       y       z     vdW  Elec       q    Type
REMARK                         _______ _______ _______ _____ _____    ______ ____
ROOT
ATOM      1  N   UNL     1      32.669 -24.828 -13.601  0.00  0.00    -0.286 N 
ATOM      2  C   UNL     1      32.091 -24.096 -14.613  0.00  0.00    +0.053 C 
ATOM      3  C   UNL     1      30.709 -24.142 -14.415  0.00  0.00    +0.015 C 
ATOM      4  C   UNL     1      31.704 -25.332 -12.772  0.00  0.00    +0.065 C 
ATOM      5  C   UNL     1      30.480 -24.925 -13.249  0.00  0.00    +0.017 C 
ATOM      6  C   UNL     1      32.679 -23.404 -15.678  0.00  0.00    +0.029 C 
ATOM      7  C   UNL     1      29.871 -23.465 -15.324  0.00  0.00    +0.003 C 
ATOM      8  C   UNL     1      31.827 -22.739 -16.566  0.00  0.00    +0.052 C 
ATOM      9  C   UNL     1      30.445 -22.768 -16.393  0.00  0.00    +0.015 C 
ENDROOT
BRANCH   8  11
ATOM     10  O   UNL     1      33.796 -23.606 -18.667  0.00  0.00    -0.275 OA
ATOM     11  N   UNL     1      32.373 -22.036 -17.641  0.00  0.00    -0.284 N 
ATOM     12  C   UNL     1      33.281 -22.493 -18.604  0.00  0.00    +0.226 C 
ATOM     13  H   UNL     1      32.084 -21.099 -17.734  0.00  0.00    +0.155 HD
BRANCH  12  14
ATOM     14  C   UNL     1      33.641 -21.422 -19.621  0.00  0.00    +0.090 C 
BRANCH  14  15
ATOM     15  C   UNL     1      35.146 -21.147 -19.643  0.00  0.00    +0.036 C 
BRANCH  15  16
ATOM     16  C   UNL     1      35.553 -20.131 -20.682  0.00  0.00    -0.022 C 
ATOM     17  C   UNL     1      36.839 -19.592 -20.664  0.00  0.00    -0.004 C 
ATOM     18  C   UNL     1      34.643 -19.730 -21.660  0.00  0.00    -0.004 C 
ATOM     19  C   UNL     1      37.216 -18.653 -21.624  0.00  0.00    -0.000 C 
ATOM     20  C   UNL     1      35.019 -18.791 -22.620  0.00  0.00    -0.000 C 
ATOM     21  C   UNL     1      36.306 -18.252 -22.602  0.00  0.00    -0.000 C 
ENDBRANCH  15  16
ENDBRANCH  14  15
ENDBRANCH  12  14
ENDBRANCH   8  11
BRANCH   1  22
ATOM     22  C   UNL     1      34.089 -25.043 -13.424  0.00  0.00    +0.097 C 
BRANCH  22  23
ATOM     23  C   UNL     1      34.746 -24.113 -12.395  0.00  0.00    +0.040 C 
BRANCH  23  24
ATOM     24  C   UNL     1      36.100 -24.606 -11.835  0.00  0.00    +0.091 C 
BRANCH  24  25
ATOM     25  N   UNL     1      37.182 -24.614 -12.833  0.00  0.00    -0.246 NA
ATOM     26  N   UNL     1      38.518 -24.093 -14.528  0.00  0.00    -0.251 NA
ATOM     27  C   UNL     1      38.186 -25.542 -12.945  0.00  0.00    +0.125 C 
ATOM     28  C   UNL     1      37.411 -23.755 -13.800  0.00  0.00    +0.201 C 
ATOM     29  C   UNL     1      39.028 -25.241 -13.990  0.00  0.00    +0.124 C 
BRANCH  29  32
ATOM     30  O   UNL     1      40.609 -25.868 -15.632  0.00  0.00    -0.269 OA
ATOM     31  N   UNL     1      40.902 -26.704 -13.532  0.00  0.00    -0.324 N 
ATOM     32  C   UNL     1      40.185 -25.931 -14.453  0.00  0.00    +0.257 C 
ATOM     33  H   UNL     1      41.707 -27.192 -13.820  0.00  0.00    +0.145 HD
ATOM     34  H   UNL     1      40.602 -26.759 -12.595  0.00  0.00    +0.145 HD
ENDBRANCH  29  32
ENDBRANCH  24  25
BRANCH  24  35
ATOM     35  C   UNL     1      36.509 -23.779 -10.605  0.00  0.00    +0.153 C 
BRANCH  35  36
ATOM     36  O   UNL     1      35.993 -24.385  -9.426  0.00  0.00    -0.381 OA
ATOM     37  H   UNL     1      35.064 -24.628  -9.567  0.00  0.00    +0.210 HD
ENDBRANCH  35  36
ENDBRANCH  24  35
ENDBRANCH  23  24
ENDBRANCH  22  23
ENDBRANCH   1  22
TORSDOF 11
ENDMDL
MODEL 4
REMARK VINA RESULT:     -11.1      6.074     13.602
REMARK  Name = 448903
REMARK  11 active torsions:
REMARK  status: ('A' for Active; 'I' for Inactive)
REMARK    1  A    between atoms: N_1  and  C_22
REMARK    2  A    between atoms: C_8  and  N_11
REMARK    3  A    between atoms: C_12  and  C_14
REMARK    4  A    between atoms: C_14  and  C_15
REMARK    5  A    between atoms: C_15  and  C_16
REMARK    6  A    between atoms: C_22  and  C_23
REMARK    7  A    between atoms: C_23  and  C_24
REMARK    8  A    between atoms: C_24  and  N_25
REMARK    9  A    between atoms: C_24  and  C_35
REMARK   10  A    between atoms: C_29  and  C_32
REMARK   11  A    between atoms: C_35  and  O_36
REMARK                            x       y       z     vdW  Elec       q    Type
REMARK                         _______ _______ _______ _____ _____    ______ ____
ROOT
ATOM      1  N   UNL     1      33.420 -14.043 -21.922  0.00  0.00    -0.286 N 
ATOM      2  C   UNL     1      34.071 -15.231 -22.168  0.00  0.00    +0.053 C 
ATOM      3  C   UNL     1      34.213 -15.341 -23.554  0.00  0.00    +0.015 C 
ATOM      4  C   UNL     1      33.148 -13.400 -23.099  0.00  0.00    +0.065 C 
ATOM      5  C   UNL     1      33.626 -14.178 -24.127  0.00  0.00    +0.017 C 
ATOM      6  C   UNL     1      34.540 -16.206 -21.281  0.00  0.00    +0.029 C 
ATOM      7  C   UNL     1      34.854 -16.480 -24.081  0.00  0.00    +0.003 C 
ATOM      8  C   UNL     1      35.173 -17.327 -21.828  0.00  0.00    +0.052 C 
ATOM      9  C   UNL     1      35.329 -17.463 -23.206  0.00  0.00    +0.015 C 
ENDROOT
BRANCH   8  11
ATOM     10  O   UNL     1      37.869 -18.652 -21.710  0.00  0.00    -0.275 OA
ATOM     11  N   UNL     1      35.656 -18.322 -20.977  0.00  0.00    -0.284 N 
ATOM     12  C   UNL     1      36.932 -18.899 -20.956  0.00  0.00    +0.226 C 
ATOM     13  H   UNL     1      35.019 -18.663 -20.307  0.00  0.00    +0.155 HD
BRANCH  12  14
ATOM     14  C   UNL     1      37.075 -19.958 -19.875  0.00  0.00    +0.090 C 
BRANCH  14  15
ATOM     15  C   UNL     1      36.030 -21.065 -20.027  0.00  0.00    +0.036 C 
BRANCH  15  16
ATOM     16  C   UNL     1      35.674 -21.735 -18.722  0.00  0.00    -0.022 C 
ATOM     17  C   UNL     1      34.401 -22.272 -18.538  0.00  0.00    -0.004 C 
ATOM     18  C   UNL     1      36.621 -21.820 -17.701  0.00  0.00    -0.004 C 
ATOM     19  C   UNL     1      34.072 -22.892 -17.332  0.00  0.00    -0.000 C 
ATOM     20  C   UNL     1      36.293 -22.440 -16.495  0.00  0.00    -0.000 C 
ATOM     21  C   UNL     1      35.018 -22.975 -16.311  0.00  0.00    -0.000 C 
ENDBRANCH  15  16
ENDBRANCH  14  15
ENDBRANCH  12  14
ENDBRANCH   8  11
BRANCH   1  22
ATOM     22  C   UNL     1      33.068 -13.533 -20.614  0.00  0.00    +0.097 C 
BRANCH  22  23
ATOM     23  C   UNL     1      31.911 -12.525 -20.619  0.00  0.00    +0.040 C 
BRANCH  23  24
ATOM     24  C   UNL     1      32.235 -11.150 -19.992  0.00  0.00    +0.091 C 
BRANCH  24  25
ATOM     25  N   UNL     1      31.978 -10.016 -20.894  0.00  0.00    -0.246 NA
ATOM     26  N   UNL     1      31.410  -8.776 -22.648  0.00  0.00    -0.251 NA
ATOM     27  C   UNL     1      32.167  -8.686 -20.614  0.00  0.00    +0.125 C 
ATOM     28  C   UNL     1      31.521 -10.036 -22.127  0.00  0.00    +0.201 C 
ATOM     29  C   UNL     1      31.823  -7.897 -21.687  0.00  0.00    +0.124 C 
BRANCH  29  32
ATOM     30  O   UNL     1      31.609  -5.874 -22.892  0.00  0.00    -0.269 OA
ATOM     31  N   UNL     1      32.184  -5.720 -20.692  0.00  0.00    -0.324 N 
ATOM     32  C   UNL     1      31.864  -6.480 -21.823  0.00  0.00    +0.257 C 
ATOM     33  H   UNL     1      32.221  -4.737 -20.753  0.00  0.00    +0.145 HD
ATOM     34  H   UNL     1      32.374  -6.167 -19.835  0.00  0.00    +0.145 HD
ENDBRANCH  29  32
ENDBRANCH  24  25
BRANCH  24  35
ATOM     35  C   UNL     1      31.475 -10.967 -18.668  0.00  0.00    +0.153 C 
BRANCH  35  36
ATOM     36  O   UNL     1      30.086 -10.808 -18.931  0.00  0.00    -0.381 OA
ATOM     37  H   UNL     1      29.806  -9.919 -18.662  0.00  0.00    +0.210 HD
ENDBRANCH  35  36
ENDBRANCH  24  35
ENDBRANCH  23  24
ENDBRANCH  22  23
ENDBRANCH   1  22
TORSDOF 11
ENDMDL
MODEL 5
REMARK VINA RESULT:     -10.9      1.599      2.571
REMARK  Name = 448903
REMARK  11 active torsions:
REMARK  status: ('A' for Active; 'I' for Inactive)
REMARK    1  A    between atoms: N_1  and  C_22
REMARK    2  A    between atoms: C_8  and  N_11
REMARK    3  A    between atoms: C_12  and  C_14
REMARK    4  A    between atoms: C_14  and  C_15
REMARK    5  A    between atoms: C_15  and  C_16
REMARK    6  A    between atoms: C_22  and  C_23
REMARK    7  A    between atoms: C_23  and  C_24
REMARK    8  A    between atoms: C_24  and  N_25
REMARK    9  A    between atoms: C_24  and  C_35
REMARK   10  A    between atoms: C_29  and  C_32
REMARK   11  A    between atoms: C_35  and  O_36
REMARK                            x       y       z     vdW  Elec       q    Type
REMARK                         _______ _______ _______ _____ _____    ______ ____
ROOT
ATOM      1  N   UNL     1      35.424 -22.286 -17.647  0.00  0.00    -0.286 N 
ATOM      2  C   UNL     1      34.862 -21.599 -18.700  0.00  0.00    +0.053 C 
ATOM      3  C   UNL     1      33.498 -21.901 -18.705  0.00  0.00    +0.015 C 
ATOM      4  C   UNL     1      34.466 -23.008 -16.989  0.00  0.00    +0.065 C 
ATOM      5  C   UNL     1      33.264 -22.791 -17.619  0.00  0.00    +0.017 C 
ATOM      6  C   UNL     1      35.450 -20.743 -19.637  0.00  0.00    +0.029 C 
ATOM      7  C   UNL     1      32.680 -21.321 -19.695  0.00  0.00    +0.003 C 
ATOM      8  C   UNL     1      34.618 -20.179 -20.609  0.00  0.00    +0.052 C 
ATOM      9  C   UNL     1      33.253 -20.462 -20.638  0.00  0.00    +0.015 C 
ENDROOT
BRANCH   8  11
ATOM     10  O   UNL     1      34.995 -17.196 -20.556  0.00  0.00    -0.275 OA
ATOM     11  N   UNL     1      35.164 -19.318 -21.562  0.00  0.00    -0.284 N 
ATOM     12  C   UNL     1      35.330 -17.930 -21.482  0.00  0.00    +0.226 C 
ATOM     13  H   UNL     1      35.471 -19.740 -22.397  0.00  0.00    +0.155 HD
BRANCH  12  14
ATOM     14  C   UNL     1      35.967 -17.346 -22.733  0.00  0.00    +0.090 C 
BRANCH  14  15
ATOM     15  C   UNL     1      34.952 -17.198 -23.867  0.00  0.00    +0.036 C 
BRANCH  15  16
ATOM     16  C   UNL     1      34.498 -15.774 -24.082  0.00  0.00    -0.022 C 
ATOM     17  C   UNL     1      33.880 -15.412 -25.278  0.00  0.00    -0.004 C 
ATOM     18  C   UNL     1      34.695 -14.821 -23.082  0.00  0.00    -0.004 C 
ATOM     19  C   UNL     1      33.460 -14.097 -25.476  0.00  0.00    -0.000 C 
ATOM     20  C   UNL     1      34.275 -13.506 -23.281  0.00  0.00    -0.000 C 
ATOM     21  C   UNL     1      33.658 -13.144 -24.478  0.00  0.00    -0.000 C 
ENDBRANCH  15  16
ENDBRANCH  14  15
ENDBRANCH  12  14
ENDBRANCH   8  11
BRANCH   1  22
ATOM     22  C   UNL     1      36.823 -22.259 -17.277  0.00  0.00    +0.097 C 
BRANCH  22  23
ATOM     23  C   UNL     1      37.095 -21.706 -15.871  0.00  0.00    +0.040 C 
BRANCH  23  24
ATOM     24  C   UNL     1      37.759 -22.700 -14.892  0.00  0.00    +0.091 C 
BRANCH  24  25
ATOM     25  N   UNL     1      36.839 -23.222 -13.868  0.00  0.00    -0.246 NA
ATOM     26  N   UNL     1      35.046 -24.006 -12.818  0.00  0.00    -0.251 NA
ATOM     27  C   UNL     1      37.133 -23.465 -12.550  0.00  0.00    +0.125 C 
ATOM     28  C   UNL     1      35.575 -23.559 -13.997  0.00  0.00    +0.201 C 
ATOM     29  C   UNL     1      36.036 -23.952 -11.878  0.00  0.00    +0.124 C 
BRANCH  29  32
ATOM     30  O   UNL     1      35.300 -25.364 -10.131  0.00  0.00    -0.269 OA
ATOM     31  N   UNL     1      36.501 -23.519  -9.541  0.00  0.00    -0.324 N 
ATOM     32  C   UNL     1      35.903 -24.332 -10.512  0.00  0.00    +0.257 C 
ATOM     33  H   UNL     1      36.427 -23.755  -8.588  0.00  0.00    +0.145 HD
ATOM     34  H   UNL     1      36.995 -22.711  -9.811  0.00  0.00    +0.145 HD
ENDBRANCH  29  32
ENDBRANCH  24  25
BRANCH  24  35
ATOM     35  C   UNL     1      38.420 -23.857 -15.661  0.00  0.00    +0.153 C 
BRANCH  35  36
ATOM     36  O   UNL     1      39.574 -24.303 -14.957  0.00  0.00    -0.381 OA
ATOM     37  H   UNL     1      40.064 -23.536 -14.622  0.00  0.00    +0.210 HD
ENDBRANCH  35  36
ENDBRANCH  24  35
ENDBRANCH  23  24
ENDBRANCH  22  23
ENDBRANCH   1  22
TORSDOF 11
ENDMDL
MODEL 6
REMARK VINA RESULT:     -10.8      5.329      9.951
REMARK  Name = 448903
REMARK  11 active torsions:
REMARK  status: ('A' for Active; 'I' for Inactive)
REMARK    1  A    between atoms: N_1  and  C_22
REMARK    2  A    between atoms: C_8  and  N_11
REMARK    3  A    between atoms: C_12  and  C_14
REMARK    4  A    between atoms: C_14  and  C_15
REMARK    5  A    between atoms: C_15  and  C_16
REMARK    6  A    between atoms: C_22  and  C_23
REMARK    7  A    between atoms: C_23  and  C_24
REMARK    8  A    between atoms: C_24  and  N_25
REMARK    9  A    between atoms: C_24  and  C_35
REMARK   10  A    between atoms: C_29  and  C_32
REMARK   11  A    between atoms: C_35  and  O_36
REMARK                            x       y       z     vdW  Elec       q    Type
REMARK                         _______ _______ _______ _____ _____    ______ ____
ROOT
ATOM      1  N   UNL     1      34.835 -16.140 -23.017  0.00  0.00    -0.286 N 
ATOM      2  C   UNL     1      34.389 -14.924 -23.483  0.00  0.00    +0.053 C 
ATOM      3  C   UNL     1      34.165 -15.068 -24.855  0.00  0.00    +0.015 C 
ATOM      4  C   UNL     1      34.901 -17.044 -24.042  0.00  0.00    +0.065 C 
ATOM      5  C   UNL     1      34.492 -16.412 -25.192  0.00  0.00    +0.017 C 
ATOM      6  C   UNL     1      34.168 -13.721 -22.804  0.00  0.00    +0.029 C 
ATOM      7  C   UNL     1      33.699 -13.957 -25.586  0.00  0.00    +0.003 C 
ATOM      8  C   UNL     1      33.704 -12.633 -23.550  0.00  0.00    +0.052 C 
ATOM      9  C   UNL     1      33.472 -12.748 -24.920  0.00  0.00    +0.015 C 
ENDROOT
BRANCH   8  11
ATOM     10  O   UNL     1      31.451 -11.775 -21.754  0.00  0.00    -0.275 OA
ATOM     11  N   UNL     1      33.469 -11.415 -22.911  0.00  0.00    -0.284 N 
ATOM     12  C   UNL     1      32.405 -11.069 -22.069  0.00  0.00    +0.226 C 
ATOM     13  H   UNL     1      34.136 -10.708 -23.072  0.00  0.00    +0.155 HD
BRANCH  12  14
ATOM     14  C   UNL     1      32.501  -9.638 -21.565  0.00  0.00    +0.090 C 
BRANCH  14  15
ATOM     15  C   UNL     1      31.895  -8.647 -22.559  0.00  0.00    +0.036 C 
BRANCH  15  16
ATOM     16  C   UNL     1      32.917  -7.735 -23.194  0.00  0.00    -0.022 C 
ATOM     17  C   UNL     1      32.503  -6.689 -24.017  0.00  0.00    -0.004 C 
ATOM     18  C   UNL     1      34.277  -7.939 -22.955  0.00  0.00    -0.004 C 
ATOM     19  C   UNL     1      33.448  -5.847 -24.604  0.00  0.00    -0.000 C 
ATOM     20  C   UNL     1      35.222  -7.097 -23.542  0.00  0.00    -0.000 C 
ATOM     21  C   UNL     1      34.807  -6.051 -24.367  0.00  0.00    -0.000 C 
ENDBRANCH  15  16
ENDBRANCH  14  15
ENDBRANCH  12  14
ENDBRANCH   8  11
BRANCH   1  22
ATOM     22  C   UNL     1      35.189 -16.435 -21.644  0.00  0.00    +0.097 C 
BRANCH  22  23
ATOM     23  C   UNL     1      34.932 -17.889 -21.225  0.00  0.00    +0.040 C 
BRANCH  23  24
ATOM     24  C   UNL     1      36.196 -18.697 -20.852  0.00  0.00    +0.091 C 
BRANCH  24  25
ATOM     25  N   UNL     1      35.903 -19.953 -20.142  0.00  0.00    -0.246 NA
ATOM     26  N   UNL     1      36.092 -21.829 -18.967  0.00  0.00    -0.251 NA
ATOM     27  C   UNL     1      34.675 -20.549 -20.003  0.00  0.00    +0.125 C 
ATOM     28  C   UNL     1      36.735 -20.749 -19.507  0.00  0.00    +0.201 C 
ATOM     29  C   UNL     1      34.766 -21.714 -19.278  0.00  0.00    +0.124 C 
BRANCH  29  32
ATOM     30  O   UNL     1      32.666 -22.294 -18.360  0.00  0.00    -0.269 OA
ATOM     31  N   UNL     1      33.948 -23.991 -19.178  0.00  0.00    -0.324 N 
ATOM     32  C   UNL     1      33.745 -22.633 -18.903  0.00  0.00    +0.257 C 
ATOM     33  H   UNL     1      33.261 -24.652 -18.932  0.00  0.00    +0.145 HD
ATOM     34  H   UNL     1      34.779 -24.286 -19.618  0.00  0.00    +0.145 HD
ENDBRANCH  29  32
ENDBRANCH  24  25
BRANCH  24  35
ATOM     35  C   UNL     1      37.050 -18.972 -22.100  0.00  0.00    +0.153 C 
BRANCH  35  36
ATOM     36  O   UNL     1      38.342 -18.399 -21.933  0.00  0.00    -0.381 OA
ATOM     37  H   UNL     1      38.442 -17.644 -22.534  0.00  0.00    +0.210 HD
ENDBRANCH  35  36
ENDBRANCH  24  35
ENDBRANCH  23  24
ENDBRANCH  22  23
ENDBRANCH   1  22
TORSDOF 11
ENDMDL
MODEL 7
REMARK VINA RESULT:     -10.6      7.091     12.956
REMARK  Name = 448903
REMARK  11 active torsions:
REMARK  status: ('A' for Active; 'I' for Inactive)
REMARK    1  A    between atoms: N_1  and  C_22
REMARK    2  A    between atoms: C_8  and  N_11
REMARK    3  A    between atoms: C_12  and  C_14
REMARK    4  A    between atoms: C_14  and  C_15
REMARK    5  A    between atoms: C_15  and  C_16
REMARK    6  A    between atoms: C_22  and  C_23
REMARK    7  A    between atoms: C_23  and  C_24
REMARK    8  A    between atoms: C_24  and  N_25
REMARK    9  A    between atoms: C_24  and  C_35
REMARK   10  A    between atoms: C_29  and  C_32
REMARK   11  A    between atoms: C_35  and  O_36
REMARK                            x       y       z     vdW  Elec       q    Type
REMARK                         _______ _______ _______ _____ _____    ______ ____
ROOT
ATOM      1  N   UNL     1      32.845 -12.891 -22.236  0.00  0.00    -0.286 N 
ATOM      2  C   UNL     1      32.528 -11.614 -21.830  0.00  0.00    +0.053 C 
ATOM      3  C   UNL     1      31.908 -11.723 -20.583  0.00  0.00    +0.015 C 
ATOM      4  C   UNL     1      32.450 -13.799 -21.292  0.00  0.00    +0.065 C 
ATOM      5  C   UNL     1      31.867 -13.107 -20.256  0.00  0.00    +0.017 C 
ATOM      6  C   UNL     1      32.739 -10.385 -22.464  0.00  0.00    +0.029 C 
ATOM      7  C   UNL     1      31.477 -10.547 -19.936  0.00  0.00    +0.003 C 
ATOM      8  C   UNL     1      32.304  -9.233 -21.802  0.00  0.00    +0.052 C 
ATOM      9  C   UNL     1      31.683  -9.311 -20.557  0.00  0.00    +0.015 C 
ENDROOT
BRANCH   8  11
ATOM     10  O   UNL     1      30.371  -7.443 -23.251  0.00  0.00    -0.275 OA
ATOM     11  N   UNL     1      32.497  -7.986 -22.400  0.00  0.00    -0.284 N 
ATOM     12  C   UNL     1      31.554  -7.183 -23.054  0.00  0.00    +0.226 C 
ATOM     13  H   UNL     1      33.412  -7.625 -22.356  0.00  0.00    +0.155 HD
BRANCH  12  14
ATOM     14  C   UNL     1      32.154  -5.887 -23.575  0.00  0.00    +0.090 C 
BRANCH  14  15
ATOM     15  C   UNL     1      33.649  -6.032 -23.864  0.00  0.00    +0.036 C 
BRANCH  15  16
ATOM     16  C   UNL     1      34.091  -5.302 -25.109  0.00  0.00    -0.022 C 
ATOM     17  C   UNL     1      35.365  -5.522 -25.631  0.00  0.00    -0.004 C 
ATOM     18  C   UNL     1      33.224  -4.408 -25.738  0.00  0.00    -0.004 C 
ATOM     19  C   UNL     1      35.773  -4.847 -26.782  0.00  0.00    -0.000 C 
ATOM     20  C   UNL     1      33.632  -3.733 -26.888  0.00  0.00    -0.000 C 
ATOM     21  C   UNL     1      34.907  -3.953 -27.410  0.00  0.00    -0.000 C 
ENDBRANCH  15  16
ENDBRANCH  14  15
ENDBRANCH  12  14
ENDBRANCH   8  11
BRANCH   1  22
ATOM     22  C   UNL     1      33.501 -13.239 -23.478  0.00  0.00    +0.097 C 
BRANCH  22  23
ATOM     23  C   UNL     1      33.402 -14.725 -23.851  0.00  0.00    +0.040 C 
BRANCH  23  24
ATOM     24  C   UNL     1      34.746 -15.487 -23.870  0.00  0.00    +0.091 C 
BRANCH  24  25
ATOM     25  N   UNL     1      34.958 -16.338 -22.687  0.00  0.00    -0.246 NA
ATOM     26  N   UNL     1      35.146 -17.072 -20.599  0.00  0.00    -0.251 NA
ATOM     27  C   UNL     1      35.275 -17.673 -22.683  0.00  0.00    +0.125 C 
ATOM     28  C   UNL     1      34.887 -16.007 -21.417  0.00  0.00    +0.201 C 
ATOM     29  C   UNL     1      35.397 -18.151 -21.399  0.00  0.00    +0.124 C 
BRANCH  29  32
ATOM     30  O   UNL     1      34.996 -20.470 -21.172  0.00  0.00    -0.269 OA
ATOM     31  N   UNL     1      36.897 -19.645 -20.224  0.00  0.00    -0.324 N 
ATOM     32  C   UNL     1      35.711 -19.464 -20.945  0.00  0.00    +0.257 C 
ATOM     33  H   UNL     1      37.143 -20.540 -19.896  0.00  0.00    +0.145 HD
ATOM     34  H   UNL     1      37.486 -18.876 -20.044  0.00  0.00    +0.145 HD
ENDBRANCH  29  32
ENDBRANCH  24  25
BRANCH  24  35
ATOM     35  C   UNL     1      34.879 -16.317 -25.158  0.00  0.00    +0.153 C 
BRANCH  35  36
ATOM     36  O   UNL     1      34.097 -15.728 -26.190  0.00  0.00    -0.381 OA
ATOM     37  H   UNL     1      34.297 -14.781 -26.247  0.00  0.00    +0.210 HD
ENDBRANCH  35  36
ENDBRANCH  24  35
ENDBRANCH  23  24
ENDBRANCH  22  23
ENDBRANCH   1  22
TORSDOF 11
ENDMDL
MODEL 8
REMARK VINA RESULT:     -10.6      8.515     15.721
REMARK  Name = 448903
REMARK  11 active torsions:
REMARK  status: ('A' for Active; 'I' for Inactive)
REMARK    1  A    between atoms: N_1  and  C_22
REMARK    2  A    between atoms: C_8  and  N_11
REMARK    3  A    between atoms: C_12  and  C_14
REMARK    4  A    between atoms: C_14  and  C_15
REMARK    5  A    between atoms: C_15  and  C_16
REMARK    6  A    between atoms: C_22  and  C_23
REMARK    7  A    between atoms: C_23  and  C_24
REMARK    8  A    between atoms: C_24  and  N_25
REMARK    9  A    between atoms: C_24  and  C_35
REMARK   10  A    between atoms: C_29  and  C_32
REMARK   11  A    between atoms: C_35  and  O_36
REMARK                            x       y       z     vdW  Elec       q    Type
REMARK                         _______ _______ _______ _____ _____    ______ ____
ROOT
ATOM      1  N   UNL     1      32.192 -10.894 -21.547  0.00  0.00    -0.286 N 
ATOM      2  C   UNL     1      32.518 -12.223 -21.389  0.00  0.00    +0.053 C 
ATOM      3  C   UNL     1      31.890 -12.662 -20.221  0.00  0.00    +0.015 C 
ATOM      4  C   UNL     1      31.383 -10.481 -20.523  0.00  0.00    +0.065 C 
ATOM      5  C   UNL     1      31.178 -11.552 -19.686  0.00  0.00    +0.017 C 
ATOM      6  C   UNL     1      33.311 -13.060 -22.182  0.00  0.00    +0.029 C 
ATOM      7  C   UNL     1      32.063 -14.003 -19.823  0.00  0.00    +0.003 C 
ATOM      8  C   UNL     1      33.466 -14.386 -21.767  0.00  0.00    +0.052 C 
ATOM      9  C   UNL     1      32.852 -14.852 -20.606  0.00  0.00    +0.015 C 
ENDROOT
BRANCH   8  11
ATOM     10  O   UNL     1      33.383 -15.014 -24.706  0.00  0.00    -0.275 OA
ATOM     11  N   UNL     1      34.248 -15.255 -22.530  0.00  0.00    -0.284 N 
ATOM     12  C   UNL     1      34.176 -15.502 -23.907  0.00  0.00    +0.226 C 
ATOM     13  H   UNL     1      34.936 -15.758 -22.038  0.00  0.00    +0.155 HD
BRANCH  12  14
ATOM     14  C   UNL     1      35.204 -16.522 -24.370  0.00  0.00    +0.090 C 
BRANCH  14  15
ATOM     15  C   UNL     1      34.732 -17.954 -24.115  0.00  0.00    +0.036 C 
BRANCH  15  16
ATOM     16  C   UNL     1      35.307 -18.559 -22.857  0.00  0.00    -0.022 C 
ATOM     17  C   UNL     1      36.574 -18.178 -22.416  0.00  0.00    -0.004 C 
ATOM     18  C   UNL     1      34.570 -19.498 -22.135  0.00  0.00    -0.004 C 
ATOM     19  C   UNL     1      37.105 -18.737 -21.253  0.00  0.00    -0.000 C 
ATOM     20  C   UNL     1      35.101 -20.057 -20.972  0.00  0.00    -0.000 C 
ATOM     21  C   UNL     1      36.369 -19.676 -20.531  0.00  0.00    -0.000 C 
ENDBRANCH  15  16
ENDBRANCH  14  15
ENDBRANCH  12  14
ENDBRANCH   8  11
BRANCH   1  22
ATOM     22  C   UNL     1      32.633 -10.044 -22.632  0.00  0.00    +0.097 C 
BRANCH  22  23
ATOM     23  C   UNL     1      31.905  -8.696 -22.715  0.00  0.00    +0.040 C 
BRANCH  23  24
ATOM     24  C   UNL     1      32.651  -7.506 -22.071  0.00  0.00    +0.091 C 
BRANCH  24  25
ATOM     25  N   UNL     1      32.467  -6.236 -22.793  0.00  0.00    -0.246 NA
ATOM     26  N   UNL     1      32.572  -4.610 -24.302  0.00  0.00    -0.251 NA
ATOM     27  C   UNL     1      31.713  -5.163 -22.385  0.00  0.00    +0.125 C 
ATOM     28  C   UNL     1      32.970  -5.870 -23.951  0.00  0.00    +0.201 C 
ATOM     29  C   UNL     1      31.763  -4.142 -23.305  0.00  0.00    +0.124 C 
BRANCH  29  32
ATOM     30  O   UNL     1      31.278  -1.998 -24.174  0.00  0.00    -0.269 OA
ATOM     31  N   UNL     1      30.286  -2.571 -22.204  0.00  0.00    -0.324 N 
ATOM     32  C   UNL     1      31.133  -2.865 -23.279  0.00  0.00    +0.257 C 
ATOM     33  H   UNL     1      29.836  -1.696 -22.157  0.00  0.00    +0.145 HD
ATOM     34  H   UNL     1      30.140  -3.238 -21.495  0.00  0.00    +0.145 HD
ENDBRANCH  29  32
ENDBRANCH  24  25
BRANCH  24  35
ATOM     35  C   UNL     1      32.248  -7.349 -20.596  0.00  0.00    +0.153 C 
BRANCH  35  36
ATOM     36  O   UNL     1      33.377  -7.582 -19.763  0.00  0.00    -0.381 OA
ATOM     37  H   UNL     1      33.184  -7.277 -18.862  0.00  0.00    +0.210 HD
ENDBRANCH  35  36
ENDBRANCH  24  35
ENDBRANCH  23  24
ENDBRANCH  22  23
ENDBRANCH   1  22
TORSDOF 11
ENDMDL
MODEL 9
REMARK VINA RESULT:     -10.6      7.648     13.611
REMARK  Name = 448903
REMARK  11 active torsions:
REMARK  status: ('A' for Active; 'I' for Inactive)
REMARK    1  A    between atoms: N_1  and  C_22
REMARK    2  A    between atoms: C_8  and  N_11
REMARK    3  A    between atoms: C_12  and  C_14
REMARK    4  A    between atoms: C_14  and  C_15
REMARK    5  A    between atoms: C_15  and  C_16
REMARK    6  A    between atoms: C_22  and  C_23
REMARK    7  A    between atoms: C_23  and  C_24
REMARK    8  A    between atoms: C_24  and  N_25
REMARK    9  A    between atoms: C_24  and  C_35
REMARK   10  A    between atoms: C_29  and  C_32
REMARK   11  A    between atoms: C_35  and  O_36
REMARK                            x       y       z     vdW  Elec       q    Type
REMARK                         _______ _______ _______ _____ _____    ______ ____
ROOT
ATOM      1  N   UNL     1      32.222 -12.113 -21.525  0.00  0.00    -0.286 N 
ATOM      2  C   UNL     1      32.322 -10.739 -21.521  0.00  0.00    +0.053 C 
ATOM      3  C   UNL     1      31.909 -10.303 -20.259  0.00  0.00    +0.015 C 
ATOM      4  C   UNL     1      31.763 -12.558 -20.315  0.00  0.00    +0.065 C 
ATOM      5  C   UNL     1      31.561 -11.462 -19.510  0.00  0.00    +0.017 C 
ATOM      6  C   UNL     1      32.740  -9.860 -22.525  0.00  0.00    +0.029 C 
ATOM      7  C   UNL     1      31.914  -8.920 -19.986  0.00  0.00    +0.003 C 
ATOM      8  C   UNL     1      32.738  -8.493 -22.230  0.00  0.00    +0.052 C 
ATOM      9  C   UNL     1      32.332  -8.029 -20.980  0.00  0.00    +0.015 C 
ENDROOT
BRANCH   8  11
ATOM     10  O   UNL     1      35.472  -7.411 -22.857  0.00  0.00    -0.275 OA
ATOM     11  N   UNL     1      33.150  -7.582 -23.203  0.00  0.00    -0.284 N 
ATOM     12  C   UNL     1      34.445  -7.119 -23.464  0.00  0.00    +0.226 C 
ATOM     13  H   UNL     1      32.439  -7.218 -23.780  0.00  0.00    +0.155 HD
BRANCH  12  14
ATOM     14  C   UNL     1      34.489  -6.124 -24.613  0.00  0.00    +0.090 C 
BRANCH  14  15
ATOM     15  C   UNL     1      33.089  -5.819 -25.149  0.00  0.00    +0.036 C 
BRANCH  15  16
ATOM     16  C   UNL     1      32.603  -4.434 -24.797  0.00  0.00    -0.022 C 
ATOM     17  C   UNL     1      31.956  -4.210 -23.582  0.00  0.00    -0.004 C 
ATOM     18  C   UNL     1      32.801  -3.378 -25.687  0.00  0.00    -0.004 C 
ATOM     19  C   UNL     1      31.506  -2.930 -23.256  0.00  0.00    -0.000 C 
ATOM     20  C   UNL     1      32.351  -2.098 -25.361  0.00  0.00    -0.000 C 
ATOM     21  C   UNL     1      31.703  -1.875 -24.146  0.00  0.00    -0.000 C 
ENDBRANCH  15  16
ENDBRANCH  14  15
ENDBRANCH  12  14
ENDBRANCH   8  11
BRANCH   1  22
ATOM     22  C   UNL     1      32.550 -12.975 -22.641  0.00  0.00    +0.097 C 
BRANCH  22  23
ATOM     23  C   UNL     1      34.052 -13.083 -22.936  0.00  0.00    +0.040 C 
BRANCH  23  24
ATOM     24  C   UNL     1      34.508 -14.431 -23.539  0.00  0.00    +0.091 C 
BRANCH  24  25
ATOM     25  N   UNL     1      34.723 -15.483 -22.532  0.00  0.00    -0.246 NA
ATOM     26  N   UNL     1      34.838 -16.610 -20.621  0.00  0.00    -0.251 NA
ATOM     27  C   UNL     1      35.181 -16.756 -22.761  0.00  0.00    +0.125 C 
ATOM     28  C   UNL     1      34.526 -15.428 -21.233  0.00  0.00    +0.201 C 
ATOM     29  C   UNL     1      35.262 -17.475 -21.591  0.00  0.00    +0.124 C 
BRANCH  29  32
ATOM     30  O   UNL     1      35.096 -19.817 -21.862  0.00  0.00    -0.269 OA
ATOM     31  N   UNL     1      36.827 -19.035 -20.602  0.00  0.00    -0.324 N 
ATOM     32  C   UNL     1      35.682 -18.819 -21.378  0.00  0.00    +0.257 C 
ATOM     33  H   UNL     1      37.144 -19.952 -20.436  0.00  0.00    +0.145 HD
ATOM     34  H   UNL     1      37.316 -18.269 -20.222  0.00  0.00    +0.145 HD
ENDBRANCH  29  32
ENDBRANCH  24  25
BRANCH  24  35
ATOM     35  C   UNL     1      33.513 -14.908 -24.610  0.00  0.00    +0.153 C 
BRANCH  35  36
ATOM     36  O   UNL     1      34.222 -15.315 -25.775  0.00  0.00    -0.381 OA
ATOM     37  H   UNL     1      35.084 -15.678 -25.519  0.00  0.00    +0.210 HD
ENDBRANCH  35  36
ENDBRANCH  24  35
ENDBRANCH  23  24
ENDBRANCH  22  23
ENDBRANCH   1  22
TORSDOF 11
ENDMDL
