MODEL 1
REMARK VINA RESULT:     -12.9      0.000      0.000
REMARK  Name = 71351
REMARK  4 active torsions:
REMARK  status: ('A' for Active; 'I' for Inactive)
REMARK    1  A    between atoms: N_1  and  C_18
REMARK    2  A    between atoms: C_2  and  C_11
REMARK    3  A    between atoms: C_18  and  C_19
REMARK    4  A    between atoms: C_19  and  C_23
REMARK                            x       y       z     vdW  Elec       q    Type
REMARK                         _______ _______ _______ _____ _____    ______ ____
ROOT
ATOM      1  N   UNL     1      36.098 -19.715 -20.158  0.00  0.00    +0.387 N 
ATOM      2  C   UNL     1      35.542 -18.518 -22.778  0.00  0.00    +0.039 C 
ATOM      3  C   UNL     1      36.745 -18.097 -21.916  0.00  0.00    -0.017 C 
ATOM      4  C   UNL     1      34.434 -19.093 -21.881  0.00  0.00    -0.017 C 
ATOM      5  C   UNL     1      37.200 -19.239 -21.004  0.00  0.00    -0.077 C 
ATOM      6  C   UNL     1      34.975 -20.199 -20.971  0.00  0.00    -0.077 C 
ATOM      7  H   UNL     1      35.767 -18.927 -19.601  0.00  0.00    -0.080 HD
ENDROOT
BRANCH   2  11
ATOM      8  F   UNL     1      33.397 -12.186 -23.501  0.00  0.00    -0.204 F 
ATOM      9  O   UNL     1      34.459 -16.427 -25.505  0.00  0.00    -0.354 OA
ATOM     10  N   UNL     1      34.924 -17.627 -24.980  0.00  0.00    -0.081 NA
ATOM     11  C   UNL     1      35.049 -17.405 -23.674  0.00  0.00    +0.100 A 
ATOM     12  C   UNL     1      34.686 -16.102 -23.300  0.00  0.00    +0.054 A 
ATOM     13  C   UNL     1      34.318 -15.519 -24.500  0.00  0.00    +0.179 A 
ATOM     14  C   UNL     1      34.617 -15.342 -22.124  0.00  0.00    +0.007 C 
ATOM     15  C   UNL     1      33.876 -14.207 -24.632  0.00  0.00    +0.070 C 
ATOM     16  C   UNL     1      34.176 -14.014 -22.219  0.00  0.00    +0.030 C 
ATOM     17  C   UNL     1      33.814 -13.459 -23.451  0.00  0.00    +0.143 C 
ENDBRANCH   2  11
BRANCH   1  18
ATOM     18  C   UNL     1      36.565 -20.766 -19.253  0.00  0.00    -0.076 C 
BRANCH  18  19
ATOM     19  C   UNL     1      35.677 -21.995 -19.384  0.00  0.00    -0.007 C 
BRANCH  19  23
ATOM     20  O   UNL     1      32.982 -22.537 -19.009  0.00  0.00    -0.274 OA
ATOM     21  N   UNL     1      33.166 -22.988 -16.724  0.00  0.00    -0.211 N 
ATOM     22  N   UNL     1      35.307 -22.903 -15.699  0.00  0.00    -0.395 NA
ATOM     23  C   UNL     1      35.137 -22.409 -18.047  0.00  0.00    +0.123 C 
ATOM     24  C   UNL     1      35.848 -22.560 -16.913  0.00  0.00    +0.097 C 
ATOM     25  C   UNL     1      33.659 -22.647 -17.987  0.00  0.00    +0.241 C 
ATOM     26  C   UNL     1      34.026 -23.102 -15.625  0.00  0.00    +0.188 C 
ATOM     27  C   UNL     1      37.344 -22.388 -16.858  0.00  0.00    +0.062 C 
ATOM     28  C   UNL     1      33.408 -23.477 -14.303  0.00  0.00    +0.023 C 
ATOM     29  C   UNL     1      31.802 -23.217 -16.581  0.00  0.00    +0.074 C 
ATOM     30  C   UNL     1      32.084 -23.681 -14.245  0.00  0.00    +0.001 C 
ATOM     31  C   UNL     1      31.256 -23.549 -15.409  0.00  0.00    +0.016 C 
ATOM     32  C   UNL     1      34.304 -23.604 -13.110  0.00  0.00    +0.035 C 
ENDBRANCH  19  23
ENDBRANCH  18  19
ENDBRANCH   1  18
TORSDOF 4
ENDMDL
MODEL 2
REMARK VINA RESULT:     -12.8      3.471     10.347
REMARK  Name = 71351
REMARK  4 active torsions:
REMARK  status: ('A' for Active; 'I' for Inactive)
REMARK    1  A    between atoms: N_1  and  C_18
REMARK    2  A    between atoms: C_2  and  C_11
REMARK    3  A    between atoms: C_18  and  C_19
REMARK    4  A    between atoms: C_19  and  C_23
REMARK                            x       y       z     vdW  Elec       q    Type
REMARK                         _______ _______ _______ _____ _____    ______ ____
ROOT
ATOM      1  N   UNL     1      34.514 -20.644 -19.821  0.00  0.00    +0.387 N 
ATOM      2  C   UNL     1      34.321 -22.757 -17.795  0.00  0.00    +0.039 C 
ATOM      3  C   UNL     1      33.112 -21.907 -18.219  0.00  0.00    -0.017 C 
ATOM      4  C   UNL     1      35.622 -21.981 -18.057  0.00  0.00    -0.017 C 
ATOM      5  C   UNL     1      33.266 -21.400 -19.655  0.00  0.00    -0.077 C 
ATOM      6  C   UNL     1      35.683 -21.473 -19.500  0.00  0.00    -0.077 C 
ATOM      7  H   UNL     1      34.496 -19.859 -19.169  0.00  0.00    -0.080 HD
ENDROOT
BRANCH   2  11
ATOM      8  F   UNL     1      30.512 -24.370 -12.493  0.00  0.00    -0.204 F 
ATOM      9  O   UNL     1      34.886 -23.982 -14.454  0.00  0.00    -0.354 OA
ATOM     10  N   UNL     1      35.324 -23.569 -15.707  0.00  0.00    -0.081 NA
ATOM     11  C   UNL     1      34.215 -23.254 -16.372  0.00  0.00    +0.100 A 
ATOM     12  C   UNL     1      33.048 -23.440 -15.614  0.00  0.00    +0.054 A 
ATOM     13  C   UNL     1      33.528 -23.905 -14.402  0.00  0.00    +0.179 A 
ATOM     14  C   UNL     1      31.665 -23.281 -15.784  0.00  0.00    +0.007 C 
ATOM     15  C   UNL     1      32.725 -24.234 -13.315  0.00  0.00    +0.070 C 
ATOM     16  C   UNL     1      30.825 -23.604 -14.709  0.00  0.00    +0.030 C 
ATOM     17  C   UNL     1      31.347 -24.072 -13.498  0.00  0.00    +0.143 C 
ENDBRANCH   2  11
BRANCH   1  18
ATOM     18  C   UNL     1      34.617 -20.118 -21.183  0.00  0.00    -0.076 C 
BRANCH  18  19
ATOM     19  C   UNL     1      35.647 -18.999 -21.229  0.00  0.00    -0.007 C 
BRANCH  19  23
ATOM     20  O   UNL     1      35.133 -16.437 -20.297  0.00  0.00    -0.274 OA
ATOM     21  N   UNL     1      34.481 -15.577 -22.370  0.00  0.00    -0.211 N 
ATOM     22  N   UNL     1      34.552 -16.988 -24.279  0.00  0.00    -0.395 NA
ATOM     23  C   UNL     1      35.202 -17.901 -22.150  0.00  0.00    +0.123 C 
ATOM     24  C   UNL     1      34.999 -18.009 -23.478  0.00  0.00    +0.097 C 
ATOM     25  C   UNL     1      34.939 -16.575 -21.504  0.00  0.00    +0.241 C 
ATOM     26  C   UNL     1      34.307 -15.834 -23.735  0.00  0.00    +0.188 C 
ATOM     27  C   UNL     1      35.267 -19.278 -24.245  0.00  0.00    +0.062 C 
ATOM     28  C   UNL     1      33.814 -14.698 -24.592  0.00  0.00    +0.023 C 
ATOM     29  C   UNL     1      34.205 -14.319 -21.846  0.00  0.00    +0.074 C 
ATOM     30  C   UNL     1      33.569 -13.513 -24.015  0.00  0.00    +0.001 C 
ATOM     31  C   UNL     1      33.768 -13.312 -22.608  0.00  0.00    +0.016 C 
ATOM     32  C   UNL     1      33.618 -14.946 -26.056  0.00  0.00    +0.035 C 
ENDBRANCH  19  23
ENDBRANCH  18  19
ENDBRANCH   1  18
TORSDOF 4
ENDMDL
MODEL 3
REMARK VINA RESULT:     -12.7      4.003     10.273
REMARK  Name = 71351
REMARK  4 active torsions:
REMARK  status: ('A' for Active; 'I' for Inactive)
REMARK    1  A    between atoms: N_1  and  C_18
REMARK    2  A    between atoms: C_2  and  C_11
REMARK    3  A    between atoms: C_18  and  C_19
REMARK    4  A    between atoms: C_19  and  C_23
REMARK                            x       y       z     vdW  Elec       q    Type
REMARK                         _______ _______ _______ _____ _____    ______ ____
ROOT
ATOM      1  N   UNL     1      35.334 -15.948 -23.143  0.00  0.00    +0.387 N 
ATOM      2  C   UNL     1      34.922 -18.376 -21.548  0.00  0.00    +0.039 C 
ATOM      3  C   UNL     1      35.254 -17.017 -20.911  0.00  0.00    -0.017 C 
ATOM      4  C   UNL     1      35.444 -18.417 -22.994  0.00  0.00    -0.017 C 
ATOM      5  C   UNL     1      34.771 -15.860 -21.789  0.00  0.00    -0.077 C 
ATOM      6  C   UNL     1      34.952 -17.208 -23.795  0.00  0.00    -0.077 C 
ATOM      7  H   UNL     1      36.351 -15.931 -23.062  0.00  0.00    -0.080 HD
ENDROOT
BRANCH   2  11
ATOM      8  F   UNL     1      33.548 -23.710 -17.690  0.00  0.00    -0.204 F 
ATOM      9  O   UNL     1      36.822 -20.883 -19.790  0.00  0.00    -0.354 OA
ATOM     10  N   UNL     1      36.716 -19.756 -20.597  0.00  0.00    -0.081 NA
ATOM     11  C   UNL     1      35.408 -19.544 -20.720  0.00  0.00    +0.100 A 
ATOM     12  C   UNL     1      34.631 -20.485 -20.028  0.00  0.00    +0.054 A 
ATOM     13  C   UNL     1      35.577 -21.315 -19.453  0.00  0.00    +0.179 A 
ATOM     14  C   UNL     1      33.270 -20.747 -19.809  0.00  0.00    +0.007 C 
ATOM     15  C   UNL     1      35.274 -22.415 -18.656  0.00  0.00    +0.070 C 
ATOM     16  C   UNL     1      32.929 -21.848 -19.011  0.00  0.00    +0.030 C 
ATOM     17  C   UNL     1      33.914 -22.666 -18.447  0.00  0.00    +0.143 C 
ENDBRANCH   2  11
BRANCH   1  18
ATOM     18  C   UNL     1      34.908 -14.805 -23.950  0.00  0.00    -0.076 C 
BRANCH  18  19
ATOM     19  C   UNL     1      33.427 -14.536 -23.726  0.00  0.00    -0.007 C 
BRANCH  19  23
ATOM     20  O   UNL     1      32.212 -14.088 -21.272  0.00  0.00    -0.274 OA
ATOM     21  N   UNL     1      32.285 -11.756 -21.415  0.00  0.00    -0.211 N 
ATOM     22  N   UNL     1      33.298 -10.747 -23.312  0.00  0.00    -0.395 NA
ATOM     23  C   UNL     1      33.209 -13.148 -23.198  0.00  0.00    +0.123 C 
ATOM     24  C   UNL     1      33.552 -11.999 -23.813  0.00  0.00    +0.097 C 
ATOM     25  C   UNL     1      32.521 -13.057 -21.871  0.00  0.00    +0.241 C 
ATOM     26  C   UNL     1      32.691 -10.648 -22.168  0.00  0.00    +0.188 C 
ATOM     27  C   UNL     1      34.283 -11.964 -25.130  0.00  0.00    +0.062 C 
ATOM     28  C   UNL     1      32.399  -9.284 -21.598  0.00  0.00    +0.023 C 
ATOM     29  C   UNL     1      31.642 -11.585 -20.195  0.00  0.00    +0.074 C 
ATOM     30  C   UNL     1      31.774  -9.200 -20.415  0.00  0.00    +0.001 C 
ATOM     31  C   UNL     1      31.384 -10.376 -19.691  0.00  0.00    +0.016 C 
ATOM     32  C   UNL     1      32.820  -8.080 -22.383  0.00  0.00    +0.035 C 
ENDBRANCH  19  23
ENDBRANCH  18  19
ENDBRANCH   1  18
TORSDOF 4
ENDMDL
MODEL 4
REMARK VINA RESULT:     -12.4      3.694     10.450
REMARK  Name = 71351
REMARK  4 active torsions:
REMARK  status: ('A' for Active; 'I' for Inactive)
REMARK    1  A    between atoms: N_1  and  C_18
REMARK    2  A    between atoms: C_2  and  C_11
REMARK    3  A    between atoms: C_18  and  C_19
REMARK    4  A    between atoms: C_19  and  C_23
REMARK                            x       y       z     vdW  Elec       q    Type
REMARK                         _______ _______ _______ _____ _____    ______ ____
ROOT
ATOM      1  N   UNL     1      34.463 -20.758 -19.659  0.00  0.00    +0.387 N 
ATOM      2  C   UNL     1      34.506 -22.841 -17.593  0.00  0.00    +0.039 C 
ATOM      3  C   UNL     1      33.216 -22.113 -18.004  0.00  0.00    -0.017 C 
ATOM      4  C   UNL     1      35.725 -21.955 -17.898  0.00  0.00    -0.017 C 
ATOM      5  C   UNL     1      33.292 -21.622 -19.452  0.00  0.00    -0.077 C 
ATOM      6  C   UNL     1      35.709 -21.471 -19.350  0.00  0.00    -0.077 C 
ATOM      7  H   UNL     1      34.386 -19.966 -19.020  0.00  0.00    -0.080 HD
ENDROOT
BRANCH   2  11
ATOM      8  F   UNL     1      37.807 -24.604 -12.006  0.00  0.00    -0.204 F 
ATOM      9  O   UNL     1      33.621 -23.962 -14.285  0.00  0.00    -0.354 OA
ATOM     10  N   UNL     1      33.303 -23.543 -15.571  0.00  0.00    -0.081 NA
ATOM     11  C   UNL     1      34.476 -23.318 -16.159  0.00  0.00    +0.100 A 
ATOM     12  C   UNL     1      35.570 -23.568 -15.317  0.00  0.00    +0.054 A 
ATOM     13  C   UNL     1      34.974 -23.975 -14.136  0.00  0.00    +0.179 A 
ATOM     14  C   UNL     1      36.970 -23.508 -15.389  0.00  0.00    +0.007 C 
ATOM     15  C   UNL     1      35.673 -24.337 -12.988  0.00  0.00    +0.070 C 
ATOM     16  C   UNL     1      37.707 -23.865 -14.250  0.00  0.00    +0.030 C 
ATOM     17  C   UNL     1      37.068 -24.271 -13.073  0.00  0.00    +0.143 C 
ENDBRANCH   2  11
BRANCH   1  18
ATOM     18  C   UNL     1      34.489 -20.252 -21.031  0.00  0.00    -0.076 C 
BRANCH  18  19
ATOM     19  C   UNL     1      35.616 -19.242 -21.189  0.00  0.00    -0.007 C 
BRANCH  19  23
ATOM     20  O   UNL     1      35.229 -16.658 -20.255  0.00  0.00    -0.274 OA
ATOM     21  N   UNL     1      34.592 -15.772 -22.322  0.00  0.00    -0.211 N 
ATOM     22  N   UNL     1      34.576 -17.187 -24.229  0.00  0.00    -0.395 NA
ATOM     23  C   UNL     1      35.209 -18.126 -22.107  0.00  0.00    +0.123 C 
ATOM     24  C   UNL     1      34.986 -18.226 -23.432  0.00  0.00    +0.097 C 
ATOM     25  C   UNL     1      35.014 -16.789 -21.460  0.00  0.00    +0.241 C 
ATOM     26  C   UNL     1      34.390 -16.023 -23.684  0.00  0.00    +0.188 C 
ATOM     27  C   UNL     1      35.187 -19.507 -24.200  0.00  0.00    +0.062 C 
ATOM     28  C   UNL     1      33.937 -14.867 -24.537  0.00  0.00    +0.023 C 
ATOM     29  C   UNL     1      34.379 -14.502 -21.797  0.00  0.00    +0.074 C 
ATOM     30  C   UNL     1      33.753 -13.672 -23.959  0.00  0.00    +0.001 C 
ATOM     31  C   UNL     1      33.978 -13.478 -22.555  0.00  0.00    +0.016 C 
ATOM     32  C   UNL     1      33.713 -15.108 -25.999  0.00  0.00    +0.035 C 
ENDBRANCH  19  23
ENDBRANCH  18  19
ENDBRANCH   1  18
TORSDOF 4
ENDMDL
MODEL 5
REMARK VINA RESULT:     -12.4      4.634     11.435
REMARK  Name = 71351
REMARK  4 active torsions:
REMARK  status: ('A' for Active; 'I' for Inactive)
REMARK    1  A    between atoms: N_1  and  C_18
REMARK    2  A    between atoms: C_2  and  C_11
REMARK    3  A    between atoms: C_18  and  C_19
REMARK    4  A    between atoms: C_19  and  C_23
REMARK                            x       y       z     vdW  Elec       q    Type
REMARK                         _______ _______ _______ _____ _____    ______ ____
ROOT
ATOM      1  N   UNL     1      34.584 -14.658 -22.913  0.00  0.00    +0.387 N 
ATOM      2  C   UNL     1      34.650 -17.374 -21.808  0.00  0.00    +0.039 C 
ATOM      3  C   UNL     1      34.575 -16.123 -20.918  0.00  0.00    -0.017 C 
ATOM      4  C   UNL     1      35.293 -17.017 -23.159  0.00  0.00    -0.017 C 
ATOM      5  C   UNL     1      33.898 -14.961 -21.650  0.00  0.00    -0.077 C 
ATOM      6  C   UNL     1      34.588 -15.822 -23.808  0.00  0.00    -0.077 C 
ATOM      7  H   UNL     1      35.553 -14.424 -22.697  0.00  0.00    -0.080 HD
ENDROOT
BRANCH   2  11
ATOM      8  F   UNL     1      34.241 -23.274 -18.606  0.00  0.00    -0.204 F 
ATOM      9  O   UNL     1      36.969 -19.726 -20.366  0.00  0.00    -0.354 OA
ATOM     10  N   UNL     1      36.665 -18.545 -21.033  0.00  0.00    -0.081 NA
ATOM     11  C   UNL     1      35.337 -18.536 -21.126  0.00  0.00    +0.100 A 
ATOM     12  C   UNL     1      34.737 -19.665 -20.548  0.00  0.00    +0.054 A 
ATOM     13  C   UNL     1      35.817 -20.392 -20.078  0.00  0.00    +0.179 A 
ATOM     14  C   UNL     1      33.442 -20.168 -20.357  0.00  0.00    +0.007 C 
ATOM     15  C   UNL     1      35.714 -21.612 -19.417  0.00  0.00    +0.070 C 
ATOM     16  C   UNL     1      33.300 -21.396 -19.695  0.00  0.00    +0.030 C 
ATOM     17  C   UNL     1      34.417 -22.103 -19.235  0.00  0.00    +0.143 C 
ENDBRANCH   2  11
BRANCH   1  18
ATOM     18  C   UNL     1      33.960 -13.509 -23.571  0.00  0.00    -0.076 C 
BRANCH  18  19
ATOM     19  C   UNL     1      32.794 -13.004 -22.733  0.00  0.00    -0.007 C 
BRANCH  19  23
ATOM     20  O   UNL     1      34.568 -11.466 -24.210  0.00  0.00    -0.274 OA
ATOM     21  N   UNL     1      33.924  -9.426 -23.270  0.00  0.00    -0.211 N 
ATOM     22  N   UNL     1      32.174  -9.396 -21.664  0.00  0.00    -0.395 NA
ATOM     23  C   UNL     1      32.840 -11.510 -22.599  0.00  0.00    +0.123 C 
ATOM     24  C   UNL     1      32.072 -10.759 -21.785  0.00  0.00    +0.097 C 
ATOM     25  C   UNL     1      33.863 -10.812 -23.441  0.00  0.00    +0.241 C 
ATOM     26  C   UNL     1      33.064  -8.775 -22.377  0.00  0.00    +0.188 C 
ATOM     27  C   UNL     1      30.984 -11.343 -20.922  0.00  0.00    +0.062 C 
ATOM     28  C   UNL     1      33.198  -7.279 -22.259  0.00  0.00    +0.023 C 
ATOM     29  C   UNL     1      34.855  -8.704 -24.009  0.00  0.00    +0.074 C 
ATOM     30  C   UNL     1      34.120  -6.653 -23.005  0.00  0.00    +0.001 C 
ATOM     31  C   UNL     1      34.971  -7.378 -23.903  0.00  0.00    +0.016 C 
ATOM     32  C   UNL     1      32.291  -6.557 -21.310  0.00  0.00    +0.035 C 
ENDBRANCH  19  23
ENDBRANCH  18  19
ENDBRANCH   1  18
TORSDOF 4
ENDMDL
MODEL 6
REMARK VINA RESULT:     -12.3      2.538      4.117
REMARK  Name = 71351
REMARK  4 active torsions:
REMARK  status: ('A' for Active; 'I' for Inactive)
REMARK    1  A    between atoms: N_1  and  C_18
REMARK    2  A    between atoms: C_2  and  C_11
REMARK    3  A    between atoms: C_18  and  C_19
REMARK    4  A    between atoms: C_19  and  C_23
REMARK                            x       y       z     vdW  Elec       q    Type
REMARK                         _______ _______ _______ _____ _____    ______ ____
ROOT
ATOM      1  N   UNL     1      34.384 -22.394 -18.910  0.00  0.00    +0.387 N 
ATOM      2  C   UNL     1      34.716 -19.886 -20.395  0.00  0.00    +0.039 C 
ATOM      3  C   UNL     1      33.353 -20.583 -20.246  0.00  0.00    -0.017 C 
ATOM      4  C   UNL     1      35.848 -20.917 -20.253  0.00  0.00    -0.017 C 
ATOM      5  C   UNL     1      33.292 -21.412 -18.961  0.00  0.00    -0.077 C 
ATOM      6  C   UNL     1      35.695 -21.733 -18.967  0.00  0.00    -0.077 C 
ATOM      7  H   UNL     1      34.301 -22.999 -19.727  0.00  0.00    -0.080 HD
ENDROOT
BRANCH   2  11
ATOM      8  F   UNL     1      34.830 -13.901 -23.460  0.00  0.00    -0.204 F 
ATOM      9  O   UNL     1      35.032 -18.695 -23.782  0.00  0.00    -0.354 OA
ATOM     10  N   UNL     1      34.967 -19.707 -22.831  0.00  0.00    -0.081 NA
ATOM     11  C   UNL     1      34.821 -19.077 -21.668  0.00  0.00    +0.100 A 
ATOM     12  C   UNL     1      34.786 -17.680 -21.800  0.00  0.00    +0.054 A 
ATOM     13  C   UNL     1      34.924 -17.487 -23.163  0.00  0.00    +0.179 A 
ATOM     14  C   UNL     1      34.657 -16.562 -20.963  0.00  0.00    +0.007 C 
ATOM     15  C   UNL     1      34.945 -16.241 -23.781  0.00  0.00    +0.070 C 
ATOM     16  C   UNL     1      34.675 -15.290 -21.551  0.00  0.00    +0.030 C 
ATOM     17  C   UNL     1      34.817 -15.134 -22.934  0.00  0.00    +0.143 C 
ENDBRANCH   2  11
BRANCH   1  18
ATOM     18  C   UNL     1      34.277 -23.216 -17.705  0.00  0.00    -0.076 C 
BRANCH  18  19
ATOM     19  C   UNL     1      34.737 -22.419 -16.492  0.00  0.00    -0.007 C 
BRANCH  19  23
ATOM     20  O   UNL     1      37.505 -22.553 -16.615  0.00  0.00    -0.274 OA
ATOM     21  N   UNL     1      37.724 -24.121 -14.895  0.00  0.00    -0.211 N 
ATOM     22  N   UNL     1      35.776 -24.877 -13.767  0.00  0.00    -0.395 NA
ATOM     23  C   UNL     1      35.525 -23.284 -15.552  0.00  0.00    +0.123 C 
ATOM     24  C   UNL     1      35.021 -24.070 -14.581  0.00  0.00    +0.097 C 
ATOM     25  C   UNL     1      37.009 -23.275 -15.749  0.00  0.00    +0.241 C 
ATOM     26  C   UNL     1      37.064 -24.892 -13.932  0.00  0.00    +0.188 C 
ATOM     27  C   UNL     1      33.549 -24.132 -14.262  0.00  0.00    +0.062 C 
ATOM     28  C   UNL     1      37.914 -25.772 -13.053  0.00  0.00    +0.023 C 
ATOM     29  C   UNL     1      39.108 -24.178 -15.020  0.00  0.00    +0.074 C 
ATOM     30  C   UNL     1      39.243 -25.772 -13.234  0.00  0.00    +0.001 C 
ATOM     31  C   UNL     1      39.860 -24.958 -14.240  0.00  0.00    +0.016 C 
ATOM     32  C   UNL     1      37.234 -26.609 -12.013  0.00  0.00    +0.035 C 
ENDBRANCH  19  23
ENDBRANCH  18  19
ENDBRANCH   1  18
TORSDOF 4
ENDMDL
MODEL 7
REMARK VINA RESULT:     -12.3      3.319     10.278
REMARK  Name = 71351
REMARK  4 active torsions:
REMARK  status: ('A' for Active; 'I' for Inactive)
REMARK    1  A    between atoms: N_1  and  C_18
REMARK    2  A    between atoms: C_2  and  C_11
REMARK    3  A    between atoms: C_18  and  C_19
REMARK    4  A    between atoms: C_19  and  C_23
REMARK                            x       y       z     vdW  Elec       q    Type
REMARK                         _______ _______ _______ _____ _____    ______ ____
ROOT
ATOM      1  N   UNL     1      34.513 -20.098 -20.374  0.00  0.00    +0.387 N 
ATOM      2  C   UNL     1      34.245 -22.303 -18.458  0.00  0.00    +0.039 C 
ATOM      3  C   UNL     1      33.086 -21.347 -18.784  0.00  0.00    -0.017 C 
ATOM      4  C   UNL     1      35.588 -21.608 -18.733  0.00  0.00    -0.017 C 
ATOM      5  C   UNL     1      33.221 -20.772 -20.196  0.00  0.00    -0.077 C 
ATOM      6  C   UNL     1      35.631 -21.024 -20.148  0.00  0.00    -0.077 C 
ATOM      7  H   UNL     1      34.578 -19.352 -19.681  0.00  0.00    -0.080 HD
ENDROOT
BRANCH   2  11
ATOM      8  F   UNL     1      30.501 -24.340 -13.256  0.00  0.00    -0.204 F 
ATOM      9  O   UNL     1      34.858 -23.655 -15.174  0.00  0.00    -0.354 OA
ATOM     10  N   UNL     1      35.279 -23.164 -16.404  0.00  0.00    -0.081 NA
ATOM     11  C   UNL     1      34.158 -22.870 -17.060  0.00  0.00    +0.100 A 
ATOM     12  C   UNL     1      33.000 -23.147 -16.318  0.00  0.00    +0.054 A 
ATOM     13  C   UNL     1      33.497 -23.644 -15.126  0.00  0.00    +0.179 A 
ATOM     14  C   UNL     1      31.611 -23.045 -16.487  0.00  0.00    +0.007 C 
ATOM     15  C   UNL     1      32.707 -24.061 -14.059  0.00  0.00    +0.070 C 
ATOM     16  C   UNL     1      30.784 -23.457 -15.433  0.00  0.00    +0.030 C 
ATOM     17  C   UNL     1      31.324 -23.956 -14.242  0.00  0.00    +0.143 C 
ENDBRANCH   2  11
BRANCH   1  18
ATOM     18  C   UNL     1      34.602 -19.506 -21.709  0.00  0.00    -0.076 C 
BRANCH  18  19
ATOM     19  C   UNL     1      35.627 -18.381 -21.710  0.00  0.00    -0.007 C 
BRANCH  19  23
ATOM     20  O   UNL     1      35.168 -18.033 -24.423  0.00  0.00    -0.274 OA
ATOM     21  N   UNL     1      34.347 -15.853 -24.228  0.00  0.00    -0.211 N 
ATOM     22  N   UNL     1      34.159 -14.880 -22.070  0.00  0.00    -0.395 NA
ATOM     23  C   UNL     1      35.031 -17.114 -22.250  0.00  0.00    +0.123 C 
ATOM     24  C   UNL     1      34.664 -16.036 -21.530  0.00  0.00    +0.097 C 
ATOM     25  C   UNL     1      34.861 -17.057 -23.737  0.00  0.00    +0.241 C 
ATOM     26  C   UNL     1      34.016 -14.807 -23.358  0.00  0.00    +0.188 C 
ATOM     27  C   UNL     1      34.750 -15.990 -20.027  0.00  0.00    +0.062 C 
ATOM     28  C   UNL     1      33.465 -13.548 -23.975  0.00  0.00    +0.023 C 
ATOM     29  C   UNL     1      34.168 -15.716 -25.600  0.00  0.00    +0.074 C 
ATOM     30  C   UNL     1      33.322 -13.491 -25.307  0.00  0.00    +0.001 C 
ATOM     31  C   UNL     1      33.680 -14.599 -26.145  0.00  0.00    +0.016 C 
ATOM     32  C   UNL     1      33.103 -12.412 -23.068  0.00  0.00    +0.035 C 
ENDBRANCH  19  23
ENDBRANCH  18  19
ENDBRANCH   1  18
TORSDOF 4
ENDMDL
MODEL 8
REMARK VINA RESULT:     -12.3      3.228     10.253
REMARK  Name = 71351
REMARK  4 active torsions:
REMARK  status: ('A' for Active; 'I' for Inactive)
REMARK    1  A    between atoms: N_1  and  C_18
REMARK    2  A    between atoms: C_2  and  C_11
REMARK    3  A    between atoms: C_18  and  C_19
REMARK    4  A    between atoms: C_19  and  C_23
REMARK                            x       y       z     vdW  Elec       q    Type
REMARK                         _______ _______ _______ _____ _____    ______ ____
ROOT
ATOM      1  N   UNL     1      35.776 -19.193 -20.727  0.00  0.00    +0.387 N 
ATOM      2  C   UNL     1      34.914 -21.658 -19.390  0.00  0.00    +0.039 C 
ATOM      3  C   UNL     1      33.919 -20.589 -19.871  0.00  0.00    -0.017 C 
ATOM      4  C   UNL     1      36.287 -21.016 -19.132  0.00  0.00    -0.017 C 
ATOM      5  C   UNL     1      34.481 -19.802 -21.058  0.00  0.00    -0.077 C 
ATOM      6  C   UNL     1      36.761 -20.214 -20.347  0.00  0.00    -0.077 C 
ATOM      7  H   UNL     1      35.638 -18.576 -19.926  0.00  0.00    -0.080 HD
ENDROOT
BRANCH   2  11
ATOM      8  F   UNL     1      35.941 -24.173 -13.238  0.00  0.00    -0.204 F 
ATOM      9  O   UNL     1      33.014 -23.582 -17.008  0.00  0.00    -0.354 OA
ATOM     10  N   UNL     1      33.168 -22.934 -18.228  0.00  0.00    -0.081 NA
ATOM     11  C   UNL     1      34.403 -22.439 -18.201  0.00  0.00    +0.100 A 
ATOM     12  C   UNL     1      35.085 -22.727 -17.008  0.00  0.00    +0.054 A 
ATOM     13  C   UNL     1      34.159 -23.455 -16.282  0.00  0.00    +0.179 A 
ATOM     14  C   UNL     1      36.345 -22.475 -16.448  0.00  0.00    +0.007 C 
ATOM     15  C   UNL     1      34.388 -23.969 -15.010  0.00  0.00    +0.070 C 
ATOM     16  C   UNL     1      36.611 -22.977 -15.166  0.00  0.00    +0.030 C 
ATOM     17  C   UNL     1      35.649 -23.709 -14.462  0.00  0.00    +0.143 C 
ENDBRANCH   2  11
BRANCH   1  18
ATOM     18  C   UNL     1      36.270 -18.398 -21.852  0.00  0.00    -0.076 C 
BRANCH  18  19
ATOM     19  C   UNL     1      35.214 -18.338 -22.946  0.00  0.00    -0.007 C 
BRANCH  19  23
ATOM     20  O   UNL     1      34.711 -17.427 -25.517  0.00  0.00    -0.274 OA
ATOM     21  N   UNL     1      34.242 -15.227 -24.882  0.00  0.00    -0.211 N 
ATOM     22  N   UNL     1      34.287 -14.657 -22.576  0.00  0.00    -0.395 NA
ATOM     23  C   UNL     1      34.799 -16.920 -23.211  0.00  0.00    +0.123 C 
ATOM     24  C   UNL     1      34.629 -15.954 -22.287  0.00  0.00    +0.097 C 
ATOM     25  C   UNL     1      34.584 -16.563 -24.649  0.00  0.00    +0.241 C 
ATOM     26  C   UNL     1      34.108 -14.325 -23.819  0.00  0.00    +0.188 C 
ATOM     27  C   UNL     1      34.778 -16.203 -20.808  0.00  0.00    +0.062 C 
ATOM     28  C   UNL     1      33.734 -12.907 -24.163  0.00  0.00    +0.023 C 
ATOM     29  C   UNL     1      34.035 -14.812 -26.192  0.00  0.00    +0.074 C 
ATOM     30  C   UNL     1      33.551 -12.582 -25.451  0.00  0.00    +0.001 C 
ATOM     31  C   UNL     1      33.703 -13.554 -26.495  0.00  0.00    +0.016 C 
ATOM     32  C   UNL     1      33.585 -11.921 -23.046  0.00  0.00    +0.035 C 
ENDBRANCH  19  23
ENDBRANCH  18  19
ENDBRANCH   1  18
TORSDOF 4
ENDMDL
MODEL 9
REMARK VINA RESULT:     -11.9      1.064      2.044
REMARK  Name = 71351
REMARK  4 active torsions:
REMARK  status: ('A' for Active; 'I' for Inactive)
REMARK    1  A    between atoms: N_1  and  C_18
REMARK    2  A    between atoms: C_2  and  C_11
REMARK    3  A    between atoms: C_18  and  C_19
REMARK    4  A    between atoms: C_19  and  C_23
REMARK                            x       y       z     vdW  Elec       q    Type
REMARK                         _______ _______ _______ _____ _____    ______ ____
ROOT
ATOM      1  N   UNL     1      36.279 -19.504 -20.242  0.00  0.00    +0.387 N 
ATOM      2  C   UNL     1      35.611 -18.367 -22.863  0.00  0.00    +0.039 C 
ATOM      3  C   UNL     1      36.807 -17.876 -22.031  0.00  0.00    -0.017 C 
ATOM      4  C   UNL     1      34.551 -18.988 -21.938  0.00  0.00    -0.017 C 
ATOM      5  C   UNL     1      37.338 -18.982 -21.116  0.00  0.00    -0.077 C 
ATOM      6  C   UNL     1      35.166 -20.054 -21.027  0.00  0.00    -0.077 C 
ATOM      7  H   UNL     1      35.918 -18.727 -19.687  0.00  0.00    -0.080 HD
ENDROOT
BRANCH   2  11
ATOM      8  F   UNL     1      33.321 -12.093 -23.650  0.00  0.00    -0.204 F 
ATOM      9  O   UNL     1      34.322 -16.383 -25.581  0.00  0.00    -0.354 OA
ATOM     10  N   UNL     1      34.839 -17.558 -25.049  0.00  0.00    -0.081 NA
ATOM     11  C   UNL     1      35.043 -17.292 -23.761  0.00  0.00    +0.100 A 
ATOM     12  C   UNL     1      34.683 -15.982 -23.406  0.00  0.00    +0.054 A 
ATOM     13  C   UNL     1      34.231 -15.445 -24.599  0.00  0.00    +0.179 A 
ATOM     14  C   UNL     1      34.677 -15.185 -22.253  0.00  0.00    +0.007 C 
ATOM     15  C   UNL     1      33.760 -14.143 -24.743  0.00  0.00    +0.070 C 
ATOM     16  C   UNL     1      34.210 -13.867 -22.362  0.00  0.00    +0.030 C 
ATOM     17  C   UNL     1      33.761 -13.358 -23.585  0.00  0.00    +0.143 C 
ENDBRANCH   2  11
BRANCH   1  18
ATOM     18  C   UNL     1      36.817 -20.519 -19.336  0.00  0.00    -0.076 C 
BRANCH  18  19
ATOM     19  C   UNL     1      36.088 -21.838 -19.545  0.00  0.00    -0.007 C 
BRANCH  19  23
ATOM     20  O   UNL     1      37.393 -22.365 -17.154  0.00  0.00    -0.274 OA
ATOM     21  N   UNL     1      35.458 -22.922 -15.967  0.00  0.00    -0.211 N 
ATOM     22  N   UNL     1      33.354 -22.786 -17.061  0.00  0.00    -0.395 NA
ATOM     23  C   UNL     1      35.334 -22.234 -18.309  0.00  0.00    +0.123 C 
ATOM     24  C   UNL     1      34.000 -22.383 -18.202  0.00  0.00    +0.097 C 
ATOM     25  C   UNL     1      36.171 -22.510 -17.097  0.00  0.00    +0.241 C 
ATOM     26  C   UNL     1      34.063 -23.042 -16.004  0.00  0.00    +0.188 C 
ATOM     27  C   UNL     1      33.053 -22.096 -19.339  0.00  0.00    +0.062 C 
ATOM     28  C   UNL     1      33.378 -23.489 -14.739  0.00  0.00    +0.023 C 
ATOM     29  C   UNL     1      36.162 -23.208 -14.803  0.00  0.00    +0.074 C 
ATOM     30  C   UNL     1      34.126 -23.746 -13.656  0.00  0.00    +0.001 C 
ATOM     31  C   UNL     1      35.553 -23.603 -13.683  0.00  0.00    +0.016 C 
ATOM     32  C   UNL     1      31.886 -23.626 -14.749  0.00  0.00    +0.035 C 
ENDBRANCH  19  23
ENDBRANCH  18  19
ENDBRANCH   1  18
TORSDOF 4
ENDMDL
