MODEL 1
REMARK VINA RESULT:     -11.9      0.000      0.000
REMARK  Name = 118513932
REMARK  2 active torsions:
REMARK  status: ('A' for Active; 'I' for Inactive)
REMARK    1  A    between atoms: C_4  and  N_24
REMARK    2  A    between atoms: C_10  and  C_15
REMARK                            x       y       z     vdW  Elec       q    Type
REMARK                         _______ _______ _______ _____ _____    ______ ____
ROOT
ATOM      1  O   UNL     1      32.480 -22.752 -18.191  0.00  0.00    -0.274 OA
ATOM      2  N   UNL     1      34.741 -22.351 -17.693  0.00  0.00    -0.209 N 
ATOM      3  N   UNL     1      35.955 -20.798 -19.041  0.00  0.00    -0.389 NA
ATOM      4  C   UNL     1      35.856 -23.459 -15.872  0.00  0.00    +0.063 C 
ATOM      5  C   UNL     1      34.761 -23.233 -16.619  0.00  0.00    +0.089 C 
ATOM      6  C   UNL     1      37.067 -22.743 -16.212  0.00  0.00    +0.020 C 
ATOM      7  C   UNL     1      37.113 -21.881 -17.233  0.00  0.00    +0.050 C 
ATOM      8  C   UNL     1      35.894 -21.639 -18.053  0.00  0.00    +0.193 C 
ATOM      9  C   UNL     1      33.549 -22.187 -18.410  0.00  0.00    +0.242 C 
ATOM     10  C   UNL     1      34.806 -20.617 -19.758  0.00  0.00    +0.139 C 
ATOM     11  C   UNL     1      33.637 -21.224 -19.533  0.00  0.00    +0.146 C 
ENDROOT
BRANCH  10  15
ATOM     12  N   UNL     1      34.858 -17.649 -21.811  0.00  0.00    -0.178 N 
ATOM     13  N   UNL     1      34.808 -18.387 -20.672  0.00  0.00    -0.173 NA
ATOM     14  N   UNL     1      34.973 -17.117 -23.971  0.00  0.00    -0.392 NA
ATOM     15  C   UNL     1      34.850 -19.674 -20.880  0.00  0.00    +0.124 C 
ATOM     16  C   UNL     1      34.944 -20.316 -22.226  0.00  0.00    +0.023 C 
ATOM     17  C   UNL     1      34.991 -19.527 -23.316  0.00  0.00    +0.025 C 
ATOM     18  C   UNL     1      34.946 -18.115 -23.110  0.00  0.00    +0.198 C 
ATOM     19  C   UNL     1      34.831 -16.281 -21.873  0.00  0.00    +0.173 C 
ATOM     20  C   UNL     1      34.903 -15.978 -23.211  0.00  0.00    +0.111 C 
ATOM     21  C   UNL     1      35.086 -20.151 -24.684  0.00  0.00    +0.035 C 
ATOM     22  C   UNL     1      34.911 -14.652 -23.846  0.00  0.00    +0.063 C 
ENDBRANCH  10  15
BRANCH   4  24
ATOM     23  N   UNL     1      36.204 -25.511 -12.224  0.00  0.00    +0.389 N 
ATOM     24  N   UNL     1      35.890 -24.321 -14.815  0.00  0.00    -0.311 N 
ATOM     25  C   UNL     1      37.364 -25.295 -13.127  0.00  0.00    -0.027 C 
ATOM     26  C   UNL     1      38.685 -25.926 -12.748  0.00  0.00    -0.020 C 
ATOM     27  C   UNL     1      38.512 -24.441 -12.631  0.00  0.00    -0.020 C 
ATOM     28  C   UNL     1      37.013 -25.240 -14.600  0.00  0.00    +0.071 C 
ATOM     29  C   UNL     1      35.176 -24.498 -12.472  0.00  0.00    -0.060 C 
ATOM     30  C   UNL     1      34.733 -24.516 -13.935  0.00  0.00    +0.067 C 
ATOM     31  H   UNL     1      36.513 -25.447 -11.255  0.00  0.00    -0.084 HD
ATOM     32  H   UNL     1      35.810 -26.435 -12.403  0.00  0.00    -0.084 HD
ENDBRANCH   4  24
TORSDOF 2
ENDMDL
MODEL 2
REMARK VINA RESULT:     -11.0      7.551     14.755
REMARK  Name = 118513932
REMARK  2 active torsions:
REMARK  status: ('A' for Active; 'I' for Inactive)
REMARK    1  A    between atoms: C_4  and  N_24
REMARK    2  A    between atoms: C_10  and  C_15
REMARK                            x       y       z     vdW  Elec       q    Type
REMARK                         _______ _______ _______ _____ _____    ______ ____
ROOT
ATOM      1  O   UNL     1      30.696 -10.772 -20.508  0.00  0.00    -0.274 OA
ATOM      2  N   UNL     1      32.207  -9.758 -21.996  0.00  0.00    -0.209 N 
ATOM      3  N   UNL     1      33.682 -11.148 -23.259  0.00  0.00    -0.389 NA
ATOM      4  C   UNL     1      32.304  -7.371 -22.274  0.00  0.00    +0.063 C 
ATOM      5  C   UNL     1      31.781  -8.468 -21.701  0.00  0.00    +0.089 C 
ATOM      6  C   UNL     1      33.363  -7.553 -23.245  0.00  0.00    +0.020 C 
ATOM      7  C   UNL     1      33.817  -8.768 -23.572  0.00  0.00    +0.050 C 
ATOM      8  C   UNL     1      33.229  -9.975 -22.930  0.00  0.00    +0.193 C 
ATOM      9  C   UNL     1      31.597 -10.836 -21.342  0.00  0.00    +0.242 C 
ATOM     10  C   UNL     1      33.104 -12.219 -22.637  0.00  0.00    +0.139 C 
ATOM     11  C   UNL     1      32.125 -12.166 -21.729  0.00  0.00    +0.146 C 
ENDROOT
BRANCH  10  15
ATOM     12  N   UNL     1      34.559 -15.522 -22.578  0.00  0.00    -0.178 N 
ATOM     13  N   UNL     1      34.157 -14.318 -22.095  0.00  0.00    -0.173 NA
ATOM     14  N   UNL     1      34.937 -17.203 -23.989  0.00  0.00    -0.392 NA
ATOM     15  C   UNL     1      33.598 -13.554 -22.990  0.00  0.00    +0.124 C 
ATOM     16  C   UNL     1      33.400 -13.928 -24.423  0.00  0.00    +0.023 C 
ATOM     17  C   UNL     1      33.822 -15.136 -24.840  0.00  0.00    +0.025 C 
ATOM     18  C   UNL     1      34.436 -15.988 -23.874  0.00  0.00    +0.198 C 
ATOM     19  C   UNL     1      35.171 -16.507 -21.849  0.00  0.00    +0.173 C 
ATOM     20  C   UNL     1      35.393 -17.530 -22.738  0.00  0.00    +0.111 C 
ATOM     21  C   UNL     1      33.634 -15.536 -26.281  0.00  0.00    +0.035 C 
ATOM     22  C   UNL     1      36.024 -18.834 -22.489  0.00  0.00    +0.063 C 
ENDBRANCH  10  15
BRANCH   4  24
ATOM     23  N   UNL     1      30.475  -3.609 -21.891  0.00  0.00    +0.389 N 
ATOM     24  N   UNL     1      31.896  -6.098 -21.995  0.00  0.00    -0.311 N 
ATOM     25  C   UNL     1      31.395  -3.934 -23.012  0.00  0.00    -0.027 C 
ATOM     26  C   UNL     1      31.748  -2.829 -23.983  0.00  0.00    -0.020 C 
ATOM     27  C   UNL     1      30.839  -3.939 -24.420  0.00  0.00    -0.020 C 
ATOM     28  C   UNL     1      32.480  -4.932 -22.665  0.00  0.00    +0.071 C 
ATOM     29  C   UNL     1      29.892  -4.837 -21.346  0.00  0.00    -0.060 C 
ATOM     30  C   UNL     1      30.984  -5.803 -20.886  0.00  0.00    +0.067 C 
ATOM     31  H   UNL     1      29.728  -3.004 -22.231  0.00  0.00    -0.084 HD
ATOM     32  H   UNL     1      30.999  -3.134 -21.156  0.00  0.00    -0.084 HD
ENDBRANCH   4  24
TORSDOF 2
ENDMDL
MODEL 3
REMARK VINA RESULT:     -10.8      5.919     10.801
REMARK  Name = 118513932
REMARK  2 active torsions:
REMARK  status: ('A' for Active; 'I' for Inactive)
REMARK    1  A    between atoms: C_4  and  N_24
REMARK    2  A    between atoms: C_10  and  C_15
REMARK                            x       y       z     vdW  Elec       q    Type
REMARK                         _______ _______ _______ _____ _____    ______ ____
ROOT
ATOM      1  O   UNL     1      33.904 -13.611 -26.118  0.00  0.00    -0.274 OA
ATOM      2  N   UNL     1      34.216 -13.917 -23.808  0.00  0.00    -0.209 N 
ATOM      3  N   UNL     1      33.942 -12.041 -22.355  0.00  0.00    -0.389 NA
ATOM      4  C   UNL     1      34.801 -16.057 -22.879  0.00  0.00    +0.063 C 
ATOM      5  C   UNL     1      34.511 -15.270 -23.930  0.00  0.00    +0.089 C 
ATOM      6  C   UNL     1      34.804 -15.455 -21.562  0.00  0.00    +0.020 C 
ATOM      7  C   UNL     1      34.528 -14.160 -21.379  0.00  0.00    +0.050 C 
ATOM      8  C   UNL     1      34.208 -13.298 -22.550  0.00  0.00    +0.193 C 
ATOM      9  C   UNL     1      33.927 -13.182 -24.965  0.00  0.00    +0.242 C 
ATOM     10  C   UNL     1      33.656 -11.300 -23.467  0.00  0.00    +0.139 C 
ATOM     11  C   UNL     1      33.626 -11.751 -24.725  0.00  0.00    +0.146 C 
ENDROOT
BRANCH  10  15
ATOM     12  N   UNL     1      32.068  -8.153 -22.695  0.00  0.00    -0.178 N 
ATOM     13  N   UNL     1      32.192  -9.499 -22.819  0.00  0.00    -0.173 NA
ATOM     14  N   UNL     1      32.557  -5.980 -22.751  0.00  0.00    -0.392 NA
ATOM     15  C   UNL     1      33.354  -9.879 -23.273  0.00  0.00    +0.124 C 
ATOM     16  C   UNL     1      34.470  -8.954 -23.635  0.00  0.00    +0.023 C 
ATOM     17  C   UNL     1      34.283  -7.628 -23.488  0.00  0.00    +0.025 C 
ATOM     18  C   UNL     1      33.018  -7.192 -22.993  0.00  0.00    +0.198 C 
ATOM     19  C   UNL     1      30.955  -7.495 -22.243  0.00  0.00    +0.173 C 
ATOM     20  C   UNL     1      31.280  -6.161 -22.286  0.00  0.00    +0.111 C 
ATOM     21  C   UNL     1      35.394  -6.675 -23.847  0.00  0.00    +0.035 C 
ATOM     22  C   UNL     1      30.450  -5.007 -21.910  0.00  0.00    +0.063 C 
ENDBRANCH  10  15
BRANCH   4  24
ATOM     23  N   UNL     1      34.961 -20.251 -23.040  0.00  0.00    +0.389 N 
ATOM     24  N   UNL     1      35.093 -17.386 -22.982  0.00  0.00    -0.311 N 
ATOM     25  C   UNL     1      35.055 -19.502 -21.760  0.00  0.00    -0.027 C 
ATOM     26  C   UNL     1      35.313 -20.288 -20.495  0.00  0.00    -0.020 C 
ATOM     27  C   UNL     1      33.959 -19.692 -20.734  0.00  0.00    -0.020 C 
ATOM     28  C   UNL     1      35.699 -18.135 -21.877  0.00  0.00    +0.071 C 
ATOM     29  C   UNL     1      34.275 -19.441 -24.049  0.00  0.00    -0.060 C 
ATOM     30  C   UNL     1      34.990 -18.105 -24.256  0.00  0.00    +0.067 C 
ATOM     31  H   UNL     1      34.440 -21.114 -22.889  0.00  0.00    -0.084 HD
ATOM     32  H   UNL     1      35.903 -20.466 -23.369  0.00  0.00    -0.084 HD
ENDBRANCH   4  24
TORSDOF 2
ENDMDL
MODEL 4
REMARK VINA RESULT:     -10.4      6.070     10.680
REMARK  Name = 118513932
REMARK  2 active torsions:
REMARK  status: ('A' for Active; 'I' for Inactive)
REMARK    1  A    between atoms: C_4  and  N_24
REMARK    2  A    between atoms: C_10  and  C_15
REMARK                            x       y       z     vdW  Elec       q    Type
REMARK                         _______ _______ _______ _____ _____    ______ ____
ROOT
ATOM      1  O   UNL     1      34.069 -13.278 -25.354  0.00  0.00    -0.274 OA
ATOM      2  N   UNL     1      33.962 -13.850 -23.077  0.00  0.00    -0.209 N 
ATOM      3  N   UNL     1      33.219 -12.205 -21.514  0.00  0.00    -0.389 NA
ATOM      4  C   UNL     1      34.580 -16.037 -22.288  0.00  0.00    +0.063 C 
ATOM      5  C   UNL     1      34.416 -15.148 -23.283  0.00  0.00    +0.089 C 
ATOM      6  C   UNL     1      34.267 -15.611 -20.940  0.00  0.00    +0.020 C 
ATOM      7  C   UNL     1      33.827 -14.376 -20.676  0.00  0.00    +0.050 C 
ATOM      8  C   UNL     1      33.648 -13.401 -21.787  0.00  0.00    +0.193 C 
ATOM      9  C   UNL     1      33.826 -13.000 -24.182  0.00  0.00    +0.242 C 
ATOM     10  C   UNL     1      33.075 -11.354 -22.573  0.00  0.00    +0.139 C 
ATOM     11  C   UNL     1      33.335 -11.641 -23.852  0.00  0.00    +0.146 C 
ENDROOT
BRANCH  10  15
ATOM     12  N   UNL     1      31.957  -7.932 -22.832  0.00  0.00    -0.178 N 
ATOM     13  N   UNL     1      32.407  -9.141 -23.255  0.00  0.00    -0.173 NA
ATOM     14  N   UNL     1      31.270  -6.296 -21.486  0.00  0.00    -0.392 NA
ATOM     15  C   UNL     1      32.593  -9.998 -22.291  0.00  0.00    +0.124 C 
ATOM     16  C   UNL     1      32.349  -9.717 -20.844  0.00  0.00    +0.023 C 
ATOM     17  C   UNL     1      31.903  -8.497 -20.489  0.00  0.00    +0.025 C 
ATOM     18  C   UNL     1      31.693  -7.544 -21.531  0.00  0.00    +0.198 C 
ATOM     19  C   UNL     1      31.681  -6.860 -23.638  0.00  0.00    +0.173 C 
ATOM     20  C   UNL     1      31.261  -5.867 -22.788  0.00  0.00    +0.111 C 
ATOM     21  C   UNL     1      31.650  -8.189 -19.036  0.00  0.00    +0.035 C 
ATOM     22  C   UNL     1      30.836  -4.499 -23.122  0.00  0.00    +0.063 C 
ENDBRANCH  10  15
BRANCH   4  24
ATOM     23  N   UNL     1      35.211 -20.155 -22.824  0.00  0.00    +0.389 N 
ATOM     24  N   UNL     1      35.024 -17.314 -22.475  0.00  0.00    -0.311 N 
ATOM     25  C   UNL     1      35.052 -19.545 -21.478  0.00  0.00    -0.027 C 
ATOM     26  C   UNL     1      35.221 -20.438 -20.270  0.00  0.00    -0.020 C 
ATOM     27  C   UNL     1      33.854 -19.948 -20.644  0.00  0.00    -0.020 C 
ATOM     28  C   UNL     1      35.555 -18.120 -21.370  0.00  0.00    +0.071 C 
ATOM     29  C   UNL     1      34.584 -19.307 -23.840  0.00  0.00    -0.060 C 
ATOM     30  C   UNL     1      35.171 -17.896 -23.812  0.00  0.00    +0.067 C 
ATOM     31  H   UNL     1      34.771 -21.074 -22.832  0.00  0.00    -0.084 HD
ATOM     32  H   UNL     1      36.206 -20.244 -23.033  0.00  0.00    -0.084 HD
ENDBRANCH   4  24
TORSDOF 2
ENDMDL
MODEL 5
REMARK VINA RESULT:     -10.1      1.348      1.824
REMARK  Name = 118513932
REMARK  2 active torsions:
REMARK  status: ('A' for Active; 'I' for Inactive)
REMARK    1  A    between atoms: C_4  and  N_24
REMARK    2  A    between atoms: C_10  and  C_15
REMARK                            x       y       z     vdW  Elec       q    Type
REMARK                         _______ _______ _______ _____ _____    ______ ____
ROOT
ATOM      1  O   UNL     1      37.974 -21.222 -17.500  0.00  0.00    -0.274 OA
ATOM      2  N   UNL     1      35.753 -21.981 -17.633  0.00  0.00    -0.209 N 
ATOM      3  N   UNL     1      34.370 -21.174 -19.405  0.00  0.00    -0.389 NA
ATOM      4  C   UNL     1      34.846 -23.537 -16.039  0.00  0.00    +0.063 C 
ATOM      5  C   UNL     1      35.861 -22.790 -16.508  0.00  0.00    +0.089 C 
ATOM      6  C   UNL     1      33.584 -23.487 -16.748  0.00  0.00    +0.020 C 
ATOM      7  C   UNL     1      33.417 -22.728 -17.836  0.00  0.00    +0.050 C 
ATOM      8  C   UNL     1      34.548 -21.907 -18.346  0.00  0.00    +0.193 C 
ATOM      9  C   UNL     1      36.870 -21.240 -18.041  0.00  0.00    +0.242 C 
ATOM     10  C   UNL     1      35.443 -20.441 -19.826  0.00  0.00    +0.139 C 
ATOM     11  C   UNL     1      36.649 -20.412 -19.250  0.00  0.00    +0.146 C 
ENDROOT
BRANCH  10  15
ATOM     12  N   UNL     1      35.009 -17.681 -22.110  0.00  0.00    -0.178 N 
ATOM     13  N   UNL     1      35.167 -18.311 -20.918  0.00  0.00    -0.173 NA
ATOM     14  N   UNL     1      34.786 -17.349 -24.302  0.00  0.00    -0.392 NA
ATOM     15  C   UNL     1      35.266 -19.607 -21.018  0.00  0.00    +0.124 C 
ATOM     16  C   UNL     1      35.215 -20.366 -22.304  0.00  0.00    +0.023 C 
ATOM     17  C   UNL     1      35.056 -19.682 -23.453  0.00  0.00    +0.025 C 
ATOM     18  C   UNL     1      34.946 -18.262 -23.364  0.00  0.00    +0.198 C 
ATOM     19  C   UNL     1      34.882 -16.328 -22.285  0.00  0.00    +0.173 C 
ATOM     20  C   UNL     1      34.746 -16.149 -23.639  0.00  0.00    +0.111 C 
ATOM     21  C   UNL     1      35.001 -20.426 -24.762  0.00  0.00    +0.035 C 
ATOM     22  C   UNL     1      34.576 -14.891 -24.381  0.00  0.00    +0.063 C 
ENDBRANCH  10  15
BRANCH   4  24
ATOM     23  N   UNL     1      35.512 -25.419 -12.344  0.00  0.00    +0.389 N 
ATOM     24  N   UNL     1      34.937 -24.337 -14.937  0.00  0.00    -0.311 N 
ATOM     25  C   UNL     1      36.523 -25.427 -13.432  0.00  0.00    -0.027 C 
ATOM     26  C   UNL     1      37.789 -26.226 -13.218  0.00  0.00    -0.020 C 
ATOM     27  C   UNL     1      37.844 -24.727 -13.190  0.00  0.00    -0.020 C 
ATOM     28  C   UNL     1      35.943 -25.399 -14.831  0.00  0.00    +0.071 C 
ATOM     29  C   UNL     1      34.606 -24.279 -12.505  0.00  0.00    -0.060 C 
ATOM     30  C   UNL     1      33.927 -24.310 -13.874  0.00  0.00    +0.067 C 
ATOM     31  H   UNL     1      35.984 -25.349 -11.443  0.00  0.00    -0.084 HD
ATOM     32  H   UNL     1      34.970 -26.283 -12.386  0.00  0.00    -0.084 HD
ENDBRANCH   4  24
TORSDOF 2
ENDMDL
MODEL 6
REMARK VINA RESULT:      -9.5      6.321     13.703
REMARK  Name = 118513932
REMARK  2 active torsions:
REMARK  status: ('A' for Active; 'I' for Inactive)
REMARK    1  A    between atoms: C_4  and  N_24
REMARK    2  A    between atoms: C_10  and  C_15
REMARK                            x       y       z     vdW  Elec       q    Type
REMARK                         _______ _______ _______ _____ _____    ______ ____
ROOT
ATOM      1  O   UNL     1      31.023 -11.820 -20.972  0.00  0.00    -0.274 OA
ATOM      2  N   UNL     1      32.662 -11.106 -22.499  0.00  0.00    -0.209 N 
ATOM      3  N   UNL     1      34.273 -12.688 -23.277  0.00  0.00    -0.389 NA
ATOM      4  C   UNL     1      32.755  -8.837 -23.291  0.00  0.00    +0.063 C 
ATOM      5  C   UNL     1      32.191  -9.798 -22.540  0.00  0.00    +0.089 C 
ATOM      6  C   UNL     1      33.908  -9.192 -24.093  0.00  0.00    +0.020 C 
ATOM      7  C   UNL     1      34.408 -10.432 -24.097  0.00  0.00    +0.050 C 
ATOM      8  C   UNL     1      33.775 -11.488 -23.261  0.00  0.00    +0.193 C 
ATOM      9  C   UNL     1      32.004 -12.035 -21.683  0.00  0.00    +0.242 C 
ATOM     10  C   UNL     1      33.650 -13.616 -22.490  0.00  0.00    +0.139 C 
ATOM     11  C   UNL     1      32.584 -13.398 -21.713  0.00  0.00    +0.146 C 
ENDROOT
BRANCH  10  15
ATOM     12  N   UNL     1      35.041 -16.809 -21.544  0.00  0.00    -0.178 N 
ATOM     13  N   UNL     1      34.560 -15.550 -21.377  0.00  0.00    -0.173 NA
ATOM     14  N   UNL     1      35.676 -18.707 -22.522  0.00  0.00    -0.392 NA
ATOM     15  C   UNL     1      34.194 -14.977 -22.490  0.00  0.00    +0.124 C 
ATOM     16  C   UNL     1      34.279 -15.610 -23.840  0.00  0.00    +0.023 C 
ATOM     17  C   UNL     1      34.766 -16.862 -23.938  0.00  0.00    +0.025 C 
ATOM     18  C   UNL     1      35.172 -17.506 -22.731  0.00  0.00    +0.198 C 
ATOM     19  C   UNL     1      35.490 -17.628 -20.542  0.00  0.00    +0.173 C 
ATOM     20  C   UNL     1      35.875 -18.788 -21.168  0.00  0.00    +0.111 C 
ATOM     21  C   UNL     1      34.862 -17.521 -25.289  0.00  0.00    +0.035 C 
ATOM     22  C   UNL     1      36.435 -20.007 -20.565  0.00  0.00    +0.063 C 
ENDBRANCH  10  15
BRANCH   4  24
ATOM     23  N   UNL     1      31.862  -4.753 -22.883  0.00  0.00    +0.389 N 
ATOM     24  N   UNL     1      32.304  -7.549 -23.342  0.00  0.00    -0.311 N 
ATOM     25  C   UNL     1      31.244  -5.791 -22.018  0.00  0.00    -0.027 C 
ATOM     26  C   UNL     1      30.188  -5.353 -21.028  0.00  0.00    -0.020 C 
ATOM     27  C   UNL     1      31.544  -5.762 -20.534  0.00  0.00    -0.020 C 
ATOM     28  C   UNL     1      31.059  -7.138 -22.686  0.00  0.00    +0.071 C 
ATOM     29  C   UNL     1      33.132  -5.239 -23.425  0.00  0.00    -0.060 C 
ATOM     30  C   UNL     1      32.933  -6.541 -24.201  0.00  0.00    +0.067 C 
ATOM     31  H   UNL     1      32.030  -3.911 -22.333  0.00  0.00    -0.084 HD
ATOM     32  H   UNL     1      31.229  -4.543 -23.655  0.00  0.00    -0.084 HD
ENDBRANCH   4  24
TORSDOF 2
ENDMDL
MODEL 7
REMARK VINA RESULT:      -8.9      8.101     13.415
REMARK  Name = 118513932
REMARK  2 active torsions:
REMARK  status: ('A' for Active; 'I' for Inactive)
REMARK    1  A    between atoms: C_4  and  N_24
REMARK    2  A    between atoms: C_10  and  C_15
REMARK                            x       y       z     vdW  Elec       q    Type
REMARK                         _______ _______ _______ _____ _____    ______ ____
ROOT
ATOM      1  O   UNL     1      30.947 -10.289 -20.457  0.00  0.00    -0.274 OA
ATOM      2  N   UNL     1      32.474 -10.755 -22.182  0.00  0.00    -0.209 N 
ATOM      3  N   UNL     1      33.135  -8.984 -23.640  0.00  0.00    -0.389 NA
ATOM      4  C   UNL     1      33.380 -12.959 -22.513  0.00  0.00    +0.063 C 
ATOM      5  C   UNL     1      32.592 -12.099 -21.845  0.00  0.00    +0.089 C 
ATOM      6  C   UNL     1      34.138 -12.450 -23.637  0.00  0.00    +0.020 C 
ATOM      7  C   UNL     1      34.067 -11.169 -24.012  0.00  0.00    +0.050 C 
ATOM      8  C   UNL     1      33.192 -10.226 -23.264  0.00  0.00    +0.193 C 
ATOM      9  C   UNL     1      31.624  -9.941 -21.423  0.00  0.00    +0.242 C 
ATOM     10  C   UNL     1      32.314  -8.165 -22.917  0.00  0.00    +0.139 C 
ATOM     11  C   UNL     1      31.572  -8.528 -21.865  0.00  0.00    +0.146 C 
ENDROOT
BRANCH  10  15
ATOM     12  N   UNL     1      32.712  -4.999 -24.604  0.00  0.00    -0.178 N 
ATOM     13  N   UNL     1      32.894  -6.322 -24.357  0.00  0.00    -0.173 NA
ATOM     14  N   UNL     1      31.984  -2.903 -24.409  0.00  0.00    -0.392 NA
ATOM     15  C   UNL     1      32.232  -6.759 -23.323  0.00  0.00    +0.124 C 
ATOM     16  C   UNL     1      31.347  -5.917 -22.462  0.00  0.00    +0.023 C 
ATOM     17  C   UNL     1      31.209  -4.611 -22.760  0.00  0.00    +0.025 C 
ATOM     18  C   UNL     1      31.926  -4.114 -23.889  0.00  0.00    +0.198 C 
ATOM     19  C   UNL     1      33.290  -4.294 -25.626  0.00  0.00    +0.173 C 
ATOM     20  C   UNL     1      32.827  -3.009 -25.485  0.00  0.00    +0.111 C 
ATOM     21  C   UNL     1      30.322  -3.742 -21.906  0.00  0.00    +0.035 C 
ATOM     22  C   UNL     1      33.129  -1.835 -26.317  0.00  0.00    +0.063 C 
ENDBRANCH  10  15
BRANCH   4  24
ATOM     23  N   UNL     1      34.510 -16.867 -21.468  0.00  0.00    +0.389 N 
ATOM     24  N   UNL     1      33.507 -14.280 -22.193  0.00  0.00    -0.311 N 
ATOM     25  C   UNL     1      34.594 -16.363 -22.863  0.00  0.00    -0.027 C 
ATOM     26  C   UNL     1      35.011 -17.335 -23.945  0.00  0.00    -0.020 C 
ATOM     27  C   UNL     1      35.959 -16.258 -23.509  0.00  0.00    -0.020 C 
ATOM     28  C   UNL     1      33.549 -15.325 -23.221  0.00  0.00    +0.071 C 
ATOM     29  C   UNL     1      34.550 -15.748 -20.524  0.00  0.00    -0.060 C 
ATOM     30  C   UNL     1      33.423 -14.753 -20.808  0.00  0.00    +0.067 C 
ATOM     31  H   UNL     1      35.296 -17.489 -21.286  0.00  0.00    -0.084 HD
ATOM     32  H   UNL     1      33.632 -17.372 -21.349  0.00  0.00    -0.084 HD
ENDBRANCH   4  24
TORSDOF 2
ENDMDL
