MODEL 1
REMARK VINA RESULT:     -13.2      0.000      0.000
REMARK  Name = 5288641
REMARK  1 active torsions:
REMARK  status: ('A' for Active; 'I' for Inactive)
REMARK    1  A    between atoms: C_14  and  S_23
REMARK                            x       y       z     vdW  Elec       q    Type
REMARK                         _______ _______ _______ _____ _____    ______ ____
ROOT
ATOM      1  O   UNL     1      35.487 -24.444 -14.282  0.00  0.00    -0.270 OA
ATOM      2  O   UNL     1      32.031 -22.400 -17.692  0.00  0.00    -0.285 OA
ATOM      3  N   UNL     1      35.378 -22.879 -16.804  0.00  0.00    -0.310 N 
ATOM      4  N   UNL     1      33.298 -24.949 -13.549  0.00  0.00    -0.280 N 
ATOM      5  C   UNL     1      33.490 -23.741 -15.484  0.00  0.00    +0.071 C 
ATOM      6  C   UNL     1      32.070 -23.941 -15.212  0.00  0.00    +0.020 C 
ATOM      7  C   UNL     1      34.057 -23.095 -16.504  0.00  0.00    +0.092 C 
ATOM      8  C   UNL     1      32.012 -24.680 -14.026  0.00  0.00    +0.051 C 
ATOM      9  C   UNL     1      34.275 -24.404 -14.390  0.00  0.00    +0.251 C 
ATOM     10  C   UNL     1      34.226 -21.849 -18.504  0.00  0.00    +0.054 C 
ATOM     11  C   UNL     1      35.491 -22.147 -17.980  0.00  0.00    +0.051 C 
ATOM     12  C   UNL     1      33.238 -22.441 -17.584  0.00  0.00    +0.210 C 
ATOM     13  C   UNL     1      30.913 -23.562 -15.864  0.00  0.00    +0.020 C 
ATOM     14  C   UNL     1      29.689 -23.939 -15.300  0.00  0.00    +0.112 C 
ATOM     15  C   UNL     1      30.815 -25.063 -13.453  0.00  0.00    +0.016 C 
ATOM     16  C   UNL     1      29.641 -24.683 -14.107  0.00  0.00    +0.020 C 
ATOM     17  C   UNL     1      34.039 -21.130 -19.666  0.00  0.00    +0.004 C 
ATOM     18  C   UNL     1      36.627 -21.716 -18.631  0.00  0.00    +0.015 C 
ATOM     19  C   UNL     1      35.188 -20.694 -20.325  0.00  0.00    +0.000 C 
ATOM     20  C   UNL     1      36.469 -20.984 -19.814  0.00  0.00    +0.001 C 
ATOM     21  H   UNL     1      36.138 -23.196 -16.265  0.00  0.00    +0.152 HD
ATOM     22  H   UNL     1      33.493 -25.455 -12.727  0.00  0.00    +0.155 HD
ENDROOT
BRANCH  14  23
ATOM     23  S   UNL     1      28.198 -23.481 -16.089  0.00  0.00    +0.042 S 
ATOM     24  O   UNL     1      28.536 -22.083 -16.865  0.00  0.00    -0.065 OA
ATOM     25  O   UNL     1      27.908 -24.476 -17.111  0.00  0.00    -0.065 OA
ATOM     26  O   UNL     1      27.235 -23.194 -15.038  0.00  0.00    -0.065 OA
ENDBRANCH  14  23
TORSDOF 1
ENDMDL
MODEL 2
REMARK VINA RESULT:     -11.1      3.475      6.805
REMARK  Name = 5288641
REMARK  1 active torsions:
REMARK  status: ('A' for Active; 'I' for Inactive)
REMARK    1  A    between atoms: C_14  and  S_23
REMARK                            x       y       z     vdW  Elec       q    Type
REMARK                         _______ _______ _______ _____ _____    ______ ____
ROOT
ATOM      1  O   UNL     1      34.539 -22.115 -18.095  0.00  0.00    -0.270 OA
ATOM      2  O   UNL     1      32.920 -24.326 -13.596  0.00  0.00    -0.285 OA
ATOM      3  N   UNL     1      32.054 -22.875 -16.657  0.00  0.00    -0.310 N 
ATOM      4  N   UNL     1      36.430 -22.689 -16.799  0.00  0.00    -0.280 N 
ATOM      5  C   UNL     1      34.379 -23.173 -15.908  0.00  0.00    +0.071 C 
ATOM      6  C   UNL     1      35.400 -23.603 -14.958  0.00  0.00    +0.020 C 
ATOM      7  C   UNL     1      33.052 -23.262 -15.799  0.00  0.00    +0.092 C 
ATOM      8  C   UNL     1      36.626 -23.285 -15.550  0.00  0.00    +0.051 C 
ATOM      9  C   UNL     1      35.069 -22.579 -17.102  0.00  0.00    +0.251 C 
ATOM     10  C   UNL     1      30.947 -23.775 -14.855  0.00  0.00    +0.054 C 
ATOM     11  C   UNL     1      30.810 -23.172 -16.113  0.00  0.00    +0.051 C 
ATOM     12  C   UNL     1      32.394 -23.864 -14.586  0.00  0.00    +0.210 C 
ATOM     13  C   UNL     1      35.351 -24.204 -13.715  0.00  0.00    +0.020 C 
ATOM     14  C   UNL     1      36.563 -24.481 -13.074  0.00  0.00    +0.112 C 
ATOM     15  C   UNL     1      37.834 -23.549 -14.934  0.00  0.00    +0.016 C 
ATOM     16  C   UNL     1      37.792 -24.157 -13.677  0.00  0.00    +0.020 C 
ATOM     17  C   UNL     1      29.874 -24.174 -14.087  0.00  0.00    +0.004 C 
ATOM     18  C   UNL     1      29.555 -22.951 -16.640  0.00  0.00    +0.015 C 
ATOM     19  C   UNL     1      28.604 -23.950 -14.620  0.00  0.00    +0.000 C 
ATOM     20  C   UNL     1      28.446 -23.346 -15.883  0.00  0.00    +0.001 C 
ATOM     21  H   UNL     1      32.197 -22.449 -17.532  0.00  0.00    +0.152 HD
ATOM     22  H   UNL     1      37.157 -22.384 -17.391  0.00  0.00    +0.155 HD
ENDROOT
BRANCH  14  23
ATOM     23  S   UNL     1      36.552 -25.240 -11.499  0.00  0.00    +0.042 S 
ATOM     24  O   UNL     1      37.570 -24.345 -10.585  0.00  0.00    -0.065 OA
ATOM     25  O   UNL     1      35.221 -25.079 -10.935  0.00  0.00    -0.065 OA
ATOM     26  O   UNL     1      37.135 -26.562 -11.663  0.00  0.00    -0.065 OA
ENDBRANCH  14  23
TORSDOF 1
ENDMDL
MODEL 3
REMARK VINA RESULT:     -11.1      2.852      5.326
REMARK  Name = 5288641
REMARK  1 active torsions:
REMARK  status: ('A' for Active; 'I' for Inactive)
REMARK    1  A    between atoms: C_14  and  S_23
REMARK                            x       y       z     vdW  Elec       q    Type
REMARK                         _______ _______ _______ _____ _____    ______ ____
ROOT
ATOM      1  O   UNL     1      30.859 -22.942 -16.718  0.00  0.00    -0.270 OA
ATOM      2  O   UNL     1      36.049 -22.356 -17.397  0.00  0.00    -0.285 OA
ATOM      3  N   UNL     1      32.823 -21.739 -18.593  0.00  0.00    -0.310 N 
ATOM      4  N   UNL     1      31.988 -23.989 -14.926  0.00  0.00    -0.280 N 
ATOM      5  C   UNL     1      33.285 -22.980 -16.519  0.00  0.00    +0.071 C 
ATOM      6  C   UNL     1      34.170 -23.560 -15.514  0.00  0.00    +0.020 C 
ATOM      7  C   UNL     1      33.611 -22.302 -17.621  0.00  0.00    +0.092 C 
ATOM      8  C   UNL     1      33.330 -24.160 -14.571  0.00  0.00    +0.051 C 
ATOM      9  C   UNL     1      31.867 -23.270 -16.120  0.00  0.00    +0.251 C 
ATOM     10  C   UNL     1      34.973 -21.267 -19.250  0.00  0.00    +0.054 C 
ATOM     11  C   UNL     1      33.613 -21.127 -19.558  0.00  0.00    +0.051 C 
ATOM     12  C   UNL     1      35.044 -22.029 -17.991  0.00  0.00    +0.210 C 
ATOM     13  C   UNL     1      35.542 -23.603 -15.365  0.00  0.00    +0.020 C 
ATOM     14  C   UNL     1      36.059 -24.265 -14.246  0.00  0.00    +0.112 C 
ATOM     15  C   UNL     1      33.819 -24.817 -13.459  0.00  0.00    +0.016 C 
ATOM     16  C   UNL     1      35.206 -24.865 -13.302  0.00  0.00    +0.020 C 
ATOM     17  C   UNL     1      35.983 -20.756 -20.038  0.00  0.00    +0.004 C 
ATOM     18  C   UNL     1      33.229 -20.450 -20.697  0.00  0.00    +0.015 C 
ATOM     19  C   UNL     1      35.595 -20.072 -21.190  0.00  0.00    +0.000 C 
ATOM     20  C   UNL     1      34.232 -19.920 -21.516  0.00  0.00    +0.001 C 
ATOM     21  H   UNL     1      31.839 -21.765 -18.606  0.00  0.00    +0.152 HD
ATOM     22  H   UNL     1      31.226 -24.332 -14.404  0.00  0.00    +0.155 HD
ENDROOT
BRANCH  14  23
ATOM     23  S   UNL     1      37.790 -24.347 -14.015  0.00  0.00    +0.042 S 
ATOM     24  O   UNL     1      38.074 -23.552 -12.616  0.00  0.00    -0.065 OA
ATOM     25  O   UNL     1      38.146 -25.740 -13.794  0.00  0.00    -0.065 OA
ATOM     26  O   UNL     1      38.396 -23.588 -15.098  0.00  0.00    -0.065 OA
ENDBRANCH  14  23
TORSDOF 1
ENDMDL
MODEL 4
REMARK VINA RESULT:     -10.8      1.844      2.624
REMARK  Name = 5288641
REMARK  1 active torsions:
REMARK  status: ('A' for Active; 'I' for Inactive)
REMARK    1  A    between atoms: C_14  and  S_23
REMARK                            x       y       z     vdW  Elec       q    Type
REMARK                         _______ _______ _______ _____ _____    ______ ____
ROOT
ATOM      1  O   UNL     1      37.819 -22.647 -16.284  0.00  0.00    -0.270 OA
ATOM      2  O   UNL     1      33.036 -21.859 -18.345  0.00  0.00    -0.285 OA
ATOM      3  N   UNL     1      36.487 -21.374 -18.614  0.00  0.00    -0.310 N 
ATOM      4  N   UNL     1      36.205 -23.646 -14.876  0.00  0.00    -0.280 N 
ATOM      5  C   UNL     1      35.431 -22.590 -16.754  0.00  0.00    +0.071 C 
ATOM      6  C   UNL     1      34.284 -23.132 -16.032  0.00  0.00    +0.020 C 
ATOM      7  C   UNL     1      35.444 -21.902 -17.897  0.00  0.00    +0.092 C 
ATOM      8  C   UNL     1      34.812 -23.762 -14.901  0.00  0.00    +0.051 C 
ATOM      9  C   UNL     1      36.674 -22.934 -15.986  0.00  0.00    +0.251 C 
ATOM     10  C   UNL     1      34.617 -20.821 -19.829  0.00  0.00    +0.054 C 
ATOM     11  C   UNL     1      36.014 -20.735 -19.753  0.00  0.00    +0.051 C 
ATOM     12  C   UNL     1      34.177 -21.575 -18.641  0.00  0.00    +0.210 C 
ATOM     13  C   UNL     1      32.922 -23.122 -16.264  0.00  0.00    +0.020 C 
ATOM     14  C   UNL     1      32.095 -23.759 -15.332  0.00  0.00    +0.112 C 
ATOM     15  C   UNL     1      34.013 -24.397 -13.969  0.00  0.00    +0.016 C 
ATOM     16  C   UNL     1      32.635 -24.391 -14.197  0.00  0.00    +0.020 C 
ATOM     17  C   UNL     1      33.880 -20.273 -20.857  0.00  0.00    +0.004 C 
ATOM     18  C   UNL     1      36.720 -20.076 -20.738  0.00  0.00    +0.015 C 
ATOM     19  C   UNL     1      34.594 -19.606 -21.853  0.00  0.00    +0.000 C 
ATOM     20  C   UNL     1      35.999 -19.508 -21.795  0.00  0.00    +0.001 C 
ATOM     21  H   UNL     1      37.435 -21.437 -18.358  0.00  0.00    +0.152 HD
ATOM     22  H   UNL     1      36.782 -24.016 -14.169  0.00  0.00    +0.155 HD
ENDROOT
BRANCH  14  23
ATOM     23  S   UNL     1      30.365 -23.772 -15.582  0.00  0.00    +0.042 S 
ATOM     24  O   UNL     1      29.735 -23.069 -14.247  0.00  0.00    -0.065 OA
ATOM     25  O   UNL     1      30.069 -22.896 -16.705  0.00  0.00    -0.065 OA
ATOM     26  O   UNL     1      29.951 -25.166 -15.598  0.00  0.00    -0.065 OA
ENDBRANCH  14  23
TORSDOF 1
ENDMDL
