MODEL 1
REMARK VINA RESULT:     -11.9      0.000      0.000
REMARK  Name = 12136798
REMARK  7 active torsions:
REMARK  status: ('A' for Active; 'I' for Inactive)
REMARK    1  A    between atoms: C_1  and  C_21
REMARK    2  A    between atoms: C_2  and  C_9
REMARK    3  A    between atoms: N_8  and  C_12
REMARK    4  A    between atoms: C_13  and  N_18
REMARK    5  A    between atoms: C_21  and  N_23
REMARK    6  A    between atoms: C_24  and  C_26
REMARK    7  A    between atoms: C_27  and  C_29
REMARK                            x       y       z     vdW  Elec       q    Type
REMARK                         _______ _______ _______ _____ _____    ______ ____
ROOT
ATOM      1  C   UNL     1      35.059 -20.053 -20.616  0.00  0.00    -0.003 C 
ATOM      2  C   UNL     1      34.029 -21.979 -18.897  0.00  0.00    +0.054 C 
ATOM      3  C   UNL     1      33.683 -20.166 -20.456  0.00  0.00    -0.002 C 
ATOM      4  C   UNL     1      35.925 -20.893 -19.927  0.00  0.00    -0.002 C 
ATOM      5  C   UNL     1      33.165 -21.132 -19.592  0.00  0.00    +0.004 C 
ATOM      6  C   UNL     1      35.408 -21.859 -19.064  0.00  0.00    +0.004 C 
ENDROOT
BRANCH   2   9
ATOM      7  O   UNL     1      33.537 -24.182 -18.334  0.00  0.00    -0.270 OA
ATOM      8  N   UNL     1      32.972 -22.512 -16.786  0.00  0.00    -0.279 N 
ATOM      9  C   UNL     1      33.490 -22.988 -17.998  0.00  0.00    +0.250 C 
ATOM     10  H   UNL     1      33.004 -21.536 -16.660  0.00  0.00    +0.155 HD
BRANCH   8  12
ATOM     11  F   UNL     1      30.847 -25.409 -12.585  0.00  0.00    -0.204 F 
ATOM     12  C   UNL     1      32.409 -23.251 -15.716  0.00  0.00    +0.064 C 
ATOM     13  C   UNL     1      31.037 -23.408 -15.619  0.00  0.00    +0.057 C 
ATOM     14  C   UNL     1      33.267 -23.806 -14.779  0.00  0.00    +0.018 C 
ATOM     15  C   UNL     1      30.506 -24.140 -14.557  0.00  0.00    +0.045 C 
ATOM     16  C   UNL     1      32.736 -24.538 -13.717  0.00  0.00    +0.031 C 
ATOM     17  C   UNL     1      31.356 -24.705 -13.605  0.00  0.00    +0.141 C 
BRANCH  13  18
ATOM     18  N   UNL     1      30.158 -22.845 -16.570  0.00  0.00    -0.356 N 
ATOM     19  H   UNL     1      29.915 -23.354 -17.377  0.00  0.00    +0.142 HD
ATOM     20  H   UNL     1      29.787 -21.944 -16.426  0.00  0.00    +0.142 HD
ENDBRANCH  13  18
ENDBRANCH   8  12
ENDBRANCH   2   9
BRANCH   1  21
ATOM     21  C   UNL     1      35.616 -19.013 -21.545  0.00  0.00    +0.117 C 
BRANCH  21  23
ATOM     22  O   UNL     1      35.327 -16.771 -23.357  0.00  0.00    -0.270 OA
ATOM     23  N   UNL     1      35.127 -17.688 -21.231  0.00  0.00    -0.297 N 
ATOM     24  C   UNL     1      35.025 -16.678 -22.172  0.00  0.00    +0.246 C 
ATOM     25  H   UNL     1      34.854 -17.497 -20.304  0.00  0.00    +0.150 HD
BRANCH  24  26
ATOM     26  C   UNL     1      34.493 -15.419 -21.577  0.00  0.00    +0.058 C 
ATOM     27  C   UNL     1      33.501 -14.757 -22.191  0.00  0.00    +0.006 C 
BRANCH  27  29
ATOM     28  N   UNL     1      32.319 -11.215 -22.079  0.00  0.00    -0.242 NA
ATOM     29  C   UNL     1      32.893 -13.511 -21.688  0.00  0.00    +0.019 C 
ATOM     30  C   UNL     1      32.348 -13.466 -20.422  0.00  0.00    +0.003 C 
ATOM     31  C   UNL     1      32.862 -12.388 -22.478  0.00  0.00    +0.099 C 
ATOM     32  C   UNL     1      31.781 -12.277 -19.975  0.00  0.00    +0.021 C 
ATOM     33  C   UNL     1      31.791 -11.191 -20.834  0.00  0.00    +0.099 C 
ENDBRANCH  27  29
ENDBRANCH  24  26
ENDBRANCH  21  23
ENDBRANCH   1  21
TORSDOF 7
ENDMDL
MODEL 2
REMARK VINA RESULT:     -11.9      4.978     12.336
REMARK  Name = 12136798
REMARK  7 active torsions:
REMARK  status: ('A' for Active; 'I' for Inactive)
REMARK    1  A    between atoms: C_1  and  C_21
REMARK    2  A    between atoms: C_2  and  C_9
REMARK    3  A    between atoms: N_8  and  C_12
REMARK    4  A    between atoms: C_13  and  N_18
REMARK    5  A    between atoms: C_21  and  N_23
REMARK    6  A    between atoms: C_24  and  C_26
REMARK    7  A    between atoms: C_27  and  C_29
REMARK                            x       y       z     vdW  Elec       q    Type
REMARK                         _______ _______ _______ _____ _____    ______ ____
ROOT
ATOM      1  C   UNL     1      34.167 -14.402 -22.700  0.00  0.00    -0.003 C 
ATOM      2  C   UNL     1      32.661 -12.151 -22.074  0.00  0.00    +0.054 C 
ATOM      3  C   UNL     1      34.225 -13.285 -23.524  0.00  0.00    -0.002 C 
ATOM      4  C   UNL     1      33.364 -14.406 -21.566  0.00  0.00    -0.002 C 
ATOM      5  C   UNL     1      33.470 -12.155 -23.210  0.00  0.00    +0.004 C 
ATOM      6  C   UNL     1      32.608 -13.276 -21.252  0.00  0.00    +0.004 C 
ENDROOT
BRANCH   2   9
ATOM      7  O   UNL     1      30.788 -11.118 -21.160  0.00  0.00    -0.270 OA
ATOM      8  N   UNL     1      32.432  -9.742 -22.112  0.00  0.00    -0.279 N 
ATOM      9  C   UNL     1      31.872 -10.973 -21.747  0.00  0.00    +0.250 C 
ATOM     10  H   UNL     1      33.301  -9.787 -22.573  0.00  0.00    +0.155 HD
BRANCH   8  12
ATOM     11  F   UNL     1      30.371  -4.667 -21.372  0.00  0.00    -0.204 F 
ATOM     12  C   UNL     1      31.912  -8.440 -21.904  0.00  0.00    +0.064 C 
ATOM     13  C   UNL     1      32.161  -7.767 -20.720  0.00  0.00    +0.057 C 
ATOM     14  C   UNL     1      31.153  -7.868 -22.913  0.00  0.00    +0.018 C 
ATOM     15  C   UNL     1      31.639  -6.486 -20.539  0.00  0.00    +0.045 C 
ATOM     16  C   UNL     1      30.631  -6.588 -22.732  0.00  0.00    +0.031 C 
ATOM     17  C   UNL     1      30.873  -5.897 -21.545  0.00  0.00    +0.141 C 
BRANCH  13  18
ATOM     18  N   UNL     1      32.934  -8.344 -19.688  0.00  0.00    -0.356 N 
ATOM     19  H   UNL     1      33.400  -9.198 -19.841  0.00  0.00    +0.142 HD
ATOM     20  H   UNL     1      33.007  -7.893 -18.816  0.00  0.00    +0.142 HD
ENDBRANCH  13  18
ENDBRANCH   8  12
ENDBRANCH   2   9
BRANCH   1  21
ATOM     21  C   UNL     1      34.980 -15.618 -23.037  0.00  0.00    +0.117 C 
BRANCH  21  23
ATOM     22  O   UNL     1      35.808 -18.388 -23.222  0.00  0.00    -0.270 OA
ATOM     23  N   UNL     1      34.894 -16.630 -22.007  0.00  0.00    -0.297 N 
ATOM     24  C   UNL     1      35.319 -17.935 -22.193  0.00  0.00    +0.246 C 
ATOM     25  H   UNL     1      34.515 -16.379 -21.134  0.00  0.00    +0.150 HD
BRANCH  24  26
ATOM     26  C   UNL     1      35.113 -18.763 -20.971  0.00  0.00    +0.058 C 
ATOM     27  C   UNL     1      34.665 -20.022 -21.084  0.00  0.00    +0.006 C 
BRANCH  27  29
ATOM     28  N   UNL     1      32.878 -22.088 -18.537  0.00  0.00    -0.242 NA
ATOM     29  C   UNL     1      34.436 -20.933 -19.948  0.00  0.00    +0.019 C 
ATOM     30  C   UNL     1      35.505 -21.464 -19.257  0.00  0.00    +0.003 C 
ATOM     31  C   UNL     1      33.157 -21.259 -19.569  0.00  0.00    +0.099 C 
ATOM     32  C   UNL     1      35.258 -22.321 -18.189  0.00  0.00    +0.021 C 
ATOM     33  C   UNL     1      33.939 -22.598 -17.873  0.00  0.00    +0.099 C 
ENDBRANCH  27  29
ENDBRANCH  24  26
ENDBRANCH  21  23
ENDBRANCH   1  21
TORSDOF 7
ENDMDL
MODEL 3
REMARK VINA RESULT:     -11.8      3.135      3.876
REMARK  Name = 12136798
REMARK  7 active torsions:
REMARK  status: ('A' for Active; 'I' for Inactive)
REMARK    1  A    between atoms: C_1  and  C_21
REMARK    2  A    between atoms: C_2  and  C_9
REMARK    3  A    between atoms: N_8  and  C_12
REMARK    4  A    between atoms: C_13  and  N_18
REMARK    5  A    between atoms: C_21  and  N_23
REMARK    6  A    between atoms: C_24  and  C_26
REMARK    7  A    between atoms: C_27  and  C_29
REMARK                            x       y       z     vdW  Elec       q    Type
REMARK                         _______ _______ _______ _____ _____    ______ ____
ROOT
ATOM      1  C   UNL     1      35.233 -21.198 -19.714  0.00  0.00    -0.003 C 
ATOM      2  C   UNL     1      35.406 -22.431 -17.229  0.00  0.00    +0.054 C 
ATOM      3  C   UNL     1      36.455 -21.248 -19.055  0.00  0.00    -0.002 C 
ATOM      4  C   UNL     1      34.095 -21.757 -19.144  0.00  0.00    -0.002 C 
ATOM      5  C   UNL     1      36.543 -21.867 -17.808  0.00  0.00    +0.004 C 
ATOM      6  C   UNL     1      34.182 -22.376 -17.897  0.00  0.00    +0.004 C 
ENDROOT
BRANCH   2   9
ATOM      7  O   UNL     1      34.559 -22.946 -15.125  0.00  0.00    -0.270 OA
ATOM      8  N   UNL     1      36.655 -23.829 -15.699  0.00  0.00    -0.279 N 
ATOM      9  C   UNL     1      35.496 -23.076 -15.928  0.00  0.00    +0.250 C 
ATOM     10  H   UNL     1      37.312 -23.838 -16.433  0.00  0.00    +0.155 HD
BRANCH   8  12
ATOM     11  F   UNL     1      38.046 -26.689 -11.178  0.00  0.00    -0.204 F 
ATOM     12  C   UNL     1      37.007 -24.579 -14.549  0.00  0.00    +0.064 C 
ATOM     13  C   UNL     1      36.852 -25.955 -14.536  0.00  0.00    +0.057 C 
ATOM     14  C   UNL     1      37.504 -23.899 -13.448  0.00  0.00    +0.018 C 
ATOM     15  C   UNL     1      37.205 -26.672 -13.393  0.00  0.00    +0.045 C 
ATOM     16  C   UNL     1      37.857 -24.615 -12.305  0.00  0.00    +0.031 C 
ATOM     17  C   UNL     1      37.707 -26.002 -12.277  0.00  0.00    +0.141 C 
BRANCH  13  18
ATOM     18  N   UNL     1      36.346 -26.654 -15.654  0.00  0.00    -0.356 N 
ATOM     19  H   UNL     1      35.374 -26.768 -15.765  0.00  0.00    +0.142 HD
ATOM     20  H   UNL     1      36.964 -27.028 -16.324  0.00  0.00    +0.142 HD
ENDBRANCH  13  18
ENDBRANCH   8  12
ENDBRANCH   2   9
BRANCH   1  21
ATOM     21  C   UNL     1      35.138 -20.531 -21.056  0.00  0.00    +0.117 C 
BRANCH  21  23
ATOM     22  O   UNL     1      36.754 -18.188 -21.595  0.00  0.00    -0.270 OA
ATOM     23  N   UNL     1      34.738 -19.146 -20.947  0.00  0.00    -0.297 N 
ATOM     24  C   UNL     1      35.588 -18.090 -21.229  0.00  0.00    +0.246 C 
ATOM     25  H   UNL     1      33.818 -18.945 -20.659  0.00  0.00    +0.150 HD
BRANCH  24  26
ATOM     26  C   UNL     1      34.918 -16.773 -21.032  0.00  0.00    +0.058 C 
ATOM     27  C   UNL     1      34.532 -16.054 -22.096  0.00  0.00    +0.006 C 
BRANCH  27  29
ATOM     28  N   UNL     1      33.536 -12.553 -22.935  0.00  0.00    -0.242 NA
ATOM     29  C   UNL     1      33.853 -14.748 -22.020  0.00  0.00    +0.019 C 
ATOM     30  C   UNL     1      32.940 -14.496 -21.017  0.00  0.00    +0.003 C 
ATOM     31  C   UNL     1      34.123 -13.772 -22.948  0.00  0.00    +0.099 C 
ATOM     32  C   UNL     1      32.316 -13.255 -20.970  0.00  0.00    +0.021 C 
ATOM     33  C   UNL     1      32.645 -12.327 -21.944  0.00  0.00    +0.099 C 
ENDBRANCH  27  29
ENDBRANCH  24  26
ENDBRANCH  21  23
ENDBRANCH   1  21
TORSDOF 7
ENDMDL
MODEL 4
REMARK VINA RESULT:     -11.7      0.705      1.587
REMARK  Name = 12136798
REMARK  7 active torsions:
REMARK  status: ('A' for Active; 'I' for Inactive)
REMARK    1  A    between atoms: C_1  and  C_21
REMARK    2  A    between atoms: C_2  and  C_9
REMARK    3  A    between atoms: N_8  and  C_12
REMARK    4  A    between atoms: C_13  and  N_18
REMARK    5  A    between atoms: C_21  and  N_23
REMARK    6  A    between atoms: C_24  and  C_26
REMARK    7  A    between atoms: C_27  and  C_29
REMARK                            x       y       z     vdW  Elec       q    Type
REMARK                         _______ _______ _______ _____ _____    ______ ____
ROOT
ATOM      1  C   UNL     1      35.284 -20.059 -20.614  0.00  0.00    -0.003 C 
ATOM      2  C   UNL     1      34.103 -21.923 -18.924  0.00  0.00    +0.054 C 
ATOM      3  C   UNL     1      36.085 -20.910 -19.863  0.00  0.00    -0.002 C 
ATOM      4  C   UNL     1      33.899 -20.128 -20.529  0.00  0.00    -0.002 C 
ATOM      5  C   UNL     1      35.493 -21.846 -19.015  0.00  0.00    +0.004 C 
ATOM      6  C   UNL     1      33.306 -21.064 -19.680  0.00  0.00    +0.004 C 
ENDROOT
BRANCH   2   9
ATOM      7  O   UNL     1      33.593 -24.105 -18.302  0.00  0.00    -0.270 OA
ATOM      8  N   UNL     1      32.826 -22.372 -16.918  0.00  0.00    -0.279 N 
ATOM      9  C   UNL     1      33.485 -22.897 -18.038  0.00  0.00    +0.250 C 
ATOM     10  H   UNL     1      32.825 -21.391 -16.843  0.00  0.00    +0.155 HD
BRANCH   8  12
ATOM     11  F   UNL     1      30.163 -25.095 -12.912  0.00  0.00    -0.204 F 
ATOM     12  C   UNL     1      32.159 -23.070 -15.880  0.00  0.00    +0.064 C 
ATOM     13  C   UNL     1      32.829 -23.393 -14.712  0.00  0.00    +0.057 C 
ATOM     14  C   UNL     1      30.831 -23.416 -16.070  0.00  0.00    +0.018 C 
ATOM     15  C   UNL     1      32.151 -24.080 -13.704  0.00  0.00    +0.045 C 
ATOM     16  C   UNL     1      30.154 -24.102 -15.062  0.00  0.00    +0.031 C 
ATOM     17  C   UNL     1      30.814 -24.436 -13.880  0.00  0.00    +0.141 C 
BRANCH  13  18
ATOM     18  N   UNL     1      34.183 -23.044 -14.512  0.00  0.00    -0.356 N 
ATOM     19  H   UNL     1      34.892 -23.701 -14.698  0.00  0.00    +0.142 HD
ATOM     20  H   UNL     1      34.417 -22.144 -14.189  0.00  0.00    +0.142 HD
ENDBRANCH  13  18
ENDBRANCH   8  12
ENDBRANCH   2   9
BRANCH   1  21
ATOM     21  C   UNL     1      35.921 -19.052 -21.527  0.00  0.00    +0.117 C 
BRANCH  21  23
ATOM     22  O   UNL     1      35.261 -17.089 -23.554  0.00  0.00    -0.270 OA
ATOM     23  N   UNL     1      35.392 -17.722 -21.321  0.00  0.00    -0.297 N 
ATOM     24  C   UNL     1      35.106 -16.853 -22.360  0.00  0.00    +0.246 C 
ATOM     25  H   UNL     1      35.226 -17.421 -20.398  0.00  0.00    +0.150 HD
BRANCH  24  26
ATOM     26  C   UNL     1      34.574 -15.552 -21.864  0.00  0.00    +0.058 C 
ATOM     27  C   UNL     1      33.720 -14.846 -22.620  0.00  0.00    +0.006 C 
BRANCH  27  29
ATOM     28  N   UNL     1      32.846 -11.215 -22.664  0.00  0.00    -0.242 NA
ATOM     29  C   UNL     1      33.124 -13.557 -22.226  0.00  0.00    +0.019 C 
ATOM     30  C   UNL     1      32.322 -13.476 -21.107  0.00  0.00    +0.003 C 
ATOM     31  C   UNL     1      33.362 -12.428 -22.970  0.00  0.00    +0.099 C 
ATOM     32  C   UNL     1      31.773 -12.246 -20.759  0.00  0.00    +0.021 C 
ATOM     33  C   UNL     1      32.063 -11.157 -21.564  0.00  0.00    +0.099 C 
ENDBRANCH  27  29
ENDBRANCH  24  26
ENDBRANCH  21  23
ENDBRANCH   1  21
TORSDOF 7
ENDMDL
MODEL 5
REMARK VINA RESULT:     -11.4      4.201     10.960
REMARK  Name = 12136798
REMARK  7 active torsions:
REMARK  status: ('A' for Active; 'I' for Inactive)
REMARK    1  A    between atoms: C_1  and  C_21
REMARK    2  A    between atoms: C_2  and  C_9
REMARK    3  A    between atoms: N_8  and  C_12
REMARK    4  A    between atoms: C_13  and  N_18
REMARK    5  A    between atoms: C_21  and  N_23
REMARK    6  A    between atoms: C_24  and  C_26
REMARK    7  A    between atoms: C_27  and  C_29
REMARK                            x       y       z     vdW  Elec       q    Type
REMARK                         _______ _______ _______ _____ _____    ______ ____
ROOT
ATOM      1  C   UNL     1      36.318 -20.551 -19.868  0.00  0.00    -0.003 C 
ATOM      2  C   UNL     1      35.418 -18.970 -21.969  0.00  0.00    +0.054 C 
ATOM      3  C   UNL     1      34.992 -20.638 -20.275  0.00  0.00    -0.002 C 
ATOM      4  C   UNL     1      37.199 -19.682 -20.500  0.00  0.00    -0.002 C 
ATOM      5  C   UNL     1      34.540 -19.845 -21.330  0.00  0.00    +0.004 C 
ATOM      6  C   UNL     1      36.747 -18.888 -21.555  0.00  0.00    +0.004 C 
ENDROOT
BRANCH   2   9
ATOM      7  O   UNL     1      34.613 -18.684 -24.133  0.00  0.00    -0.270 OA
ATOM      8  N   UNL     1      34.884 -16.765 -22.812  0.00  0.00    -0.279 N 
ATOM      9  C   UNL     1      34.947 -18.141 -23.068  0.00  0.00    +0.250 C 
ATOM     10  H   UNL     1      35.183 -16.482 -21.917  0.00  0.00    +0.155 HD
BRANCH   8  12
ATOM     11  F   UNL     1      33.182 -12.763 -26.224  0.00  0.00    -0.204 F 
ATOM     12  C   UNL     1      34.448 -15.726 -23.671  0.00  0.00    +0.064 C 
ATOM     13  C   UNL     1      34.223 -14.454 -23.174  0.00  0.00    +0.057 C 
ATOM     14  C   UNL     1      34.254 -16.021 -25.012  0.00  0.00    +0.018 C 
ATOM     15  C   UNL     1      33.793 -13.448 -24.040  0.00  0.00    +0.045 C 
ATOM     16  C   UNL     1      33.825 -15.016 -25.877  0.00  0.00    +0.031 C 
ATOM     17  C   UNL     1      33.594 -13.729 -25.392  0.00  0.00    +0.141 C 
BRANCH  13  18
ATOM     18  N   UNL     1      34.418 -14.146 -21.809  0.00  0.00    -0.356 N 
ATOM     19  H   UNL     1      34.785 -13.270 -21.550  0.00  0.00    +0.142 HD
ATOM     20  H   UNL     1      34.185 -14.806 -21.117  0.00  0.00    +0.142 HD
ENDBRANCH  13  18
ENDBRANCH   8  12
ENDBRANCH   2   9
BRANCH   1  21
ATOM     21  C   UNL     1      36.805 -21.405 -18.734  0.00  0.00    +0.117 C 
BRANCH  21  23
ATOM     22  O   UNL     1      36.644 -22.227 -15.960  0.00  0.00    -0.270 OA
ATOM     23  N   UNL     1      35.725 -22.122 -18.093  0.00  0.00    -0.297 N 
ATOM     24  C   UNL     1      35.741 -22.471 -16.753  0.00  0.00    +0.246 C 
ATOM     25  H   UNL     1      34.943 -22.374 -18.635  0.00  0.00    +0.150 HD
BRANCH  24  26
ATOM     26  C   UNL     1      34.504 -23.203 -16.358  0.00  0.00    +0.058 C 
ATOM     27  C   UNL     1      34.039 -23.104 -15.103  0.00  0.00    +0.006 C 
BRANCH  27  29
ATOM     28  N   UNL     1      31.791 -25.171 -12.954  0.00  0.00    -0.242 NA
ATOM     29  C   UNL     1      32.823 -23.773 -14.607  0.00  0.00    +0.019 C 
ATOM     30  C   UNL     1      31.631 -23.640 -15.286  0.00  0.00    +0.003 C 
ATOM     31  C   UNL     1      32.869 -24.532 -13.463  0.00  0.00    +0.099 C 
ATOM     32  C   UNL     1      30.500 -24.283 -14.794  0.00  0.00    +0.021 C 
ATOM     33  C   UNL     1      30.632 -25.029 -13.635  0.00  0.00    +0.099 C 
ENDBRANCH  27  29
ENDBRANCH  24  26
ENDBRANCH  21  23
ENDBRANCH   1  21
TORSDOF 7
ENDMDL
MODEL 6
REMARK VINA RESULT:     -11.4      4.026     10.934
REMARK  Name = 12136798
REMARK  7 active torsions:
REMARK  status: ('A' for Active; 'I' for Inactive)
REMARK    1  A    between atoms: C_1  and  C_21
REMARK    2  A    between atoms: C_2  and  C_9
REMARK    3  A    between atoms: N_8  and  C_12
REMARK    4  A    between atoms: C_13  and  N_18
REMARK    5  A    between atoms: C_21  and  N_23
REMARK    6  A    between atoms: C_24  and  C_26
REMARK    7  A    between atoms: C_27  and  C_29
REMARK                            x       y       z     vdW  Elec       q    Type
REMARK                         _______ _______ _______ _____ _____    ______ ____
ROOT
ATOM      1  C   UNL     1      34.512 -22.053 -19.320  0.00  0.00    -0.003 C 
ATOM      2  C   UNL     1      35.132 -19.667 -20.605  0.00  0.00    +0.054 C 
ATOM      3  C   UNL     1      33.490 -21.252 -19.814  0.00  0.00    -0.002 C 
ATOM      4  C   UNL     1      35.842 -21.673 -19.461  0.00  0.00    -0.002 C 
ATOM      5  C   UNL     1      33.800 -20.055 -20.460  0.00  0.00    +0.004 C 
ATOM      6  C   UNL     1      36.153 -20.476 -20.106  0.00  0.00    +0.004 C 
ENDROOT
BRANCH   2   9
ATOM      7  O   UNL     1      36.573 -18.288 -21.803  0.00  0.00    -0.270 OA
ATOM      8  N   UNL     1      34.442 -17.451 -21.291  0.00  0.00    -0.279 N 
ATOM      9  C   UNL     1      35.456 -18.417 -21.276  0.00  0.00    +0.250 C 
ATOM     10  H   UNL     1      33.608 -17.698 -20.829  0.00  0.00    +0.155 HD
BRANCH   8  12
ATOM     11  F   UNL     1      34.498 -12.398 -23.530  0.00  0.00    -0.204 F 
ATOM     12  C   UNL     1      34.459 -16.164 -21.883  0.00  0.00    +0.064 C 
ATOM     13  C   UNL     1      34.635 -16.023 -23.249  0.00  0.00    +0.057 C 
ATOM     14  C   UNL     1      34.296 -15.060 -21.059  0.00  0.00    +0.018 C 
ATOM     15  C   UNL     1      34.648 -14.745 -23.808  0.00  0.00    +0.045 C 
ATOM     16  C   UNL     1      34.309 -13.783 -21.619  0.00  0.00    +0.031 C 
ATOM     17  C   UNL     1      34.486 -13.625 -22.993  0.00  0.00    +0.141 C 
BRANCH  13  18
ATOM     18  N   UNL     1      34.802 -17.143 -24.094  0.00  0.00    -0.356 N 
ATOM     19  H   UNL     1      35.495 -17.813 -23.892  0.00  0.00    +0.142 HD
ATOM     20  H   UNL     1      34.225 -17.254 -24.884  0.00  0.00    +0.142 HD
ENDBRANCH  13  18
ENDBRANCH   8  12
ENDBRANCH   2   9
BRANCH   1  21
ATOM     21  C   UNL     1      34.179 -23.341 -18.626  0.00  0.00    +0.117 C 
BRANCH  21  23
ATOM     22  O   UNL     1      32.171 -23.412 -16.539  0.00  0.00    -0.270 OA
ATOM     23  N   UNL     1      34.394 -23.260 -17.199  0.00  0.00    -0.297 N 
ATOM     24  C   UNL     1      33.364 -23.303 -16.275  0.00  0.00    +0.246 C 
ATOM     25  H   UNL     1      35.318 -23.170 -16.868  0.00  0.00    +0.150 HD
BRANCH  24  26
ATOM     26  C   UNL     1      33.869 -23.199 -14.877  0.00  0.00    +0.058 C 
ATOM     27  C   UNL     1      34.856 -24.005 -14.460  0.00  0.00    +0.006 C 
BRANCH  27  29
ATOM     28  N   UNL     1      35.315 -24.684 -10.816  0.00  0.00    -0.242 NA
ATOM     29  C   UNL     1      35.439 -23.982 -13.106  0.00  0.00    +0.019 C 
ATOM     30  C   UNL     1      36.597 -23.275 -12.861  0.00  0.00    +0.003 C 
ATOM     31  C   UNL     1      34.833 -24.664 -12.080  0.00  0.00    +0.099 C 
ATOM     32  C   UNL     1      37.124 -23.271 -11.574  0.00  0.00    +0.021 C 
ATOM     33  C   UNL     1      36.451 -23.985 -10.596  0.00  0.00    +0.099 C 
ENDBRANCH  27  29
ENDBRANCH  24  26
ENDBRANCH  21  23
ENDBRANCH   1  21
TORSDOF 7
ENDMDL
MODEL 7
REMARK VINA RESULT:     -11.3      4.211     11.031
REMARK  Name = 12136798
REMARK  7 active torsions:
REMARK  status: ('A' for Active; 'I' for Inactive)
REMARK    1  A    between atoms: C_1  and  C_21
REMARK    2  A    between atoms: C_2  and  C_9
REMARK    3  A    between atoms: N_8  and  C_12
REMARK    4  A    between atoms: C_13  and  N_18
REMARK    5  A    between atoms: C_21  and  N_23
REMARK    6  A    between atoms: C_24  and  C_26
REMARK    7  A    between atoms: C_27  and  C_29
REMARK                            x       y       z     vdW  Elec       q    Type
REMARK                         _______ _______ _______ _____ _____    ______ ____
ROOT
ATOM      1  C   UNL     1      34.339 -22.130 -19.220  0.00  0.00    -0.003 C 
ATOM      2  C   UNL     1      35.028 -19.790 -20.553  0.00  0.00    +0.054 C 
ATOM      3  C   UNL     1      35.679 -21.808 -19.397  0.00  0.00    -0.002 C 
ATOM      4  C   UNL     1      33.339 -21.294 -19.704  0.00  0.00    -0.002 C 
ATOM      5  C   UNL     1      36.025 -20.633 -20.065  0.00  0.00    +0.004 C 
ATOM      6  C   UNL     1      33.685 -20.120 -20.372  0.00  0.00    +0.004 C 
ENDROOT
BRANCH   2   9
ATOM      7  O   UNL     1      36.507 -18.481 -21.782  0.00  0.00    -0.270 OA
ATOM      8  N   UNL     1      34.402 -17.571 -21.289  0.00  0.00    -0.279 N 
ATOM      9  C   UNL     1      35.388 -18.566 -21.252  0.00  0.00    +0.250 C 
ATOM     10  H   UNL     1      33.561 -17.783 -20.822  0.00  0.00    +0.155 HD
BRANCH   8  12
ATOM     11  F   UNL     1      34.603 -12.573 -23.641  0.00  0.00    -0.204 F 
ATOM     12  C   UNL     1      34.456 -16.298 -21.909  0.00  0.00    +0.064 C 
ATOM     13  C   UNL     1      34.656 -16.193 -23.276  0.00  0.00    +0.057 C 
ATOM     14  C   UNL     1      34.306 -15.173 -21.114  0.00  0.00    +0.018 C 
ATOM     15  C   UNL     1      34.705 -14.929 -23.864  0.00  0.00    +0.045 C 
ATOM     16  C   UNL     1      34.355 -13.909 -21.702  0.00  0.00    +0.031 C 
ATOM     17  C   UNL     1      34.556 -13.787 -23.077  0.00  0.00    +0.141 C 
BRANCH  13  18
ATOM     18  N   UNL     1      34.810 -17.335 -24.092  0.00  0.00    -0.356 N 
ATOM     19  H   UNL     1      35.346 -18.098 -23.775  0.00  0.00    +0.142 HD
ATOM     20  H   UNL     1      34.381 -17.369 -24.978  0.00  0.00    +0.142 HD
ENDBRANCH  13  18
ENDBRANCH   8  12
ENDBRANCH   2   9
BRANCH   1  21
ATOM     21  C   UNL     1      33.966 -23.393 -18.501  0.00  0.00    +0.117 C 
BRANCH  21  23
ATOM     22  O   UNL     1      32.542 -23.111 -15.993  0.00  0.00    -0.270 OA
ATOM     23  N   UNL     1      34.521 -23.441 -17.166  0.00  0.00    -0.297 N 
ATOM     24  C   UNL     1      33.754 -23.295 -16.023  0.00  0.00    +0.246 C 
ATOM     25  H   UNL     1      35.490 -23.584 -17.067  0.00  0.00    +0.150 HD
BRANCH  24  26
ATOM     26  C   UNL     1      34.581 -23.386 -14.786  0.00  0.00    +0.058 C 
ATOM     27  C   UNL     1      35.709 -24.113 -14.787  0.00  0.00    +0.006 C 
BRANCH  27  29
ATOM     28  N   UNL     1      37.959 -23.222 -11.942  0.00  0.00    -0.242 NA
ATOM     29  C   UNL     1      36.607 -24.263 -13.628  0.00  0.00    +0.019 C 
ATOM     30  C   UNL     1      36.925 -25.519 -13.155  0.00  0.00    +0.003 C 
ATOM     31  C   UNL     1      37.131 -23.154 -13.010  0.00  0.00    +0.099 C 
ATOM     32  C   UNL     1      37.775 -25.630 -12.059  0.00  0.00    +0.021 C 
ATOM     33  C   UNL     1      38.260 -24.462 -11.494  0.00  0.00    +0.099 C 
ENDBRANCH  27  29
ENDBRANCH  24  26
ENDBRANCH  21  23
ENDBRANCH   1  21
TORSDOF 7
ENDMDL
MODEL 8
REMARK VINA RESULT:     -11.2      1.911      2.785
REMARK  Name = 12136798
REMARK  7 active torsions:
REMARK  status: ('A' for Active; 'I' for Inactive)
REMARK    1  A    between atoms: C_1  and  C_21
REMARK    2  A    between atoms: C_2  and  C_9
REMARK    3  A    between atoms: N_8  and  C_12
REMARK    4  A    between atoms: C_13  and  N_18
REMARK    5  A    between atoms: C_21  and  N_23
REMARK    6  A    between atoms: C_24  and  C_26
REMARK    7  A    between atoms: C_27  and  C_29
REMARK                            x       y       z     vdW  Elec       q    Type
REMARK                         _______ _______ _______ _____ _____    ______ ____
ROOT
ATOM      1  C   UNL     1      35.732 -19.421 -21.441  0.00  0.00    -0.003 C 
ATOM      2  C   UNL     1      35.063 -21.231 -19.440  0.00  0.00    +0.054 C 
ATOM      3  C   UNL     1      36.734 -19.986 -20.662  0.00  0.00    -0.002 C 
ATOM      4  C   UNL     1      34.399 -19.750 -21.230  0.00  0.00    -0.002 C 
ATOM      5  C   UNL     1      36.399 -20.895 -19.658  0.00  0.00    +0.004 C 
ATOM      6  C   UNL     1      34.063 -20.659 -20.226  0.00  0.00    +0.004 C 
ENDROOT
BRANCH   2   9
ATOM      7  O   UNL     1      33.801 -22.994 -18.598  0.00  0.00    -0.270 OA
ATOM      8  N   UNL     1      35.474 -22.097 -17.218  0.00  0.00    -0.279 N 
ATOM      9  C   UNL     1      34.713 -22.177 -18.392  0.00  0.00    +0.250 C 
ATOM     10  H   UNL     1      36.165 -21.395 -17.202  0.00  0.00    +0.155 HD
BRANCH   8  12
ATOM     11  F   UNL     1      35.030 -25.200 -12.666  0.00  0.00    -0.204 F 
ATOM     12  C   UNL     1      35.380 -22.894 -16.050  0.00  0.00    +0.064 C 
ATOM     13  C   UNL     1      36.524 -23.369 -15.433  0.00  0.00    +0.057 C 
ATOM     14  C   UNL     1      34.119 -23.181 -15.552  0.00  0.00    +0.018 C 
ATOM     15  C   UNL     1      36.406 -24.151 -14.284  0.00  0.00    +0.045 C 
ATOM     16  C   UNL     1      34.001 -23.963 -14.403  0.00  0.00    +0.031 C 
ATOM     17  C   UNL     1      35.144 -24.449 -13.769  0.00  0.00    +0.141 C 
BRANCH  13  18
ATOM     18  N   UNL     1      37.812 -23.080 -15.935  0.00  0.00    -0.356 N 
ATOM     19  H   UNL     1      37.995 -22.204 -16.346  0.00  0.00    +0.142 HD
ATOM     20  H   UNL     1      38.528 -23.754 -15.875  0.00  0.00    +0.142 HD
ENDBRANCH  13  18
ENDBRANCH   8  12
ENDBRANCH   2   9
BRANCH   1  21
ATOM     21  C   UNL     1      36.093 -18.444 -22.522  0.00  0.00    +0.117 C 
BRANCH  21  23
ATOM     22  O   UNL     1      35.125 -16.892 -24.770  0.00  0.00    -0.270 OA
ATOM     23  N   UNL     1      35.266 -17.258 -22.479  0.00  0.00    -0.297 N 
ATOM     24  C   UNL     1      34.852 -16.583 -23.614  0.00  0.00    +0.246 C 
ATOM     25  H   UNL     1      34.984 -16.915 -21.599  0.00  0.00    +0.150 HD
BRANCH  24  26
ATOM     26  C   UNL     1      34.012 -15.398 -23.279  0.00  0.00    +0.058 C 
ATOM     27  C   UNL     1      33.925 -14.978 -22.008  0.00  0.00    +0.006 C 
BRANCH  27  29
ATOM     28  N   UNL     1      32.266 -11.632 -22.046  0.00  0.00    -0.242 NA
ATOM     29  C   UNL     1      33.135 -13.815 -21.565  0.00  0.00    +0.019 C 
ATOM     30  C   UNL     1      32.548 -13.809 -20.317  0.00  0.00    +0.003 C 
ATOM     31  C   UNL     1      32.978 -12.730 -22.391  0.00  0.00    +0.099 C 
ATOM     32  C   UNL     1      31.809 -12.698 -19.926  0.00  0.00    +0.021 C 
ATOM     33  C   UNL     1      31.699 -11.646 -20.819  0.00  0.00    +0.099 C 
ENDBRANCH  27  29
ENDBRANCH  24  26
ENDBRANCH  21  23
ENDBRANCH   1  21
TORSDOF 7
ENDMDL
MODEL 9
REMARK VINA RESULT:     -11.0      2.293      2.901
REMARK  Name = 12136798
REMARK  7 active torsions:
REMARK  status: ('A' for Active; 'I' for Inactive)
REMARK    1  A    between atoms: C_1  and  C_21
REMARK    2  A    between atoms: C_2  and  C_9
REMARK    3  A    between atoms: N_8  and  C_12
REMARK    4  A    between atoms: C_13  and  N_18
REMARK    5  A    between atoms: C_21  and  N_23
REMARK    6  A    between atoms: C_24  and  C_26
REMARK    7  A    between atoms: C_27  and  C_29
REMARK                            x       y       z     vdW  Elec       q    Type
REMARK                         _______ _______ _______ _____ _____    ______ ____
ROOT
ATOM      1  C   UNL     1      35.981 -20.472 -19.945  0.00  0.00    -0.003 C 
ATOM      2  C   UNL     1      34.268 -22.201 -18.603  0.00  0.00    +0.054 C 
ATOM      3  C   UNL     1      34.631 -20.495 -20.274  0.00  0.00    -0.002 C 
ATOM      4  C   UNL     1      36.484 -21.305 -18.953  0.00  0.00    -0.002 C 
ATOM      5  C   UNL     1      33.770 -21.362 -19.600  0.00  0.00    +0.004 C 
ATOM      6  C   UNL     1      35.624 -22.172 -18.279  0.00  0.00    +0.004 C 
ENDROOT
BRANCH   2   9
ATOM      7  O   UNL     1      33.467 -24.328 -18.105  0.00  0.00    -0.270 OA
ATOM      8  N   UNL     1      32.470 -22.507 -17.012  0.00  0.00    -0.279 N 
ATOM      9  C   UNL     1      33.372 -23.107 -17.901  0.00  0.00    +0.250 C 
ATOM     10  H   UNL     1      32.512 -21.525 -16.956  0.00  0.00    +0.155 HD
BRANCH   8  12
ATOM     11  F   UNL     1      28.648 -24.906 -13.819  0.00  0.00    -0.204 F 
ATOM     12  C   UNL     1      31.504 -23.129 -16.182  0.00  0.00    +0.064 C 
ATOM     13  C   UNL     1      31.900 -23.868 -15.079  0.00  0.00    +0.057 C 
ATOM     14  C   UNL     1      30.165 -22.978 -16.505  0.00  0.00    +0.018 C 
ATOM     15  C   UNL     1      30.931 -24.471 -14.277  0.00  0.00    +0.045 C 
ATOM     16  C   UNL     1      29.197 -23.580 -15.703  0.00  0.00    +0.031 C 
ATOM     17  C   UNL     1      29.579 -24.328 -14.589  0.00  0.00    +0.141 C 
BRANCH  13  18
ATOM     18  N   UNL     1      33.263 -24.027 -14.744  0.00  0.00    -0.356 N 
ATOM     19  H   UNL     1      33.625 -23.593 -13.937  0.00  0.00    +0.142 HD
ATOM     20  H   UNL     1      33.852 -24.571 -15.316  0.00  0.00    +0.142 HD
ENDBRANCH  13  18
ENDBRANCH   8  12
ENDBRANCH   2   9
BRANCH   1  21
ATOM     21  C   UNL     1      36.907 -19.538 -20.669  0.00  0.00    +0.117 C 
BRANCH  21  23
ATOM     22  O   UNL     1      35.389 -17.087 -20.382  0.00  0.00    -0.270 OA
ATOM     23  N   UNL     1      36.227 -18.800 -21.710  0.00  0.00    -0.297 N 
ATOM     24  C   UNL     1      35.523 -17.631 -21.473  0.00  0.00    +0.246 C 
ATOM     25  H   UNL     1      36.266 -19.145 -22.632  0.00  0.00    +0.150 HD
BRANCH  24  26
ATOM     26  C   UNL     1      34.923 -17.083 -22.722  0.00  0.00    +0.058 C 
ATOM     27  C   UNL     1      34.883 -15.757 -22.918  0.00  0.00    +0.006 C 
BRANCH  27  29
ATOM     28  N   UNL     1      33.779 -15.242 -26.449  0.00  0.00    -0.242 NA
ATOM     29  C   UNL     1      34.324 -15.106 -24.117  0.00  0.00    +0.019 C 
ATOM     30  C   UNL     1      33.841 -13.816 -24.046  0.00  0.00    +0.003 C 
ATOM     31  C   UNL     1      34.279 -15.780 -25.313  0.00  0.00    +0.099 C 
ATOM     32  C   UNL     1      33.320 -13.228 -25.193  0.00  0.00    +0.021 C 
ATOM     33  C   UNL     1      33.311 -13.977 -26.359  0.00  0.00    +0.099 C 
ENDBRANCH  27  29
ENDBRANCH  24  26
ENDBRANCH  21  23
ENDBRANCH   1  21
TORSDOF 7
ENDMDL
