MODEL 1
REMARK VINA RESULT:     -12.2      0.000      0.000
REMARK  Name = 24978486
REMARK  5 active torsions:
REMARK  status: ('A' for Active; 'I' for Inactive)
REMARK    1  A    between atoms: O_1  and  C_6
REMARK    2  A    between atoms: O_1  and  C_18
REMARK    3  A    between atoms: C_18  and  C_20
REMARK    4  A    between atoms: N_19  and  C_26
REMARK    5  A    between atoms: C_26  and  C_29
REMARK                            x       y       z     vdW  Elec       q    Type
REMARK                         _______ _______ _______ _____ _____    ______ ____
ROOT
ATOM      1  O   UNL     1      34.965 -22.539 -17.296  0.00  0.00    -0.479 OA
ENDROOT
BRANCH   1   6
ATOM      2  N   UNL     1      36.147 -24.411 -12.986  0.00  0.00    -0.332 NA
ATOM      3  N   UNL     1      37.923 -23.679 -14.442  0.00  0.00    -0.317 NA
ATOM      4  N   UNL     1      37.476 -22.762 -16.538  0.00  0.00    -0.335 N 
ATOM      5  N   UNL     1      38.394 -24.598 -12.338  0.00  0.00    -0.283 N 
ATOM      6  C   UNL     1      34.652 -23.095 -16.080  0.00  0.00    +0.130 C 
ATOM      7  C   UNL     1      35.615 -23.477 -15.130  0.00  0.00    +0.177 C 
ATOM      8  C   UNL     1      33.300 -23.277 -15.811  0.00  0.00    +0.033 C 
ATOM      9  C   UNL     1      35.234 -24.043 -13.903  0.00  0.00    +0.137 C 
ATOM     10  C   UNL     1      36.983 -23.321 -15.336  0.00  0.00    +0.181 C 
ATOM     11  C   UNL     1      32.910 -23.837 -14.600  0.00  0.00    +0.005 C 
ATOM     12  C   UNL     1      33.874 -24.214 -13.660  0.00  0.00    +0.030 C 
ATOM     13  C   UNL     1      37.442 -24.209 -13.305  0.00  0.00    +0.197 C 
ATOM     14  H   UNL     1      38.445 -22.657 -16.671  0.00  0.00    +0.144 HD
ATOM     15  H   UNL     1      36.848 -22.476 -17.241  0.00  0.00    +0.144 HD
ATOM     16  H   UNL     1      38.098 -24.992 -11.486  0.00  0.00    +0.156 HD
ATOM     17  H   UNL     1      39.355 -24.473 -12.515  0.00  0.00    +0.156 HD
ENDBRANCH   1   6
BRANCH   1  18
ATOM     18  C   UNL     1      33.955 -22.553 -18.288  0.00  0.00    +0.205 C 
BRANCH  18  20
ATOM     19  N   UNL     1      35.342 -19.280 -20.742  0.00  0.00    +0.390 N 
ATOM     20  C   UNL     1      34.462 -21.789 -19.509  0.00  0.00    +0.040 C 
ATOM     21  C   UNL     1      35.845 -21.186 -19.245  0.00  0.00    -0.019 C 
ATOM     22  C   UNL     1      33.482 -20.683 -19.912  0.00  0.00    -0.019 C 
ATOM     23  C   UNL     1      36.315 -20.335 -20.428  0.00  0.00    -0.077 C 
ATOM     24  C   UNL     1      34.030 -19.850 -21.073  0.00  0.00    -0.077 C 
ATOM     25  H   UNL     1      35.232 -18.696 -19.912  0.00  0.00    -0.079 HD
BRANCH  19  26
ATOM     26  C   UNL     1      35.829 -18.445 -21.839  0.00  0.00    -0.049 C 
BRANCH  26  29
ATOM     27 CL   UNL     1      35.004 -17.433 -24.592  0.00  0.00    -0.082 Cl
ATOM     28 CL   UNL     1      33.464 -14.613 -24.595  0.00  0.00    -0.081 Cl
ATOM     29  C   UNL     1      35.104 -17.128 -21.907  0.00  0.00    -0.032 C 
ATOM     30  C   UNL     1      34.684 -16.577 -23.118  0.00  0.00    +0.062 C 
ATOM     31  C   UNL     1      34.856 -16.454 -20.711  0.00  0.00    -0.005 C 
ATOM     32  C   UNL     1      34.014 -15.352 -23.132  0.00  0.00    +0.068 C 
ATOM     33  C   UNL     1      34.186 -15.231 -20.725  0.00  0.00    +0.001 C 
ATOM     34  C   UNL     1      33.766 -14.680 -21.936  0.00  0.00    +0.012 C 
ENDBRANCH  26  29
ENDBRANCH  19  26
ENDBRANCH  18  20
ENDBRANCH   1  18
TORSDOF 5
ENDMDL
MODEL 2
REMARK VINA RESULT:     -12.2      2.097      3.033
REMARK  Name = 24978486
REMARK  5 active torsions:
REMARK  status: ('A' for Active; 'I' for Inactive)
REMARK    1  A    between atoms: O_1  and  C_6
REMARK    2  A    between atoms: O_1  and  C_18
REMARK    3  A    between atoms: C_18  and  C_20
REMARK    4  A    between atoms: N_19  and  C_26
REMARK    5  A    between atoms: C_26  and  C_29
REMARK                            x       y       z     vdW  Elec       q    Type
REMARK                         _______ _______ _______ _____ _____    ______ ____
ROOT
ATOM      1  O   UNL     1      35.281 -22.152 -18.078  0.00  0.00    -0.479 OA
ENDROOT
BRANCH   1   6
ATOM      2  N   UNL     1      32.925 -23.936 -14.238  0.00  0.00    -0.332 NA
ATOM      3  N   UNL     1      31.652 -23.399 -16.213  0.00  0.00    -0.317 NA
ATOM      4  N   UNL     1      32.676 -22.535 -18.121  0.00  0.00    -0.335 N 
ATOM      5  N   UNL     1      30.603 -24.266 -14.306  0.00  0.00    -0.283 N 
ATOM      6  C   UNL     1      35.231 -22.637 -16.795  0.00  0.00    +0.130 C 
ATOM      7  C   UNL     1      34.043 -23.050 -16.166  0.00  0.00    +0.177 C 
ATOM      8  C   UNL     1      36.440 -22.706 -16.111  0.00  0.00    +0.033 C 
ATOM      9  C   UNL     1      34.055 -23.537 -14.849  0.00  0.00    +0.137 C 
ATOM     10  C   UNL     1      32.802 -23.008 -16.794  0.00  0.00    +0.181 C 
ATOM     11  C   UNL     1      36.464 -23.185 -14.806  0.00  0.00    +0.005 C 
ATOM     12  C   UNL     1      35.279 -23.595 -14.188  0.00  0.00    +0.030 C 
ATOM     13  C   UNL     1      31.785 -23.845 -14.953  0.00  0.00    +0.197 C 
ATOM     14  H   UNL     1      31.793 -22.510 -18.554  0.00  0.00    +0.144 HD
ATOM     15  H   UNL     1      33.474 -22.232 -18.612  0.00  0.00    +0.144 HD
ATOM     16  H   UNL     1      30.642 -24.603 -13.382  0.00  0.00    +0.156 HD
ATOM     17  H   UNL     1      29.740 -24.225 -14.779  0.00  0.00    +0.156 HD
ENDBRANCH   1   6
BRANCH   1  18
ATOM     18  C   UNL     1      36.519 -21.625 -18.519  0.00  0.00    +0.205 C 
BRANCH  18  20
ATOM     19  N   UNL     1      35.501 -18.626 -21.455  0.00  0.00    +0.390 N 
ATOM     20  C   UNL     1      36.308 -20.959 -19.876  0.00  0.00    +0.040 C 
ATOM     21  C   UNL     1      37.198 -19.721 -20.026  0.00  0.00    -0.019 C 
ATOM     22  C   UNL     1      34.840 -20.570 -20.077  0.00  0.00    -0.019 C 
ATOM     23  C   UNL     1      36.918 -18.992 -21.343  0.00  0.00    -0.077 C 
ATOM     24  C   UNL     1      34.639 -19.814 -21.391  0.00  0.00    -0.077 C 
ATOM     25  H   UNL     1      35.267 -18.024 -20.665  0.00  0.00    -0.079 HD
BRANCH  19  26
ATOM     26  C   UNL     1      35.260 -17.885 -22.694  0.00  0.00    -0.049 C 
BRANCH  26  29
ATOM     27 CL   UNL     1      34.713 -16.102 -25.102  0.00  0.00    -0.082 Cl
ATOM     28 CL   UNL     1      33.791 -13.107 -24.392  0.00  0.00    -0.081 Cl
ATOM     29  C   UNL     1      34.825 -16.469 -22.426  0.00  0.00    -0.032 C 
ATOM     30  C   UNL     1      34.550 -15.573 -23.458  0.00  0.00    +0.062 C 
ATOM     31  C   UNL     1      34.700 -16.063 -21.098  0.00  0.00    -0.005 C 
ATOM     32  C   UNL     1      34.149 -14.269 -23.162  0.00  0.00    +0.068 C 
ATOM     33  C   UNL     1      34.299 -14.760 -20.801  0.00  0.00    +0.001 C 
ATOM     34  C   UNL     1      34.024 -13.864 -21.834  0.00  0.00    +0.012 C 
ENDBRANCH  26  29
ENDBRANCH  19  26
ENDBRANCH  18  20
ENDBRANCH   1  18
TORSDOF 5
ENDMDL
MODEL 3
REMARK VINA RESULT:     -11.5      4.274     10.354
REMARK  Name = 24978486
REMARK  5 active torsions:
REMARK  status: ('A' for Active; 'I' for Inactive)
REMARK    1  A    between atoms: O_1  and  C_6
REMARK    2  A    between atoms: O_1  and  C_18
REMARK    3  A    between atoms: C_18  and  C_20
REMARK    4  A    between atoms: N_19  and  C_26
REMARK    5  A    between atoms: C_26  and  C_29
REMARK                            x       y       z     vdW  Elec       q    Type
REMARK                         _______ _______ _______ _____ _____    ______ ____
ROOT
ATOM      1  O   UNL     1      35.312 -18.121 -22.416  0.00  0.00    -0.479 OA
ENDROOT
BRANCH   1   6
ATOM      2  N   UNL     1      33.621 -13.940 -24.189  0.00  0.00    -0.332 NA
ATOM      3  N   UNL     1      34.138 -15.714 -25.737  0.00  0.00    -0.317 NA
ATOM      4  N   UNL     1      34.957 -17.769 -25.001  0.00  0.00    -0.335 N 
ATOM      5  N   UNL     1      33.316 -13.656 -26.498  0.00  0.00    -0.283 N 
ATOM      6  C   UNL     1      34.850 -16.836 -22.278  0.00  0.00    +0.130 C 
ATOM      7  C   UNL     1      34.461 -16.029 -23.362  0.00  0.00    +0.177 C 
ATOM      8  C   UNL     1      34.780 -16.338 -20.982  0.00  0.00    +0.033 C 
ATOM      9  C   UNL     1      33.997 -14.720 -23.159  0.00  0.00    +0.137 C 
ATOM     10  C   UNL     1      34.506 -16.467 -24.683  0.00  0.00    +0.181 C 
ATOM     11  C   UNL     1      34.323 -15.042 -20.767  0.00  0.00    +0.005 C 
ATOM     12  C   UNL     1      33.937 -14.247 -21.851  0.00  0.00    +0.030 C 
ATOM     13  C   UNL     1      33.713 -14.479 -25.422  0.00  0.00    +0.197 C 
ATOM     14  H   UNL     1      34.984 -18.066 -25.938  0.00  0.00    +0.144 HD
ATOM     15  H   UNL     1      35.243 -18.379 -24.282  0.00  0.00    +0.144 HD
ATOM     16  H   UNL     1      32.995 -12.741 -26.325  0.00  0.00    +0.156 HD
ATOM     17  H   UNL     1      33.359 -13.996 -27.421  0.00  0.00    +0.156 HD
ENDBRANCH   1   6
BRANCH   1  18
ATOM     18  C   UNL     1      36.041 -18.662 -21.329  0.00  0.00    +0.205 C 
BRANCH  18  20
ATOM     19  N   UNL     1      34.203 -21.672 -18.837  0.00  0.00    +0.390 N 
ATOM     20  C   UNL     1      35.389 -19.978 -20.914  0.00  0.00    +0.040 C 
ATOM     21  C   UNL     1      33.975 -19.746 -20.372  0.00  0.00    -0.019 C 
ATOM     22  C   UNL     1      36.235 -20.702 -19.861  0.00  0.00    -0.019 C 
ATOM     23  C   UNL     1      33.355 -21.048 -19.860  0.00  0.00    -0.077 C 
ATOM     24  C   UNL     1      35.540 -21.972 -19.367  0.00  0.00    -0.077 C 
ATOM     25  H   UNL     1      34.310 -21.009 -18.069  0.00  0.00    -0.079 HD
BRANCH  19  26
ATOM     26  C   UNL     1      33.573 -22.887 -18.322  0.00  0.00    -0.049 C 
BRANCH  26  29
ATOM     27 CL   UNL     1      31.151 -23.036 -16.479  0.00  0.00    -0.082 Cl
ATOM     28 CL   UNL     1      31.836 -23.432 -13.365  0.00  0.00    -0.081 Cl
ATOM     29  C   UNL     1      33.829 -23.072 -16.849  0.00  0.00    -0.032 C 
ATOM     30  C   UNL     1      32.789 -23.152 -15.923  0.00  0.00    +0.062 C 
ATOM     31  C   UNL     1      35.153 -23.163 -16.421  0.00  0.00    -0.005 C 
ATOM     32  C   UNL     1      33.075 -23.324 -14.567  0.00  0.00    +0.068 C 
ATOM     33  C   UNL     1      35.439 -23.335 -15.067  0.00  0.00    +0.001 C 
ATOM     34  C   UNL     1      34.399 -23.415 -14.140  0.00  0.00    +0.012 C 
ENDBRANCH  26  29
ENDBRANCH  19  26
ENDBRANCH  18  20
ENDBRANCH   1  18
TORSDOF 5
ENDMDL
MODEL 4
REMARK VINA RESULT:     -11.5      4.262     10.395
REMARK  Name = 24978486
REMARK  5 active torsions:
REMARK  status: ('A' for Active; 'I' for Inactive)
REMARK    1  A    between atoms: O_1  and  C_6
REMARK    2  A    between atoms: O_1  and  C_18
REMARK    3  A    between atoms: C_18  and  C_20
REMARK    4  A    between atoms: N_19  and  C_26
REMARK    5  A    between atoms: C_26  and  C_29
REMARK                            x       y       z     vdW  Elec       q    Type
REMARK                         _______ _______ _______ _____ _____    ______ ____
ROOT
ATOM      1  O   UNL     1      35.153 -17.841 -22.343  0.00  0.00    -0.479 OA
ENDROOT
BRANCH   1   6
ATOM      2  N   UNL     1      33.597 -13.715 -24.351  0.00  0.00    -0.332 NA
ATOM      3  N   UNL     1      34.096 -15.575 -25.799  0.00  0.00    -0.317 NA
ATOM      4  N   UNL     1      34.851 -17.610 -24.948  0.00  0.00    -0.335 N 
ATOM      5  N   UNL     1      33.338 -13.539 -26.676  0.00  0.00    -0.283 N 
ATOM      6  C   UNL     1      34.721 -16.540 -22.278  0.00  0.00    +0.130 C 
ATOM      7  C   UNL     1      34.370 -15.780 -23.407  0.00  0.00    +0.177 C 
ATOM      8  C   UNL     1      34.641 -15.977 -21.008  0.00  0.00    +0.033 C 
ATOM      9  C   UNL     1      33.936 -14.451 -23.277  0.00  0.00    +0.137 C 
ATOM     10  C   UNL     1      34.427 -16.284 -24.703  0.00  0.00    +0.181 C 
ATOM     11  C   UNL     1      34.213 -14.662 -20.867  0.00  0.00    +0.005 C 
ATOM     12  C   UNL     1      33.865 -13.912 -21.995  0.00  0.00    +0.030 C 
ATOM     13  C   UNL     1      33.696 -14.317 -25.554  0.00  0.00    +0.197 C 
ATOM     14  H   UNL     1      34.887 -17.954 -25.869  0.00  0.00    +0.144 HD
ATOM     15  H   UNL     1      35.109 -18.190 -24.195  0.00  0.00    +0.144 HD
ATOM     16  H   UNL     1      33.037 -12.610 -26.554  0.00  0.00    +0.156 HD
ATOM     17  H   UNL     1      33.389 -13.926 -27.580  0.00  0.00    +0.156 HD
ENDBRANCH   1   6
BRANCH   1  18
ATOM     18  C   UNL     1      35.883 -18.333 -21.234  0.00  0.00    +0.205 C 
BRANCH  18  20
ATOM     19  N   UNL     1      34.444 -21.733 -18.993  0.00  0.00    +0.390 N 
ATOM     20  C   UNL     1      35.404 -19.749 -20.925  0.00  0.00    +0.040 C 
ATOM     21  C   UNL     1      33.972 -19.739 -20.380  0.00  0.00    -0.019 C 
ATOM     22  C   UNL     1      36.335 -20.439 -19.923  0.00  0.00    -0.019 C 
ATOM     23  C   UNL     1      33.522 -21.145 -19.974  0.00  0.00    -0.077 C 
ATOM     24  C   UNL     1      35.807 -21.820 -19.533  0.00  0.00    -0.077 C 
ATOM     25  H   UNL     1      34.466 -21.123 -18.176  0.00  0.00    -0.079 HD
BRANCH  19  26
ATOM     26  C   UNL     1      33.972 -23.054 -18.577  0.00  0.00    -0.049 C 
BRANCH  26  29
ATOM     27 CL   UNL     1      36.086 -23.292 -16.396  0.00  0.00    -0.082 Cl
ATOM     28 CL   UNL     1      34.945 -23.284 -13.393  0.00  0.00    -0.081 Cl
ATOM     29  C   UNL     1      33.500 -23.057 -17.148  0.00  0.00    -0.032 C 
ATOM     30  C   UNL     1      34.387 -23.161 -16.076  0.00  0.00    +0.062 C 
ATOM     31  C   UNL     1      32.129 -22.951 -16.911  0.00  0.00    -0.005 C 
ATOM     32  C   UNL     1      33.902 -23.159 -14.768  0.00  0.00    +0.068 C 
ATOM     33  C   UNL     1      31.645 -22.948 -15.603  0.00  0.00    +0.001 C 
ATOM     34  C   UNL     1      32.532 -23.052 -14.531  0.00  0.00    +0.012 C 
ENDBRANCH  26  29
ENDBRANCH  19  26
ENDBRANCH  18  20
ENDBRANCH   1  18
TORSDOF 5
ENDMDL
MODEL 5
REMARK VINA RESULT:     -11.2      4.184     10.124
REMARK  Name = 24978486
REMARK  5 active torsions:
REMARK  status: ('A' for Active; 'I' for Inactive)
REMARK    1  A    between atoms: O_1  and  C_6
REMARK    2  A    between atoms: O_1  and  C_18
REMARK    3  A    between atoms: C_18  and  C_20
REMARK    4  A    between atoms: N_19  and  C_26
REMARK    5  A    between atoms: C_26  and  C_29
REMARK                            x       y       z     vdW  Elec       q    Type
REMARK                         _______ _______ _______ _____ _____    ______ ____
ROOT
ATOM      1  O   UNL     1      35.200 -17.625 -21.250  0.00  0.00    -0.479 OA
ENDROOT
BRANCH   1   6
ATOM      2  N   UNL     1      33.311 -13.734 -23.434  0.00  0.00    -0.332 NA
ATOM      3  N   UNL     1      33.304 -13.810 -21.025  0.00  0.00    -0.317 NA
ATOM      4  N   UNL     1      34.186 -15.630 -19.864  0.00  0.00    -0.335 N 
ATOM      5  N   UNL     1      32.414 -11.971 -22.172  0.00  0.00    -0.283 N 
ATOM      6  C   UNL     1      34.861 -16.895 -22.362  0.00  0.00    +0.130 C 
ATOM      7  C   UNL     1      34.235 -15.637 -22.305  0.00  0.00    +0.177 C 
ATOM      8  C   UNL     1      35.166 -17.463 -23.594  0.00  0.00    +0.033 C 
ATOM      9  C   UNL     1      33.910 -14.937 -23.478  0.00  0.00    +0.137 C 
ATOM     10  C   UNL     1      33.903 -15.013 -21.105  0.00  0.00    +0.181 C 
ATOM     11  C   UNL     1      34.849 -16.781 -24.763  0.00  0.00    +0.005 C 
ATOM     12  C   UNL     1      34.227 -15.530 -24.697  0.00  0.00    +0.030 C 
ATOM     13  C   UNL     1      33.041 -13.235 -22.210  0.00  0.00    +0.197 C 
ATOM     14  H   UNL     1      33.946 -15.178 -19.024  0.00  0.00    +0.144 HD
ATOM     15  H   UNL     1      34.623 -16.512 -19.843  0.00  0.00    +0.144 HD
ATOM     16  H   UNL     1      32.198 -11.504 -23.011  0.00  0.00    +0.156 HD
ATOM     17  H   UNL     1      32.193 -11.556 -21.307  0.00  0.00    +0.156 HD
ENDBRANCH   1   6
BRANCH   1  18
ATOM     18  C   UNL     1      36.090 -18.710 -21.441  0.00  0.00    +0.205 C 
BRANCH  18  20
ATOM     19  N   UNL     1      34.166 -21.621 -18.896  0.00  0.00    +0.390 N 
ATOM     20  C   UNL     1      35.391 -19.995 -21.004  0.00  0.00    +0.040 C 
ATOM     21  C   UNL     1      33.996 -19.700 -20.446  0.00  0.00    -0.019 C 
ATOM     22  C   UNL     1      36.221 -20.743 -19.956  0.00  0.00    -0.019 C 
ATOM     23  C   UNL     1      33.330 -20.972 -19.914  0.00  0.00    -0.077 C 
ATOM     24  C   UNL     1      35.482 -21.979 -19.441  0.00  0.00    -0.077 C 
ATOM     25  H   UNL     1      34.310 -20.956 -18.136  0.00  0.00    -0.079 HD
BRANCH  19  26
ATOM     26  C   UNL     1      33.493 -22.804 -18.361  0.00  0.00    -0.049 C 
BRANCH  26  29
ATOM     27 CL   UNL     1      31.097 -23.006 -16.491  0.00  0.00    -0.082 Cl
ATOM     28 CL   UNL     1      31.827 -23.406 -13.387  0.00  0.00    -0.081 Cl
ATOM     29  C   UNL     1      33.770 -22.992 -16.893  0.00  0.00    -0.032 C 
ATOM     30  C   UNL     1      32.744 -23.096 -15.954  0.00  0.00    +0.062 C 
ATOM     31  C   UNL     1      35.101 -23.062 -16.482  0.00  0.00    -0.005 C 
ATOM     32  C   UNL     1      33.049 -23.270 -14.604  0.00  0.00    +0.068 C 
ATOM     33  C   UNL     1      35.406 -23.237 -15.132  0.00  0.00    +0.001 C 
ATOM     34  C   UNL     1      34.379 -23.340 -14.193  0.00  0.00    +0.012 C 
ENDBRANCH  26  29
ENDBRANCH  19  26
ENDBRANCH  18  20
ENDBRANCH   1  18
TORSDOF 5
ENDMDL
MODEL 6
REMARK VINA RESULT:     -11.1      7.710     11.283
REMARK  Name = 24978486
REMARK  5 active torsions:
REMARK  status: ('A' for Active; 'I' for Inactive)
REMARK    1  A    between atoms: O_1  and  C_6
REMARK    2  A    between atoms: O_1  and  C_18
REMARK    3  A    between atoms: C_18  and  C_20
REMARK    4  A    between atoms: N_19  and  C_26
REMARK    5  A    between atoms: C_26  and  C_29
REMARK                            x       y       z     vdW  Elec       q    Type
REMARK                         _______ _______ _______ _____ _____    ______ ____
ROOT
ATOM      1  O   UNL     1      33.297 -13.202 -21.531  0.00  0.00    -0.479 OA
ENDROOT
BRANCH   1   6
ATOM      2  N   UNL     1      35.042 -17.210 -23.622  0.00  0.00    -0.332 NA
ATOM      3  N   UNL     1      35.173 -17.021 -21.223  0.00  0.00    -0.317 NA
ATOM      4  N   UNL     1      34.366 -15.140 -20.106  0.00  0.00    -0.335 N 
ATOM      5  N   UNL     1      35.989 -18.920 -22.326  0.00  0.00    -0.283 N 
ATOM      6  C   UNL     1      33.574 -13.986 -22.623  0.00  0.00    +0.130 C 
ATOM      7  C   UNL     1      34.192 -15.246 -22.538  0.00  0.00    +0.177 C 
ATOM      8  C   UNL     1      33.210 -13.473 -23.863  0.00  0.00    +0.033 C 
ATOM      9  C   UNL     1      34.452 -16.003 -23.692  0.00  0.00    +0.137 C 
ATOM     10  C   UNL     1      34.580 -15.817 -21.329  0.00  0.00    +0.181 C 
ATOM     11  C   UNL     1      33.462 -14.212 -25.013  0.00  0.00    +0.005 C 
ATOM     12  C   UNL     1      34.077 -15.465 -24.920  0.00  0.00    +0.030 C 
ATOM     13  C   UNL     1      35.371 -17.653 -22.392  0.00  0.00    +0.197 C 
ATOM     14  H   UNL     1      34.644 -15.555 -19.258  0.00  0.00    +0.144 HD
ATOM     15  H   UNL     1      33.937 -14.254 -20.103  0.00  0.00    +0.144 HD
ATOM     16  H   UNL     1      36.159 -19.428 -23.152  0.00  0.00    +0.156 HD
ATOM     17  H   UNL     1      36.251 -19.297 -21.454  0.00  0.00    +0.156 HD
ENDBRANCH   1   6
BRANCH   1  18
ATOM     18  C   UNL     1      31.946 -13.133 -21.115  0.00  0.00    +0.205 C 
BRANCH  18  20
ATOM     19  N   UNL     1      32.373  -8.857 -20.682  0.00  0.00    +0.390 N 
ATOM     20  C   UNL     1      31.571 -11.665 -20.922  0.00  0.00    +0.040 C 
ATOM     21  C   UNL     1      31.993 -10.826 -22.131  0.00  0.00    -0.019 C 
ATOM     22  C   UNL     1      32.207 -11.098 -19.649  0.00  0.00    -0.019 C 
ATOM     23  C   UNL     1      31.711  -9.339 -21.901  0.00  0.00    -0.077 C 
ATOM     24  C   UNL     1      31.918  -9.603 -19.502  0.00  0.00    -0.077 C 
ATOM     25  H   UNL     1      33.376  -9.011 -20.786  0.00  0.00    -0.079 HD
BRANCH  19  26
ATOM     26  C   UNL     1      32.137  -7.424 -20.505  0.00  0.00    -0.049 C 
BRANCH  26  29
ATOM     27 CL   UNL     1      30.193  -5.221 -21.309  0.00  0.00    -0.082 Cl
ATOM     28 CL   UNL     1      30.971  -3.636 -23.993  0.00  0.00    -0.081 Cl
ATOM     29  C   UNL     1      32.447  -6.645 -21.755  0.00  0.00    -0.032 C 
ATOM     30  C   UNL     1      31.621  -5.617 -22.209  0.00  0.00    +0.062 C 
ATOM     31  C   UNL     1      33.600  -6.978 -22.465  0.00  0.00    -0.005 C 
ATOM     32  C   UNL     1      31.949  -4.921 -23.374  0.00  0.00    +0.068 C 
ATOM     33  C   UNL     1      33.928  -6.283 -23.629  0.00  0.00    +0.001 C 
ATOM     34  C   UNL     1      33.102  -5.255 -24.083  0.00  0.00    +0.012 C 
ENDBRANCH  26  29
ENDBRANCH  19  26
ENDBRANCH  18  20
ENDBRANCH   1  18
TORSDOF 5
ENDMDL
MODEL 7
REMARK VINA RESULT:     -11.1      3.265      5.347
REMARK  Name = 24978486
REMARK  5 active torsions:
REMARK  status: ('A' for Active; 'I' for Inactive)
REMARK    1  A    between atoms: O_1  and  C_6
REMARK    2  A    between atoms: O_1  and  C_18
REMARK    3  A    between atoms: C_18  and  C_20
REMARK    4  A    between atoms: N_19  and  C_26
REMARK    5  A    between atoms: C_26  and  C_29
REMARK                            x       y       z     vdW  Elec       q    Type
REMARK                         _______ _______ _______ _____ _____    ______ ____
ROOT
ATOM      1  O   UNL     1      34.637 -19.763 -21.265  0.00  0.00    -0.479 OA
ENDROOT
BRANCH   1   6
ATOM      2  N   UNL     1      34.691 -22.694 -17.407  0.00  0.00    -0.332 NA
ATOM      3  N   UNL     1      32.564 -22.150 -18.401  0.00  0.00    -0.317 NA
ATOM      4  N   UNL     1      32.413 -20.751 -20.260  0.00  0.00    -0.335 N 
ATOM      5  N   UNL     1      32.693 -23.559 -16.533  0.00  0.00    -0.283 N 
ATOM      6  C   UNL     1      35.278 -20.458 -20.270  0.00  0.00    +0.130 C 
ATOM      7  C   UNL     1      34.610 -21.248 -19.318  0.00  0.00    +0.177 C 
ATOM      8  C   UNL     1      36.664 -20.349 -20.232  0.00  0.00    +0.033 C 
ATOM      9  C   UNL     1      35.320 -21.935 -18.321  0.00  0.00    +0.137 C 
ATOM     10  C   UNL     1      33.226 -21.400 -19.301  0.00  0.00    +0.181 C 
ATOM     11  C   UNL     1      37.380 -21.024 -19.250  0.00  0.00    +0.005 C 
ATOM     12  C   UNL     1      36.707 -21.808 -18.307  0.00  0.00    +0.030 C 
ATOM     13  C   UNL     1      33.347 -22.760 -17.496  0.00  0.00    +0.197 C 
ATOM     14  H   UNL     1      31.437 -20.866 -20.237  0.00  0.00    +0.144 HD
ATOM     15  H   UNL     1      32.826 -20.184 -20.951  0.00  0.00    +0.144 HD
ATOM     16  H   UNL     1      33.217 -24.029 -15.845  0.00  0.00    +0.156 HD
ATOM     17  H   UNL     1      31.712 -23.646 -16.549  0.00  0.00    +0.156 HD
ENDBRANCH   1   6
BRANCH   1  18
ATOM     18  C   UNL     1      35.341 -19.582 -22.480  0.00  0.00    +0.205 C 
BRANCH  18  20
ATOM     19  N   UNL     1      34.330 -15.423 -23.057  0.00  0.00    +0.390 N 
ATOM     20  C   UNL     1      35.511 -18.085 -22.724  0.00  0.00    +0.040 C 
ATOM     21  C   UNL     1      34.977 -17.269 -21.543  0.00  0.00    -0.019 C 
ATOM     22  C   UNL     1      34.803 -17.654 -24.013  0.00  0.00    -0.019 C 
ATOM     23  C   UNL     1      35.052 -15.767 -21.825  0.00  0.00    -0.077 C 
ATOM     24  C   UNL     1      34.884 -16.140 -24.213  0.00  0.00    -0.077 C 
ATOM     25  H   UNL     1      33.358 -15.710 -22.944  0.00  0.00    -0.079 HD
BRANCH  19  26
ATOM     26  C   UNL     1      34.368 -13.978 -23.285  0.00  0.00    -0.049 C 
BRANCH  26  29
ATOM     27 CL   UNL     1      33.808 -11.052 -23.920  0.00  0.00    -0.082 Cl
ATOM     28 CL   UNL     1      31.736  -9.604 -21.937  0.00  0.00    -0.081 Cl
ATOM     29  C   UNL     1      33.405 -13.244 -22.391  0.00  0.00    -0.032 C 
ATOM     30  C   UNL     1      33.081 -11.903 -22.596  0.00  0.00    +0.062 C 
ATOM     31  C   UNL     1      32.830 -13.946 -21.331  0.00  0.00    -0.005 C 
ATOM     32  C   UNL     1      32.182 -11.263 -21.741  0.00  0.00    +0.068 C 
ATOM     33  C   UNL     1      31.931 -13.307 -20.477  0.00  0.00    +0.001 C 
ATOM     34  C   UNL     1      31.608 -11.966 -20.682  0.00  0.00    +0.012 C 
ENDBRANCH  26  29
ENDBRANCH  19  26
ENDBRANCH  18  20
ENDBRANCH   1  18
TORSDOF 5
ENDMDL
MODEL 8
REMARK VINA RESULT:     -11.0      4.332     10.171
REMARK  Name = 24978486
REMARK  5 active torsions:
REMARK  status: ('A' for Active; 'I' for Inactive)
REMARK    1  A    between atoms: O_1  and  C_6
REMARK    2  A    between atoms: O_1  and  C_18
REMARK    3  A    between atoms: C_18  and  C_20
REMARK    4  A    between atoms: N_19  and  C_26
REMARK    5  A    between atoms: C_26  and  C_29
REMARK                            x       y       z     vdW  Elec       q    Type
REMARK                         _______ _______ _______ _____ _____    ______ ____
ROOT
ATOM      1  O   UNL     1      34.877 -17.946 -21.213  0.00  0.00    -0.479 OA
ENDROOT
BRANCH   1   6
ATOM      2  N   UNL     1      34.226 -14.145 -24.146  0.00  0.00    -0.332 NA
ATOM      3  N   UNL     1      34.078 -13.792 -21.767  0.00  0.00    -0.317 NA
ATOM      4  N   UNL     1      34.374 -15.545 -20.258  0.00  0.00    -0.335 N 
ATOM      5  N   UNL     1      33.778 -12.017 -23.266  0.00  0.00    -0.283 N 
ATOM      6  C   UNL     1      34.805 -17.360 -22.452  0.00  0.00    +0.130 C 
ATOM      7  C   UNL     1      34.541 -15.993 -22.651  0.00  0.00    +0.177 C 
ATOM      8  C   UNL     1      35.006 -18.195 -23.545  0.00  0.00    +0.033 C 
ATOM      9  C   UNL     1      34.477 -15.451 -23.945  0.00  0.00    +0.137 C 
ATOM     10  C   UNL     1      34.332 -15.104 -21.601  0.00  0.00    +0.181 C 
ATOM     11  C   UNL     1      34.944 -17.671 -24.831  0.00  0.00    +0.005 C 
ATOM     12  C   UNL     1      34.682 -16.310 -25.021  0.00  0.00    +0.030 C 
ATOM     13  C   UNL     1      34.040 -13.386 -23.047  0.00  0.00    +0.197 C 
ATOM     14  H   UNL     1      34.224 -14.906 -19.525  0.00  0.00    +0.144 HD
ATOM     15  H   UNL     1      34.554 -16.492 -20.057  0.00  0.00    +0.144 HD
ATOM     16  H   UNL     1      33.739 -11.664 -24.185  0.00  0.00    +0.156 HD
ATOM     17  H   UNL     1      33.635 -11.413 -22.501  0.00  0.00    +0.156 HD
ENDBRANCH   1   6
BRANCH   1  18
ATOM     18  C   UNL     1      35.969 -18.816 -20.976  0.00  0.00    +0.205 C 
BRANCH  18  20
ATOM     19  N   UNL     1      34.242 -22.032 -18.668  0.00  0.00    +0.390 N 
ATOM     20  C   UNL     1      35.422 -20.198 -20.626  0.00  0.00    +0.040 C 
ATOM     21  C   UNL     1      33.950 -20.117 -20.208  0.00  0.00    -0.019 C 
ATOM     22  C   UNL     1      36.244 -20.847 -19.507  0.00  0.00    -0.019 C 
ATOM     23  C   UNL     1      33.425 -21.483 -19.758  0.00  0.00    -0.077 C 
ATOM     24  C   UNL     1      35.642 -22.188 -19.082  0.00  0.00    -0.077 C 
ATOM     25  H   UNL     1      34.214 -21.373 -17.890  0.00  0.00    -0.079 HD
BRANCH  19  26
ATOM     26  C   UNL     1      33.697 -23.312 -18.216  0.00  0.00    -0.049 C 
BRANCH  26  29
ATOM     27 CL   UNL     1      35.527 -24.035 -15.889  0.00  0.00    -0.082 Cl
ATOM     28 CL   UNL     1      34.184 -23.793 -12.980  0.00  0.00    -0.081 Cl
ATOM     29  C   UNL     1      33.125 -23.219 -16.826  0.00  0.00    -0.032 C 
ATOM     30  C   UNL     1      33.880 -23.528 -15.694  0.00  0.00    +0.062 C 
ATOM     31  C   UNL     1      31.799 -22.809 -16.689  0.00  0.00    -0.005 C 
ATOM     32  C   UNL     1      33.307 -23.427 -14.425  0.00  0.00    +0.068 C 
ATOM     33  C   UNL     1      31.227 -22.707 -15.422  0.00  0.00    +0.001 C 
ATOM     34  C   UNL     1      31.981 -23.016 -14.290  0.00  0.00    +0.012 C 
ENDBRANCH  26  29
ENDBRANCH  19  26
ENDBRANCH  18  20
ENDBRANCH   1  18
TORSDOF 5
ENDMDL
MODEL 9
REMARK VINA RESULT:     -11.0      7.025     11.313
REMARK  Name = 24978486
REMARK  5 active torsions:
REMARK  status: ('A' for Active; 'I' for Inactive)
REMARK    1  A    between atoms: O_1  and  C_6
REMARK    2  A    between atoms: O_1  and  C_18
REMARK    3  A    between atoms: C_18  and  C_20
REMARK    4  A    between atoms: N_19  and  C_26
REMARK    5  A    between atoms: C_26  and  C_29
REMARK                            x       y       z     vdW  Elec       q    Type
REMARK                         _______ _______ _______ _____ _____    ______ ____
ROOT
ATOM      1  O   UNL     1      33.215 -13.703 -22.427  0.00  0.00    -0.479 OA
ENDROOT
BRANCH   1   6
ATOM      2  N   UNL     1      35.612 -17.889 -22.886  0.00  0.00    -0.332 NA
ATOM      3  N   UNL     1      35.211 -17.037 -20.668  0.00  0.00    -0.317 NA
ATOM      4  N   UNL     1      34.069 -15.034 -20.323  0.00  0.00    -0.335 N 
ATOM      5  N   UNL     1      36.361 -19.053 -20.992  0.00  0.00    -0.283 N 
ATOM      6  C   UNL     1      33.768 -14.716 -23.169  0.00  0.00    +0.130 C 
ATOM      7  C   UNL     1      34.430 -15.821 -22.605  0.00  0.00    +0.177 C 
ATOM      8  C   UNL     1      33.649 -14.609 -24.550  0.00  0.00    +0.033 C 
ATOM      9  C   UNL     1      34.977 -16.828 -23.416  0.00  0.00    +0.137 C 
ATOM     10  C   UNL     1      34.582 -15.989 -21.231  0.00  0.00    +0.181 C 
ATOM     11  C   UNL     1      34.188 -15.599 -25.365  0.00  0.00    +0.005 C 
ATOM     12  C   UNL     1      34.844 -16.695 -24.795  0.00  0.00    +0.030 C 
ATOM     13  C   UNL     1      35.694 -17.936 -21.541  0.00  0.00    +0.197 C 
ATOM     14  H   UNL     1      34.183 -15.164 -19.354  0.00  0.00    +0.144 HD
ATOM     15  H   UNL     1      33.596 -14.239 -20.660  0.00  0.00    +0.144 HD
ATOM     16  H   UNL     1      36.735 -19.743 -21.586  0.00  0.00    +0.156 HD
ATOM     17  H   UNL     1      36.451 -19.142 -20.015  0.00  0.00    +0.156 HD
ENDBRANCH   1   6
BRANCH   1  18
ATOM     18  C   UNL     1      32.606 -12.642 -23.141  0.00  0.00    +0.205 C 
BRANCH  18  20
ATOM     19  N   UNL     1      33.801  -8.495 -23.295  0.00  0.00    +0.390 N 
ATOM     20  C   UNL     1      33.327 -11.343 -22.791  0.00  0.00    +0.040 C 
ATOM     21  C   UNL     1      32.333 -10.258 -22.368  0.00  0.00    -0.019 C 
ATOM     22  C   UNL     1      34.166 -10.845 -23.973  0.00  0.00    -0.019 C 
ATOM     23  C   UNL     1      33.040  -8.924 -22.114  0.00  0.00    -0.077 C 
ATOM     24  C   UNL     1      34.812  -9.493 -23.665  0.00  0.00    -0.077 C 
ATOM     25  H   UNL     1      33.148  -8.403 -24.074  0.00  0.00    -0.079 HD
BRANCH  19  26
ATOM     26  C   UNL     1      34.428  -7.195 -23.054  0.00  0.00    -0.049 C 
BRANCH  26  29
ATOM     27 CL   UNL     1      32.035  -5.580 -22.082  0.00  0.00    -0.082 Cl
ATOM     28 CL   UNL     1      30.981  -3.345 -24.135  0.00  0.00    -0.081 Cl
ATOM     29  C   UNL     1      33.887  -6.132 -23.972  0.00  0.00    -0.032 C 
ATOM     30  C   UNL     1      32.795  -5.338 -23.622  0.00  0.00    +0.062 C 
ATOM     31  C   UNL     1      34.511  -5.953 -25.206  0.00  0.00    -0.005 C 
ATOM     32  C   UNL     1      32.328  -4.364 -24.505  0.00  0.00    +0.068 C 
ATOM     33  C   UNL     1      34.045  -4.979 -26.089  0.00  0.00    +0.001 C 
ATOM     34  C   UNL     1      32.953  -4.185 -25.739  0.00  0.00    +0.012 C 
ENDBRANCH  26  29
ENDBRANCH  19  26
ENDBRANCH  18  20
ENDBRANCH   1  18
TORSDOF 5
ENDMDL
