MODEL 1
REMARK VINA RESULT:     -11.4      0.000      0.000
REMARK  Name = 10401956
REMARK  3 active torsions:
REMARK  status: ('A' for Active; 'I' for Inactive)
REMARK    1  A    between atoms: N_1  and  C_13
REMARK    2  A    between atoms: C_8  and  N_20
REMARK    3  A    between atoms: C_21  and  C_23
REMARK                            x       y       z     vdW  Elec       q    Type
REMARK                         _______ _______ _______ _____ _____    ______ ____
ROOT
ATOM      1  N   UNL     1      32.880 -22.336 -18.095  0.00  0.00    -0.301 N 
ATOM      2  N   UNL     1      33.717 -24.255 -14.525  0.00  0.00    -0.248 NA
ATOM      3  N   UNL     1      34.412 -23.420 -16.676  0.00  0.00    -0.233 NA
ATOM      4  C   UNL     1      32.123 -23.157 -15.942  0.00  0.00    +0.117 C 
ATOM      5  C   UNL     1      32.466 -23.815 -14.750  0.00  0.00    +0.067 C 
ATOM      6  C   UNL     1      33.150 -22.991 -16.868  0.00  0.00    +0.115 C 
ATOM      7  C   UNL     1      30.813 -22.700 -16.165  0.00  0.00    +0.001 C 
ATOM      8  C   UNL     1      29.833 -22.898 -15.198  0.00  0.00    +0.047 C 
ATOM      9  C   UNL     1      31.466 -23.999 -13.798  0.00  0.00    +0.016 C 
ATOM     10  C   UNL     1      30.160 -23.548 -14.013  0.00  0.00    +0.016 C 
ATOM     11  C   UNL     1      34.621 -24.034 -15.501  0.00  0.00    +0.251 C 
ATOM     12  H   UNL     1      31.940 -22.341 -18.388  0.00  0.00    +0.153 HD
ENDROOT
BRANCH   1  13
ATOM     13  C   UNL     1      33.771 -21.691 -18.934  0.00  0.00    +0.049 C 
ATOM     14  C   UNL     1      35.149 -21.976 -18.887  0.00  0.00    +0.015 C 
ATOM     15  C   UNL     1      33.324 -20.728 -19.861  0.00  0.00    +0.015 C 
ATOM     16  C   UNL     1      36.047 -21.324 -19.732  0.00  0.00    +0.001 C 
ATOM     17  C   UNL     1      34.223 -20.076 -20.706  0.00  0.00    +0.001 C 
ATOM     18  C   UNL     1      35.584 -20.375 -20.641  0.00  0.00    +0.000 C 
ENDBRANCH   1  13
BRANCH   8  20
ATOM     19  O   UNL     1      27.848 -23.635 -17.327  0.00  0.00    -0.270 OA
ATOM     20  N   UNL     1      28.531 -22.447 -15.414  0.00  0.00    -0.281 N 
ATOM     21  C   UNL     1      27.643 -22.827 -16.431  0.00  0.00    +0.250 C 
ATOM     22  H   UNL     1      28.194 -21.778 -14.774  0.00  0.00    +0.155 HD
BRANCH  21  23
ATOM     23  C   UNL     1      26.338 -22.112 -16.316  0.00  0.00    +0.058 C 
ATOM     24  C   UNL     1      25.960 -21.236 -17.253  0.00  0.00    +0.005 C 
ENDBRANCH  21  23
ENDBRANCH   8  20
TORSDOF 3
ENDMDL
MODEL 2
REMARK VINA RESULT:     -10.5      2.785      3.807
REMARK  Name = 10401956
REMARK  3 active torsions:
REMARK  status: ('A' for Active; 'I' for Inactive)
REMARK    1  A    between atoms: N_1  and  C_13
REMARK    2  A    between atoms: C_8  and  N_20
REMARK    3  A    between atoms: C_21  and  C_23
REMARK                            x       y       z     vdW  Elec       q    Type
REMARK                         _______ _______ _______ _____ _____    ______ ____
ROOT
ATOM      1  N   UNL     1      34.795 -22.565 -17.836  0.00  0.00    -0.301 N 
ATOM      2  N   UNL     1      37.702 -22.662 -14.892  0.00  0.00    -0.248 NA
ATOM      3  N   UNL     1      36.973 -22.056 -17.108  0.00  0.00    -0.233 NA
ATOM      4  C   UNL     1      35.473 -23.200 -15.596  0.00  0.00    +0.117 C 
ATOM      5  C   UNL     1      36.498 -23.204 -14.636  0.00  0.00    +0.067 C 
ATOM      6  C   UNL     1      35.779 -22.606 -16.818  0.00  0.00    +0.115 C 
ATOM      7  C   UNL     1      34.218 -23.768 -15.317  0.00  0.00    +0.001 C 
ATOM      8  C   UNL     1      33.977 -24.346 -14.074  0.00  0.00    +0.047 C 
ATOM      9  C   UNL     1      36.229 -23.789 -13.401  0.00  0.00    +0.016 C 
ATOM     10  C   UNL     1      34.984 -24.356 -13.115  0.00  0.00    +0.016 C 
ATOM     11  C   UNL     1      37.873 -22.118 -16.114  0.00  0.00    +0.251 C 
ATOM     12  H   UNL     1      34.083 -23.242 -17.775  0.00  0.00    +0.153 HD
ENDROOT
BRANCH   1  13
ATOM     13  C   UNL     1      34.707 -21.692 -18.906  0.00  0.00    +0.049 C 
ATOM     14  C   UNL     1      35.864 -21.246 -19.575  0.00  0.00    +0.015 C 
ATOM     15  C   UNL     1      33.457 -21.222 -19.356  0.00  0.00    +0.015 C 
ATOM     16  C   UNL     1      35.775 -20.365 -20.652  0.00  0.00    +0.001 C 
ATOM     17  C   UNL     1      33.370 -20.340 -20.434  0.00  0.00    +0.001 C 
ATOM     18  C   UNL     1      34.528 -19.912 -21.082  0.00  0.00    +0.000 C 
ENDBRANCH   1  13
BRANCH   8  20
ATOM     19  O   UNL     1      31.274 -23.065 -13.809  0.00  0.00    -0.270 OA
ATOM     20  N   UNL     1      32.733 -24.911 -13.792  0.00  0.00    -0.281 N 
ATOM     21  C   UNL     1      31.495 -24.263 -13.679  0.00  0.00    +0.250 C 
ATOM     22  H   UNL     1      32.724 -25.886 -13.654  0.00  0.00    +0.155 HD
BRANCH  21  23
ATOM     23  C   UNL     1      30.398 -25.223 -13.364  0.00  0.00    +0.058 C 
ATOM     24  C   UNL     1      29.461 -25.506 -14.275  0.00  0.00    +0.005 C 
ENDBRANCH  21  23
ENDBRANCH   8  20
TORSDOF 3
ENDMDL
MODEL 3
REMARK VINA RESULT:     -10.4      7.040     10.210
REMARK  Name = 10401956
REMARK  3 active torsions:
REMARK  status: ('A' for Active; 'I' for Inactive)
REMARK    1  A    between atoms: N_1  and  C_13
REMARK    2  A    between atoms: C_8  and  N_20
REMARK    3  A    between atoms: C_21  and  C_23
REMARK                            x       y       z     vdW  Elec       q    Type
REMARK                         _______ _______ _______ _____ _____    ______ ____
ROOT
ATOM      1  N   UNL     1      35.177 -17.136 -21.259  0.00  0.00    -0.301 N 
ATOM      2  N   UNL     1      34.279 -15.703 -25.036  0.00  0.00    -0.248 NA
ATOM      3  N   UNL     1      35.264 -17.367 -23.598  0.00  0.00    -0.233 NA
ATOM      4  C   UNL     1      34.168 -15.429 -22.656  0.00  0.00    +0.117 C 
ATOM      5  C   UNL     1      33.892 -14.992 -23.962  0.00  0.00    +0.067 C 
ATOM      6  C   UNL     1      34.861 -16.631 -22.545  0.00  0.00    +0.115 C 
ATOM      7  C   UNL     1      33.759 -14.678 -21.540  0.00  0.00    +0.001 C 
ATOM      8  C   UNL     1      33.069 -13.484 -21.721  0.00  0.00    +0.047 C 
ATOM      9  C   UNL     1      33.200 -13.793 -24.113  0.00  0.00    +0.016 C 
ATOM     10  C   UNL     1      32.789 -13.041 -23.009  0.00  0.00    +0.016 C 
ATOM     11  C   UNL     1      34.943 -16.852 -24.796  0.00  0.00    +0.251 C 
ATOM     12  H   UNL     1      35.209 -16.472 -20.532  0.00  0.00    +0.153 HD
ENDROOT
BRANCH   1  13
ATOM     13  C   UNL     1      35.444 -18.443 -20.895  0.00  0.00    +0.049 C 
ATOM     14  C   UNL     1      34.404 -19.381 -20.742  0.00  0.00    +0.015 C 
ATOM     15  C   UNL     1      36.765 -18.875 -20.665  0.00  0.00    +0.015 C 
ATOM     16  C   UNL     1      34.674 -20.698 -20.373  0.00  0.00    +0.001 C 
ATOM     17  C   UNL     1      37.034 -20.194 -20.296  0.00  0.00    +0.001 C 
ATOM     18  C   UNL     1      35.988 -21.105 -20.150  0.00  0.00    +0.000 C 
ENDBRANCH   1  13
BRANCH   8  20
ATOM     19  O   UNL     1      30.826 -11.508 -21.436  0.00  0.00    -0.270 OA
ATOM     20  N   UNL     1      32.660 -12.735 -20.618  0.00  0.00    -0.281 N 
ATOM     21  C   UNL     1      31.598 -11.821 -20.539  0.00  0.00    +0.250 C 
ATOM     22  H   UNL     1      33.181 -12.863 -19.792  0.00  0.00    +0.155 HD
BRANCH  21  23
ATOM     23  C   UNL     1      31.487 -11.223 -19.177  0.00  0.00    +0.058 C 
ATOM     24  C   UNL     1      31.945  -9.991 -18.936  0.00  0.00    +0.005 C 
ENDBRANCH  21  23
ENDBRANCH   8  20
TORSDOF 3
ENDMDL
MODEL 4
REMARK VINA RESULT:     -10.3      3.302      7.558
REMARK  Name = 10401956
REMARK  3 active torsions:
REMARK  status: ('A' for Active; 'I' for Inactive)
REMARK    1  A    between atoms: N_1  and  C_13
REMARK    2  A    between atoms: C_8  and  N_20
REMARK    3  A    between atoms: C_21  and  C_23
REMARK                            x       y       z     vdW  Elec       q    Type
REMARK                         _______ _______ _______ _____ _____    ______ ____
ROOT
ATOM      1  N   UNL     1      32.667 -23.777 -15.941  0.00  0.00    -0.301 N 
ATOM      2  N   UNL     1      34.866 -21.750 -18.801  0.00  0.00    -0.248 NA
ATOM      3  N   UNL     1      32.787 -22.685 -18.021  0.00  0.00    -0.233 NA
ATOM      4  C   UNL     1      34.787 -22.856 -16.674  0.00  0.00    +0.117 C 
ATOM      5  C   UNL     1      35.482 -22.164 -17.680  0.00  0.00    +0.067 C 
ATOM      6  C   UNL     1      33.435 -23.085 -16.910  0.00  0.00    +0.115 C 
ATOM      7  C   UNL     1      35.442 -23.284 -15.506  0.00  0.00    +0.001 C 
ATOM      8  C   UNL     1      36.797 -23.023 -15.333  0.00  0.00    +0.047 C 
ATOM      9  C   UNL     1      36.838 -21.916 -17.480  0.00  0.00    +0.016 C 
ATOM     10  C   UNL     1      37.496 -22.338 -16.321  0.00  0.00    +0.016 C 
ATOM     11  C   UNL     1      33.552 -22.033 -18.910  0.00  0.00    +0.251 C 
ATOM     12  H   UNL     1      33.173 -24.359 -15.328  0.00  0.00    +0.153 HD
ENDROOT
BRANCH   1  13
ATOM     13  C   UNL     1      31.298 -23.739 -15.747  0.00  0.00    +0.049 C 
ATOM     14  C   UNL     1      30.528 -22.661 -16.223  0.00  0.00    +0.015 C 
ATOM     15  C   UNL     1      30.635 -24.778 -15.065  0.00  0.00    +0.015 C 
ATOM     16  C   UNL     1      29.148 -22.622 -16.026  0.00  0.00    +0.001 C 
ATOM     17  C   UNL     1      29.254 -24.738 -14.867  0.00  0.00    +0.001 C 
ATOM     18  C   UNL     1      28.511 -23.660 -15.348  0.00  0.00    +0.000 C 
ENDBRANCH   1  13
BRANCH   8  20
ATOM     19  O   UNL     1      37.806 -25.742 -14.551  0.00  0.00    -0.270 OA
ATOM     20  N   UNL     1      37.451 -23.445 -14.175  0.00  0.00    -0.281 N 
ATOM     21  C   UNL     1      37.903 -24.735 -13.860  0.00  0.00    +0.250 C 
ATOM     22  H   UNL     1      37.616 -22.752 -13.496  0.00  0.00    +0.155 HD
BRANCH  21  23
ATOM     23  C   UNL     1      38.556 -24.776 -12.519  0.00  0.00    +0.058 C 
ATOM     24  C   UNL     1      38.097 -24.020 -11.517  0.00  0.00    +0.005 C 
ENDBRANCH  21  23
ENDBRANCH   8  20
TORSDOF 3
ENDMDL
MODEL 5
REMARK VINA RESULT:      -9.9     11.164     14.264
REMARK  Name = 10401956
REMARK  3 active torsions:
REMARK  status: ('A' for Active; 'I' for Inactive)
REMARK    1  A    between atoms: N_1  and  C_13
REMARK    2  A    between atoms: C_8  and  N_20
REMARK    3  A    between atoms: C_21  and  C_23
REMARK                            x       y       z     vdW  Elec       q    Type
REMARK                         _______ _______ _______ _____ _____    ______ ____
ROOT
ATOM      1  N   UNL     1      33.133 -12.391 -23.357  0.00  0.00    -0.301 N 
ATOM      2  N   UNL     1      31.416 -10.951 -19.877  0.00  0.00    -0.248 NA
ATOM      3  N   UNL     1      32.062 -12.785 -21.300  0.00  0.00    -0.233 NA
ATOM      4  C   UNL     1      32.506 -10.505 -21.967  0.00  0.00    +0.117 C 
ATOM      5  C   UNL     1      31.912 -10.075 -20.770  0.00  0.00    +0.067 C 
ATOM      6  C   UNL     1      32.549 -11.881 -22.171  0.00  0.00    +0.115 C 
ATOM      7  C   UNL     1      33.021  -9.580 -22.892  0.00  0.00    +0.001 C 
ATOM      8  C   UNL     1      32.946  -8.216 -22.627  0.00  0.00    +0.047 C 
ATOM      9  C   UNL     1      31.851  -8.704 -20.530  0.00  0.00    +0.016 C 
ATOM     10  C   UNL     1      32.361  -7.778 -21.445  0.00  0.00    +0.016 C 
ATOM     11  C   UNL     1      31.519 -12.258 -20.192  0.00  0.00    +0.251 C 
ATOM     12  H   UNL     1      33.164 -11.772 -24.122  0.00  0.00    +0.153 HD
ENDROOT
BRANCH   1  13
ATOM     13  C   UNL     1      33.668 -13.648 -23.576  0.00  0.00    +0.049 C 
ATOM     14  C   UNL     1      34.435 -14.292 -22.586  0.00  0.00    +0.015 C 
ATOM     15  C   UNL     1      33.461 -14.320 -24.797  0.00  0.00    +0.015 C 
ATOM     16  C   UNL     1      34.975 -15.559 -22.807  0.00  0.00    +0.001 C 
ATOM     17  C   UNL     1      34.002 -15.587 -25.017  0.00  0.00    +0.001 C 
ATOM     18  C   UNL     1      34.759 -16.206 -24.022  0.00  0.00    +0.000 C 
ENDBRANCH   1  13
BRANCH   8  20
ATOM     19  O   UNL     1      35.778  -7.370 -23.161  0.00  0.00    -0.270 OA
ATOM     20  N   UNL     1      33.456  -7.294 -23.541  0.00  0.00    -0.281 N 
ATOM     21  C   UNL     1      34.796  -6.935 -23.750  0.00  0.00    +0.250 C 
ATOM     22  H   UNL     1      32.794  -6.839 -24.110  0.00  0.00    +0.155 HD
BRANCH  21  23
ATOM     23  C   UNL     1      34.929  -5.907 -24.823  0.00  0.00    +0.058 C 
ATOM     24  C   UNL     1      33.846  -5.437 -25.451  0.00  0.00    +0.005 C 
ENDBRANCH  21  23
ENDBRANCH   8  20
TORSDOF 3
ENDMDL
MODEL 6
REMARK VINA RESULT:      -9.8      2.281      3.861
REMARK  Name = 10401956
REMARK  3 active torsions:
REMARK  status: ('A' for Active; 'I' for Inactive)
REMARK    1  A    between atoms: N_1  and  C_13
REMARK    2  A    between atoms: C_8  and  N_20
REMARK    3  A    between atoms: C_21  and  C_23
REMARK                            x       y       z     vdW  Elec       q    Type
REMARK                         _______ _______ _______ _____ _____    ______ ____
ROOT
ATOM      1  N   UNL     1      34.369 -20.603 -20.507  0.00  0.00    -0.301 N 
ATOM      2  N   UNL     1      36.824 -22.098 -17.529  0.00  0.00    -0.248 NA
ATOM      3  N   UNL     1      36.518 -20.898 -19.597  0.00  0.00    -0.233 NA
ATOM      4  C   UNL     1      34.615 -21.820 -18.424  0.00  0.00    +0.117 C 
ATOM      5  C   UNL     1      35.497 -22.304 -17.444  0.00  0.00    +0.067 C 
ATOM      6  C   UNL     1      35.195 -21.121 -19.480  0.00  0.00    +0.115 C 
ATOM      7  C   UNL     1      33.231 -22.040 -18.324  0.00  0.00    +0.001 C 
ATOM      8  C   UNL     1      32.715 -22.747 -17.242  0.00  0.00    +0.047 C 
ATOM      9  C   UNL     1      34.954 -23.008 -16.372  0.00  0.00    +0.016 C 
ATOM     10  C   UNL     1      33.578 -23.231 -16.264  0.00  0.00    +0.016 C 
ATOM     11  C   UNL     1      37.261 -21.406 -18.601  0.00  0.00    +0.251 C 
ATOM     12  H   UNL     1      33.495 -21.043 -20.620  0.00  0.00    +0.153 HD
ENDROOT
BRANCH   1  13
ATOM     13  C   UNL     1      34.634 -19.557 -21.372  0.00  0.00    +0.049 C 
ATOM     14  C   UNL     1      34.887 -18.259 -20.885  0.00  0.00    +0.015 C 
ATOM     15  C   UNL     1      34.658 -19.758 -22.767  0.00  0.00    +0.015 C 
ATOM     16  C   UNL     1      35.153 -17.205 -21.758  0.00  0.00    +0.001 C 
ATOM     17  C   UNL     1      34.924 -18.702 -23.639  0.00  0.00    +0.001 C 
ATOM     18  C   UNL     1      35.172 -17.425 -23.134  0.00  0.00    +0.000 C 
ENDBRANCH   1  13
BRANCH   8  20
ATOM     19  O   UNL     1      30.918 -22.708 -14.837  0.00  0.00    -0.270 OA
ATOM     20  N   UNL     1      31.342 -22.969 -17.137  0.00  0.00    -0.281 N 
ATOM     21  C   UNL     1      30.548 -22.938 -15.981  0.00  0.00    +0.250 C 
ATOM     22  H   UNL     1      30.873 -23.172 -17.978  0.00  0.00    +0.155 HD
BRANCH  21  23
ATOM     23  C   UNL     1      29.118 -23.230 -16.290  0.00  0.00    +0.058 C 
ATOM     24  C   UNL     1      28.141 -22.706 -15.542  0.00  0.00    +0.005 C 
ENDBRANCH  21  23
ENDBRANCH   8  20
TORSDOF 3
ENDMDL
MODEL 7
REMARK VINA RESULT:      -9.8      1.853      2.659
REMARK  Name = 10401956
REMARK  3 active torsions:
REMARK  status: ('A' for Active; 'I' for Inactive)
REMARK    1  A    between atoms: N_1  and  C_13
REMARK    2  A    between atoms: C_8  and  N_20
REMARK    3  A    between atoms: C_21  and  C_23
REMARK                            x       y       z     vdW  Elec       q    Type
REMARK                         _______ _______ _______ _____ _____    ______ ____
ROOT
ATOM      1  N   UNL     1      34.770 -21.851 -18.839  0.00  0.00    -0.301 N 
ATOM      2  N   UNL     1      36.535 -22.899 -15.245  0.00  0.00    -0.248 NA
ATOM      3  N   UNL     1      36.671 -21.953 -17.457  0.00  0.00    -0.233 NA
ATOM      4  C   UNL     1      34.572 -22.814 -16.622  0.00  0.00    +0.117 C 
ATOM      5  C   UNL     1      35.225 -23.148 -15.425  0.00  0.00    +0.067 C 
ATOM      6  C   UNL     1      35.358 -22.216 -17.603  0.00  0.00    +0.115 C 
ATOM      7  C   UNL     1      33.203 -23.079 -16.798  0.00  0.00    +0.001 C 
ATOM      8  C   UNL     1      32.474 -23.680 -15.777  0.00  0.00    +0.047 C 
ATOM      9  C   UNL     1      34.471 -23.749 -14.419  0.00  0.00    +0.016 C 
ATOM     10  C   UNL     1      33.109 -24.015 -14.586  0.00  0.00    +0.016 C 
ATOM     11  C   UNL     1      37.186 -22.315 -16.272  0.00  0.00    +0.251 C 
ATOM     12  H   UNL     1      33.949 -22.336 -19.085  0.00  0.00    +0.153 HD
ENDROOT
BRANCH   1  13
ATOM     13  C   UNL     1      35.202 -20.898 -19.744  0.00  0.00    +0.049 C 
ATOM     14  C   UNL     1      36.571 -20.597 -19.882  0.00  0.00    +0.015 C 
ATOM     15  C   UNL     1      34.285 -20.200 -20.554  0.00  0.00    +0.015 C 
ATOM     16  C   UNL     1      37.006 -19.636 -20.794  0.00  0.00    +0.001 C 
ATOM     17  C   UNL     1      34.721 -19.238 -21.466  0.00  0.00    +0.001 C 
ATOM     18  C   UNL     1      36.082 -18.956 -21.586  0.00  0.00    +0.000 C 
ENDBRANCH   1  13
BRANCH   8  20
ATOM     19  O   UNL     1      30.078 -22.495 -14.408  0.00  0.00    -0.270 OA
ATOM     20  N   UNL     1      31.115 -23.945 -15.946  0.00  0.00    -0.281 N 
ATOM     21  C   UNL     1      30.031 -23.358 -15.276  0.00  0.00    +0.250 C 
ATOM     22  H   UNL     1      30.889 -24.628 -16.618  0.00  0.00    +0.155 HD
BRANCH  21  23
ATOM     23  C   UNL     1      28.729 -23.916 -15.743  0.00  0.00    +0.058 C 
ATOM     24  C   UNL     1      28.015 -23.282 -16.679  0.00  0.00    +0.005 C 
ENDBRANCH  21  23
ENDBRANCH   8  20
TORSDOF 3
ENDMDL
MODEL 8
REMARK VINA RESULT:      -9.6     10.792     13.749
REMARK  Name = 10401956
REMARK  3 active torsions:
REMARK  status: ('A' for Active; 'I' for Inactive)
REMARK    1  A    between atoms: N_1  and  C_13
REMARK    2  A    between atoms: C_8  and  N_20
REMARK    3  A    between atoms: C_21  and  C_23
REMARK                            x       y       z     vdW  Elec       q    Type
REMARK                         _______ _______ _______ _____ _____    ______ ____
ROOT
ATOM      1  N   UNL     1      33.061 -12.778 -23.392  0.00  0.00    -0.301 N 
ATOM      2  N   UNL     1      31.628 -11.816 -19.630  0.00  0.00    -0.248 NA
ATOM      3  N   UNL     1      32.260 -13.451 -21.285  0.00  0.00    -0.233 NA
ATOM      4  C   UNL     1      32.439 -11.089 -21.767  0.00  0.00    +0.117 C 
ATOM      5  C   UNL     1      31.948 -10.823 -20.479  0.00  0.00    +0.067 C 
ATOM      6  C   UNL     1      32.572 -12.432 -22.108  0.00  0.00    +0.115 C 
ATOM      7  C   UNL     1      32.772 -10.042 -22.645  0.00  0.00    +0.001 C 
ATOM      8  C   UNL     1      32.616  -8.720 -22.241  0.00  0.00    +0.047 C 
ATOM      9  C   UNL     1      31.802  -9.490 -20.101  0.00  0.00    +0.016 C 
ATOM     10  C   UNL     1      32.130  -8.444 -20.968  0.00  0.00    +0.016 C 
ATOM     11  C   UNL     1      31.801 -13.076 -20.080  0.00  0.00    +0.251 C 
ATOM     12  H   UNL     1      32.956 -12.094 -24.092  0.00  0.00    +0.153 HD
ENDROOT
BRANCH   1  13
ATOM     13  C   UNL     1      33.669 -13.957 -23.786  0.00  0.00    +0.049 C 
ATOM     14  C   UNL     1      33.398 -14.526 -25.046  0.00  0.00    +0.015 C 
ATOM     15  C   UNL     1      34.576 -14.623 -22.938  0.00  0.00    +0.015 C 
ATOM     16  C   UNL     1      34.011 -15.714 -25.443  0.00  0.00    +0.001 C 
ATOM     17  C   UNL     1      35.187 -15.812 -23.337  0.00  0.00    +0.001 C 
ATOM     18  C   UNL     1      34.905 -16.357 -24.589  0.00  0.00    +0.000 C 
ENDBRANCH   1  13
BRANCH   8  20
ATOM     19  O   UNL     1      30.970  -6.399 -23.203  0.00  0.00    -0.270 OA
ATOM     20  N   UNL     1      32.944  -7.677 -23.108  0.00  0.00    -0.281 N 
ATOM     21  C   UNL     1      32.132  -6.613 -23.525  0.00  0.00    +0.250 C 
ATOM     22  H   UNL     1      33.859  -7.691 -23.471  0.00  0.00    +0.155 HD
BRANCH  21  23
ATOM     23  C   UNL     1      32.856  -5.703 -24.461  0.00  0.00    +0.058 C 
ATOM     24  C   UNL     1      34.179  -5.808 -24.622  0.00  0.00    +0.005 C 
ENDBRANCH  21  23
ENDBRANCH   8  20
TORSDOF 3
ENDMDL
MODEL 9
REMARK VINA RESULT:      -9.6     11.157     13.982
REMARK  Name = 10401956
REMARK  3 active torsions:
REMARK  status: ('A' for Active; 'I' for Inactive)
REMARK    1  A    between atoms: N_1  and  C_13
REMARK    2  A    between atoms: C_8  and  N_20
REMARK    3  A    between atoms: C_21  and  C_23
REMARK                            x       y       z     vdW  Elec       q    Type
REMARK                         _______ _______ _______ _____ _____    ______ ____
ROOT
ATOM      1  N   UNL     1      32.731  -8.941 -22.464  0.00  0.00    -0.301 N 
ATOM      2  N   UNL     1      31.667 -10.964 -19.014  0.00  0.00    -0.248 NA
ATOM      3  N   UNL     1      32.043  -8.909 -20.215  0.00  0.00    -0.233 NA
ATOM      4  C   UNL     1      32.369 -11.041 -21.307  0.00  0.00    +0.117 C 
ATOM      5  C   UNL     1      32.000 -11.672 -20.108  0.00  0.00    +0.067 C 
ATOM      6  C   UNL     1      32.369  -9.649 -21.292  0.00  0.00    +0.115 C 
ATOM      7  C   UNL     1      32.714 -11.792 -22.443  0.00  0.00    +0.001 C 
ATOM      8  C   UNL     1      32.693 -13.182 -22.391  0.00  0.00    +0.047 C 
ATOM      9  C   UNL     1      31.987 -13.065 -20.084  0.00  0.00    +0.016 C 
ATOM     10  C   UNL     1      32.329 -13.819 -21.210  0.00  0.00    +0.016 C 
ATOM     11  C   UNL     1      31.707  -9.620 -19.128  0.00  0.00    +0.251 C 
ATOM     12  H   UNL     1      33.289  -9.433 -23.109  0.00  0.00    +0.153 HD
ENDROOT
BRANCH   1  13
ATOM     13  C   UNL     1      32.399  -7.646 -22.818  0.00  0.00    +0.049 C 
ATOM     14  C   UNL     1      31.136  -7.108 -22.503  0.00  0.00    +0.015 C 
ATOM     15  C   UNL     1      33.316  -6.826 -23.507  0.00  0.00    +0.015 C 
ATOM     16  C   UNL     1      30.801  -5.803 -22.862  0.00  0.00    +0.001 C 
ATOM     17  C   UNL     1      32.980  -5.520 -23.865  0.00  0.00    +0.001 C 
ATOM     18  C   UNL     1      31.723  -5.009 -23.542  0.00  0.00    +0.000 C 
ENDBRANCH   1  13
BRANCH   8  20
ATOM     19  O   UNL     1      35.095 -14.904 -22.924  0.00  0.00    -0.270 OA
ATOM     20  N   UNL     1      33.035 -13.932 -23.517  0.00  0.00    -0.281 N 
ATOM     21  C   UNL     1      34.176 -14.724 -23.713  0.00  0.00    +0.250 C 
ATOM     22  H   UNL     1      32.396 -13.903 -24.265  0.00  0.00    +0.155 HD
BRANCH  21  23
ATOM     23  C   UNL     1      34.172 -15.369 -25.059  0.00  0.00    +0.058 C 
ATOM     24  C   UNL     1      33.333 -14.949 -26.011  0.00  0.00    +0.005 C 
ENDBRANCH  21  23
ENDBRANCH   8  20
TORSDOF 3
ENDMDL
