MODEL 1
REMARK VINA RESULT:     -12.1      0.000      0.000
REMARK  Name = 5567
REMARK  8 active torsions:
REMARK  status: ('A' for Active; 'I' for Inactive)
REMARK    1  A    between atoms: N_1  and  C_20
REMARK    2  A    between atoms: C_2  and  C_8
REMARK    3  A    between atoms: C_2  and  O_18
REMARK    4  A    between atoms: C_11  and  C_17
REMARK    5  A    between atoms: C_20  and  C_21
REMARK    6  A    between atoms: C_21  and  C_22
REMARK    7  A    between atoms: C_22  and  C_24
REMARK    8  A    between atoms: C_24  and  C_26
REMARK                            x       y       z     vdW  Elec       q    Type
REMARK                         _______ _______ _______ _____ _____    ______ ____
ROOT
ATOM      1  N   UNL     1      35.378 -20.312 -20.004  0.00  0.00    +0.387 N 
ATOM      2  C   UNL     1      34.075 -22.440 -18.392  0.00  0.00    +0.103 C 
ATOM      3  C   UNL     1      33.304 -21.305 -19.102  0.00  0.00    +0.008 C 
ATOM      4  C   UNL     1      35.537 -21.984 -18.177  0.00  0.00    +0.008 C 
ATOM      5  C   UNL     1      34.027 -20.773 -20.344  0.00  0.00    -0.075 C 
ATOM      6  C   UNL     1      36.182 -21.402 -19.441  0.00  0.00    -0.075 C 
ATOM      7  H   UNL     1      35.292 -19.585 -19.293  0.00  0.00    -0.080 HD
ENDROOT
BRANCH   2   8
ATOM      8  C   UNL     1      33.460 -22.911 -17.073  0.00  0.00    +0.002 C 
ATOM      9  C   UNL     1      32.082 -22.829 -16.879  0.00  0.00    +0.002 C 
ATOM     10  C   UNL     1      34.279 -23.423 -16.068  0.00  0.00    -0.002 C 
ATOM     11  C   UNL     1      31.521 -23.260 -15.676  0.00  0.00    +0.071 C 
ATOM     12  C   UNL     1      33.718 -23.854 -14.865  0.00  0.00    -0.000 C 
ATOM     13  C   UNL     1      32.340 -23.772 -14.669  0.00  0.00    +0.004 C 
BRANCH  11  17
ATOM     14  F   UNL     1      29.435 -24.388 -15.364  0.00  0.00    -0.166 F 
ATOM     15  F   UNL     1      29.697 -22.500 -14.329  0.00  0.00    -0.166 F 
ATOM     16  F   UNL     1      29.410 -22.525 -16.485  0.00  0.00    -0.166 F 
ATOM     17  C   UNL     1      30.047 -23.171 -15.466  0.00  0.00    +0.419 C 
ENDBRANCH  11  17
ENDBRANCH   2   8
BRANCH   2  18
ATOM     18  O   UNL     1      34.055 -23.589 -19.253  0.00  0.00    -0.383 OA
ATOM     19  H   UNL     1      34.370 -24.365 -18.764  0.00  0.00    +0.211 HD
ENDBRANCH   2  18
BRANCH   1  20
ATOM     20  C   UNL     1      36.037 -19.742 -21.178  0.00  0.00    -0.077 C 
BRANCH  20  21
ATOM     21  C   UNL     1      34.993 -19.285 -22.200  0.00  0.00    -0.015 C 
BRANCH  21  22
ATOM     22  C   UNL     1      35.490 -18.115 -23.054  0.00  0.00    +0.067 C 
BRANCH  22  24
ATOM     23  O   UNL     1      35.017 -16.411 -21.411  0.00  0.00    -0.291 OA
ATOM     24  C   UNL     1      34.968 -16.763 -22.587  0.00  0.00    +0.173 C 
BRANCH  24  26
ATOM     25  F   UNL     1      32.836 -13.266 -26.382  0.00  0.00    -0.204 F 
ATOM     26  C   UNL     1      34.400 -15.829 -23.600  0.00  0.00    +0.035 C 
ATOM     27  C   UNL     1      34.439 -16.190 -24.928  0.00  0.00    +0.005 C 
ATOM     28  C   UNL     1      33.856 -14.639 -23.171  0.00  0.00    +0.005 C 
ATOM     29  C   UNL     1      33.906 -15.317 -25.876  0.00  0.00    +0.030 C 
ATOM     30  C   UNL     1      33.324 -13.765 -24.119  0.00  0.00    +0.030 C 
ATOM     31  C   UNL     1      33.348 -14.104 -25.472  0.00  0.00    +0.140 C 
ENDBRANCH  24  26
ENDBRANCH  22  24
ENDBRANCH  21  22
ENDBRANCH  20  21
ENDBRANCH   1  20
TORSDOF 8
ENDMDL
MODEL 2
REMARK VINA RESULT:     -12.0      1.636      2.059
REMARK  Name = 5567
REMARK  8 active torsions:
REMARK  status: ('A' for Active; 'I' for Inactive)
REMARK    1  A    between atoms: N_1  and  C_20
REMARK    2  A    between atoms: C_2  and  C_8
REMARK    3  A    between atoms: C_2  and  O_18
REMARK    4  A    between atoms: C_11  and  C_17
REMARK    5  A    between atoms: C_20  and  C_21
REMARK    6  A    between atoms: C_21  and  C_22
REMARK    7  A    between atoms: C_22  and  C_24
REMARK    8  A    between atoms: C_24  and  C_26
REMARK                            x       y       z     vdW  Elec       q    Type
REMARK                         _______ _______ _______ _____ _____    ______ ____
ROOT
ATOM      1  N   UNL     1      35.394 -20.314 -20.031  0.00  0.00    +0.387 N 
ATOM      2  C   UNL     1      34.073 -22.427 -18.413  0.00  0.00    +0.103 C 
ATOM      3  C   UNL     1      33.314 -21.271 -19.102  0.00  0.00    +0.008 C 
ATOM      4  C   UNL     1      35.547 -22.003 -18.220  0.00  0.00    +0.008 C 
ATOM      5  C   UNL     1      34.028 -20.745 -20.353  0.00  0.00    -0.075 C 
ATOM      6  C   UNL     1      36.183 -21.425 -19.490  0.00  0.00    -0.075 C 
ATOM      7  H   UNL     1      35.334 -19.591 -19.315  0.00  0.00    -0.080 HD
ENDROOT
BRANCH   2   8
ATOM      8  C   UNL     1      33.470 -22.895 -17.088  0.00  0.00    +0.002 C 
ATOM      9  C   UNL     1      32.096 -22.800 -16.877  0.00  0.00    +0.002 C 
ATOM     10  C   UNL     1      34.297 -23.418 -16.095  0.00  0.00    -0.002 C 
ATOM     11  C   UNL     1      31.545 -23.228 -15.668  0.00  0.00    +0.071 C 
ATOM     12  C   UNL     1      33.746 -23.846 -14.886  0.00  0.00    -0.000 C 
ATOM     13  C   UNL     1      32.371 -23.751 -14.673  0.00  0.00    +0.004 C 
BRANCH  11  17
ATOM     14  F   UNL     1      29.452 -24.337 -15.335  0.00  0.00    -0.166 F 
ATOM     15  F   UNL     1      29.746 -22.455 -14.296  0.00  0.00    -0.166 F 
ATOM     16  F   UNL     1      29.432 -22.469 -16.448  0.00  0.00    -0.166 F 
ATOM     17  C   UNL     1      30.075 -23.125 -15.439  0.00  0.00    +0.419 C 
ENDBRANCH  11  17
ENDBRANCH   2   8
BRANCH   2  18
ATOM     18  O   UNL     1      34.016 -23.569 -19.283  0.00  0.00    -0.383 OA
ATOM     19  H   UNL     1      34.516 -24.301 -18.889  0.00  0.00    +0.211 HD
ENDBRANCH   2  18
BRANCH   1  20
ATOM     20  C   UNL     1      36.045 -19.749 -21.212  0.00  0.00    -0.077 C 
BRANCH  20  21
ATOM     21  C   UNL     1      35.124 -18.730 -21.887  0.00  0.00    -0.015 C 
BRANCH  21  22
ATOM     22  C   UNL     1      35.297 -17.321 -21.313  0.00  0.00    +0.067 C 
BRANCH  22  24
ATOM     23  O   UNL     1      35.357 -16.183 -23.441  0.00  0.00    -0.291 OA
ATOM     24  C   UNL     1      34.920 -16.219 -22.294  0.00  0.00    +0.173 C 
BRANCH  24  26
ATOM     25  F   UNL     1      31.361 -12.256 -20.619  0.00  0.00    -0.204 F 
ATOM     26  C   UNL     1      33.971 -15.160 -21.846  0.00  0.00    +0.035 C 
ATOM     27  C   UNL     1      33.630 -14.161 -22.730  0.00  0.00    +0.005 C 
ATOM     28  C   UNL     1      33.469 -15.221 -20.566  0.00  0.00    +0.005 C 
ATOM     29  C   UNL     1      32.741 -13.171 -22.312  0.00  0.00    +0.030 C 
ATOM     30  C   UNL     1      32.580 -14.231 -20.148  0.00  0.00    +0.030 C 
ATOM     31  C   UNL     1      32.215 -13.206 -21.021  0.00  0.00    +0.140 C 
ENDBRANCH  24  26
ENDBRANCH  22  24
ENDBRANCH  21  22
ENDBRANCH  20  21
ENDBRANCH   1  20
TORSDOF 8
ENDMDL
MODEL 3
REMARK VINA RESULT:     -11.9      1.672      2.225
REMARK  Name = 5567
REMARK  8 active torsions:
REMARK  status: ('A' for Active; 'I' for Inactive)
REMARK    1  A    between atoms: N_1  and  C_20
REMARK    2  A    between atoms: C_2  and  C_8
REMARK    3  A    between atoms: C_2  and  O_18
REMARK    4  A    between atoms: C_11  and  C_17
REMARK    5  A    between atoms: C_20  and  C_21
REMARK    6  A    between atoms: C_21  and  C_22
REMARK    7  A    between atoms: C_22  and  C_24
REMARK    8  A    between atoms: C_24  and  C_26
REMARK                            x       y       z     vdW  Elec       q    Type
REMARK                         _______ _______ _______ _____ _____    ______ ____
ROOT
ATOM      1  N   UNL     1      34.802 -20.193 -20.286  0.00  0.00    +0.387 N 
ATOM      2  C   UNL     1      33.987 -22.374 -18.441  0.00  0.00    +0.103 C 
ATOM      3  C   UNL     1      33.009 -21.330 -19.023  0.00  0.00    +0.008 C 
ATOM      4  C   UNL     1      35.418 -21.791 -18.490  0.00  0.00    +0.008 C 
ATOM      5  C   UNL     1      33.459 -20.776 -20.380  0.00  0.00    -0.075 C 
ATOM      6  C   UNL     1      35.783 -21.194 -19.855  0.00  0.00    -0.075 C 
ATOM      7  H   UNL     1      34.775 -19.455 -19.582  0.00  0.00    -0.080 HD
ENDROOT
BRANCH   2   8
ATOM      8  C   UNL     1      33.651 -22.856 -17.028  0.00  0.00    +0.002 C 
ATOM      9  C   UNL     1      32.320 -23.006 -16.642  0.00  0.00    +0.002 C 
ATOM     10  C   UNL     1      34.677 -23.145 -16.131  0.00  0.00    -0.002 C 
ATOM     11  C   UNL     1      32.014 -23.447 -15.354  0.00  0.00    +0.071 C 
ATOM     12  C   UNL     1      34.371 -23.586 -14.843  0.00  0.00    -0.000 C 
ATOM     13  C   UNL     1      33.040 -23.736 -14.455  0.00  0.00    +0.004 C 
BRANCH  11  17
ATOM     14  F   UNL     1      30.428 -23.764 -13.592  0.00  0.00    -0.166 F 
ATOM     15  F   UNL     1      29.802 -22.542 -15.270  0.00  0.00    -0.166 F 
ATOM     16  F   UNL     1      29.996 -24.694 -15.509  0.00  0.00    -0.166 F 
ATOM     17  C   UNL     1      30.591 -23.607 -14.939  0.00  0.00    +0.419 C 
ENDBRANCH  11  17
ENDBRANCH   2   8
BRANCH   2  18
ATOM     18  O   UNL     1      33.921 -23.546 -19.269  0.00  0.00    -0.383 OA
ATOM     19  H   UNL     1      34.743 -23.628 -19.778  0.00  0.00    +0.211 HD
ENDBRANCH   2  18
BRANCH   1  20
ATOM     20  C   UNL     1      35.196 -19.604 -21.565  0.00  0.00    -0.077 C 
BRANCH  20  21
ATOM     21  C   UNL     1      35.957 -18.297 -21.333  0.00  0.00    -0.015 C 
BRANCH  21  22
ATOM     22  C   UNL     1      35.027 -17.146 -20.937  0.00  0.00    +0.067 C 
BRANCH  22  24
ATOM     23  O   UNL     1      35.628 -16.061 -23.008  0.00  0.00    -0.291 OA
ATOM     24  C   UNL     1      34.943 -16.048 -21.988  0.00  0.00    +0.173 C 
BRANCH  24  26
ATOM     25  F   UNL     1      31.328 -11.866 -21.198  0.00  0.00    -0.204 F 
ATOM     26  C   UNL     1      33.977 -14.933 -21.778  0.00  0.00    +0.035 C 
ATOM     27  C   UNL     1      33.260 -14.891 -20.602  0.00  0.00    +0.005 C 
ATOM     28  C   UNL     1      33.838 -13.984 -22.765  0.00  0.00    +0.005 C 
ATOM     29  C   UNL     1      32.357 -13.846 -20.405  0.00  0.00    +0.030 C 
ATOM     30  C   UNL     1      32.935 -12.939 -22.568  0.00  0.00    +0.030 C 
ATOM     31  C   UNL     1      32.195 -12.870 -21.387  0.00  0.00    +0.140 C 
ENDBRANCH  24  26
ENDBRANCH  22  24
ENDBRANCH  21  22
ENDBRANCH  20  21
ENDBRANCH   1  20
TORSDOF 8
ENDMDL
MODEL 4
REMARK VINA RESULT:     -11.8      1.913      2.427
REMARK  Name = 5567
REMARK  8 active torsions:
REMARK  status: ('A' for Active; 'I' for Inactive)
REMARK    1  A    between atoms: N_1  and  C_20
REMARK    2  A    between atoms: C_2  and  C_8
REMARK    3  A    between atoms: C_2  and  O_18
REMARK    4  A    between atoms: C_11  and  C_17
REMARK    5  A    between atoms: C_20  and  C_21
REMARK    6  A    between atoms: C_21  and  C_22
REMARK    7  A    between atoms: C_22  and  C_24
REMARK    8  A    between atoms: C_24  and  C_26
REMARK                            x       y       z     vdW  Elec       q    Type
REMARK                         _______ _______ _______ _____ _____    ______ ____
ROOT
ATOM      1  N   UNL     1      35.368 -20.307 -20.035  0.00  0.00    +0.387 N 
ATOM      2  C   UNL     1      34.097 -22.433 -18.394  0.00  0.00    +0.103 C 
ATOM      3  C   UNL     1      33.315 -21.286 -19.070  0.00  0.00    +0.008 C 
ATOM      4  C   UNL     1      35.569 -21.993 -18.225  0.00  0.00    +0.008 C 
ATOM      5  C   UNL     1      34.002 -20.753 -20.333  0.00  0.00    -0.075 C 
ATOM      6  C   UNL     1      36.178 -21.409 -19.506  0.00  0.00    -0.075 C 
ATOM      7  H   UNL     1      35.312 -19.584 -19.318  0.00  0.00    -0.080 HD
ENDROOT
BRANCH   2   8
ATOM      8  C   UNL     1      33.522 -22.906 -17.058  0.00  0.00    +0.002 C 
ATOM      9  C   UNL     1      34.377 -23.340 -16.046  0.00  0.00    +0.002 C 
ATOM     10  C   UNL     1      32.143 -22.900 -16.854  0.00  0.00    -0.002 C 
ATOM     11  C   UNL     1      33.853 -23.770 -14.827  0.00  0.00    +0.071 C 
ATOM     12  C   UNL     1      31.618 -23.330 -15.634  0.00  0.00    -0.000 C 
ATOM     13  C   UNL     1      32.473 -23.766 -14.622  0.00  0.00    +0.004 C 
BRANCH  11  17
ATOM     14  F   UNL     1      34.121 -24.555 -12.583  0.00  0.00    -0.166 F 
ATOM     15  F   UNL     1      35.478 -25.355 -14.075  0.00  0.00    -0.166 F 
ATOM     16  F   UNL     1      35.696 -23.299 -13.402  0.00  0.00    -0.166 F 
ATOM     17  C   UNL     1      34.767 -24.237 -13.745  0.00  0.00    +0.419 C 
ENDBRANCH  11  17
ENDBRANCH   2   8
BRANCH   2  18
ATOM     18  O   UNL     1      34.037 -23.576 -19.261  0.00  0.00    -0.383 OA
ATOM     19  H   UNL     1      34.702 -24.226 -18.986  0.00  0.00    +0.211 HD
ENDBRANCH   2  18
BRANCH   1  20
ATOM     20  C   UNL     1      35.992 -19.736 -21.227  0.00  0.00    -0.077 C 
BRANCH  20  21
ATOM     21  C   UNL     1      34.921 -19.212 -22.186  0.00  0.00    -0.015 C 
BRANCH  21  22
ATOM     22  C   UNL     1      35.432 -18.057 -23.053  0.00  0.00    +0.067 C 
BRANCH  22  24
ATOM     23  O   UNL     1      34.972 -16.330 -21.431  0.00  0.00    -0.291 OA
ATOM     24  C   UNL     1      34.925 -16.694 -22.602  0.00  0.00    +0.173 C 
BRANCH  24  26
ATOM     25  F   UNL     1      32.848 -13.215 -26.445  0.00  0.00    -0.204 F 
ATOM     26  C   UNL     1      34.371 -15.765 -23.628  0.00  0.00    +0.035 C 
ATOM     27  C   UNL     1      34.402 -16.147 -24.951  0.00  0.00    +0.005 C 
ATOM     28  C   UNL     1      33.849 -14.560 -23.216  0.00  0.00    +0.005 C 
ATOM     29  C   UNL     1      33.883 -15.277 -25.911  0.00  0.00    +0.030 C 
ATOM     30  C   UNL     1      33.330 -13.691 -24.175  0.00  0.00    +0.030 C 
ATOM     31  C   UNL     1      33.347 -14.050 -25.523  0.00  0.00    +0.140 C 
ENDBRANCH  24  26
ENDBRANCH  22  24
ENDBRANCH  21  22
ENDBRANCH  20  21
ENDBRANCH   1  20
TORSDOF 8
ENDMDL
MODEL 5
REMARK VINA RESULT:     -11.6      2.607      3.313
REMARK  Name = 5567
REMARK  8 active torsions:
REMARK  status: ('A' for Active; 'I' for Inactive)
REMARK    1  A    between atoms: N_1  and  C_20
REMARK    2  A    between atoms: C_2  and  C_8
REMARK    3  A    between atoms: C_2  and  O_18
REMARK    4  A    between atoms: C_11  and  C_17
REMARK    5  A    between atoms: C_20  and  C_21
REMARK    6  A    between atoms: C_21  and  C_22
REMARK    7  A    between atoms: C_22  and  C_24
REMARK    8  A    between atoms: C_24  and  C_26
REMARK                            x       y       z     vdW  Elec       q    Type
REMARK                         _______ _______ _______ _____ _____    ______ ____
ROOT
ATOM      1  N   UNL     1      34.970 -20.167 -20.283  0.00  0.00    +0.387 N 
ATOM      2  C   UNL     1      34.019 -22.351 -18.508  0.00  0.00    +0.103 C 
ATOM      3  C   UNL     1      33.097 -21.265 -19.104  0.00  0.00    +0.008 C 
ATOM      4  C   UNL     1      35.469 -21.816 -18.496  0.00  0.00    +0.008 C 
ATOM      5  C   UNL     1      33.612 -20.703 -20.435  0.00  0.00    -0.075 C 
ATOM      6  C   UNL     1      35.901 -21.208 -19.838  0.00  0.00    -0.075 C 
ATOM      7  H   UNL     1      34.942 -19.441 -19.568  0.00  0.00    -0.080 HD
ENDROOT
BRANCH   2   8
ATOM      8  C   UNL     1      33.618 -22.845 -17.117  0.00  0.00    +0.002 C 
ATOM      9  C   UNL     1      34.602 -23.184 -16.189  0.00  0.00    +0.002 C 
ATOM     10  C   UNL     1      32.270 -22.951 -16.779  0.00  0.00    -0.002 C 
ATOM     11  C   UNL     1      34.237 -23.634 -14.919  0.00  0.00    +0.071 C 
ATOM     12  C   UNL     1      31.905 -23.400 -15.509  0.00  0.00    -0.000 C 
ATOM     13  C   UNL     1      32.888 -23.742 -14.580  0.00  0.00    +0.004 C 
BRANCH  11  17
ATOM     14  F   UNL     1      36.026 -22.934 -13.495  0.00  0.00    -0.166 F 
ATOM     15  F   UNL     1      34.791 -24.572 -12.791  0.00  0.00    -0.166 F 
ATOM     16  F   UNL     1      36.191 -24.893 -14.424  0.00  0.00    -0.166 F 
ATOM     17  C   UNL     1      35.288 -24.000 -13.927  0.00  0.00    +0.419 C 
ENDBRANCH  11  17
ENDBRANCH   2   8
BRANCH   2  18
ATOM     18  O   UNL     1      33.944 -23.505 -19.359  0.00  0.00    -0.383 OA
ATOM     19  H   UNL     1      34.561 -24.183 -19.040  0.00  0.00    +0.211 HD
ENDBRANCH   2  18
BRANCH   1  20
ATOM     20  C   UNL     1      35.428 -19.571 -21.537  0.00  0.00    -0.077 C 
BRANCH  20  21
ATOM     21  C   UNL     1      36.060 -18.202 -21.272  0.00  0.00    -0.015 C 
BRANCH  21  22
ATOM     22  C   UNL     1      35.011 -17.127 -20.973  0.00  0.00    +0.067 C 
BRANCH  22  24
ATOM     23  O   UNL     1      35.627 -16.069 -23.053  0.00  0.00    -0.291 OA
ATOM     24  C   UNL     1      34.944 -16.037 -22.033  0.00  0.00    +0.173 C 
BRANCH  24  26
ATOM     25  F   UNL     1      31.402 -11.787 -21.275  0.00  0.00    -0.204 F 
ATOM     26  C   UNL     1      33.997 -14.903 -21.831  0.00  0.00    +0.035 C 
ATOM     27  C   UNL     1      33.227 -14.880 -20.690  0.00  0.00    +0.005 C 
ATOM     28  C   UNL     1      33.929 -13.920 -22.792  0.00  0.00    +0.005 C 
ATOM     29  C   UNL     1      32.342 -13.818 -20.500  0.00  0.00    +0.030 C 
ATOM     30  C   UNL     1      33.044 -12.858 -22.603  0.00  0.00    +0.030 C 
ATOM     31  C   UNL     1      32.251 -12.807 -21.457  0.00  0.00    +0.140 C 
ENDBRANCH  24  26
ENDBRANCH  22  24
ENDBRANCH  21  22
ENDBRANCH  20  21
ENDBRANCH   1  20
TORSDOF 8
ENDMDL
MODEL 6
REMARK VINA RESULT:     -11.3      5.953      9.593
REMARK  Name = 5567
REMARK  8 active torsions:
REMARK  status: ('A' for Active; 'I' for Inactive)
REMARK    1  A    between atoms: N_1  and  C_20
REMARK    2  A    between atoms: C_2  and  C_8
REMARK    3  A    between atoms: C_2  and  O_18
REMARK    4  A    between atoms: C_11  and  C_17
REMARK    5  A    between atoms: C_20  and  C_21
REMARK    6  A    between atoms: C_21  and  C_22
REMARK    7  A    between atoms: C_22  and  C_24
REMARK    8  A    between atoms: C_24  and  C_26
REMARK                            x       y       z     vdW  Elec       q    Type
REMARK                         _______ _______ _______ _____ _____    ______ ____
ROOT
ATOM      1  N   UNL     1      31.800 -12.147 -21.561  0.00  0.00    +0.387 N 
ATOM      2  C   UNL     1      33.936 -14.112 -22.201  0.00  0.00    +0.103 C 
ATOM      3  C   UNL     1      33.380 -13.085 -23.212  0.00  0.00    +0.008 C 
ATOM      4  C   UNL     1      32.881 -14.332 -21.092  0.00  0.00    +0.008 C 
ATOM      5  C   UNL     1      32.837 -11.816 -22.545  0.00  0.00    -0.075 C 
ATOM      6  C   UNL     1      32.330 -13.023 -20.511  0.00  0.00    -0.075 C 
ATOM      7  H   UNL     1      31.057 -12.650 -22.046  0.00  0.00    -0.080 HD
ENDROOT
BRANCH   2   8
ATOM      8  C   UNL     1      34.364 -15.449 -22.807  0.00  0.00    +0.002 C 
ATOM      9  C   UNL     1      34.683 -16.520 -21.974  0.00  0.00    +0.002 C 
ATOM     10  C   UNL     1      34.432 -15.594 -24.192  0.00  0.00    -0.002 C 
ATOM     11  C   UNL     1      35.073 -17.740 -22.527  0.00  0.00    +0.071 C 
ATOM     12  C   UNL     1      34.821 -16.814 -24.745  0.00  0.00    -0.000 C 
ATOM     13  C   UNL     1      35.142 -17.887 -23.912  0.00  0.00    +0.004 C 
BRANCH  11  17
ATOM     14  F   UNL     1      35.392 -20.097 -22.271  0.00  0.00    -0.166 F 
ATOM     15  F   UNL     1      36.664 -18.797 -21.089  0.00  0.00    -0.166 F 
ATOM     16  F   UNL     1      34.560 -19.008 -20.583  0.00  0.00    -0.166 F 
ATOM     17  C   UNL     1      35.417 -18.887 -21.638  0.00  0.00    +0.419 C 
ENDBRANCH  11  17
ENDBRANCH   2   8
BRANCH   2  18
ATOM     18  O   UNL     1      35.126 -13.556 -21.622  0.00  0.00    -0.383 OA
ATOM     19  H   UNL     1      35.316 -12.698 -22.033  0.00  0.00    +0.211 HD
ENDBRANCH   2  18
BRANCH   1  20
ATOM     20  C   UNL     1      31.238 -10.929 -20.979  0.00  0.00    -0.077 C 
BRANCH  20  21
ATOM     21  C   UNL     1      31.655  -9.709 -21.801  0.00  0.00    -0.015 C 
BRANCH  21  22
ATOM     22  C   UNL     1      32.260  -8.602 -20.933  0.00  0.00    +0.067 C 
BRANCH  22  24
ATOM     23  O   UNL     1      31.245  -6.422 -21.146  0.00  0.00    -0.291 OA
ATOM     24  C   UNL     1      32.104  -7.211 -21.531  0.00  0.00    +0.173 C 
BRANCH  24  26
ATOM     25  F   UNL     1      35.629  -5.626 -25.562  0.00  0.00    -0.204 F 
ATOM     26  C   UNL     1      33.045  -6.789 -22.608  0.00  0.00    +0.035 C 
ATOM     27  C   UNL     1      32.604  -5.894 -23.558  0.00  0.00    +0.005 C 
ATOM     28  C   UNL     1      34.320  -7.308 -22.613  0.00  0.00    +0.005 C 
ATOM     29  C   UNL     1      33.485  -5.498 -24.565  0.00  0.00    +0.030 C 
ATOM     30  C   UNL     1      35.200  -6.912 -23.620  0.00  0.00    +0.030 C 
ATOM     31  C   UNL     1      34.783  -6.007 -24.596  0.00  0.00    +0.140 C 
ENDBRANCH  24  26
ENDBRANCH  22  24
ENDBRANCH  21  22
ENDBRANCH  20  21
ENDBRANCH   1  20
TORSDOF 8
ENDMDL
MODEL 7
REMARK VINA RESULT:     -11.3      3.664     10.476
REMARK  Name = 5567
REMARK  8 active torsions:
REMARK  status: ('A' for Active; 'I' for Inactive)
REMARK    1  A    between atoms: N_1  and  C_20
REMARK    2  A    between atoms: C_2  and  C_8
REMARK    3  A    between atoms: C_2  and  O_18
REMARK    4  A    between atoms: C_11  and  C_17
REMARK    5  A    between atoms: C_20  and  C_21
REMARK    6  A    between atoms: C_21  and  C_22
REMARK    7  A    between atoms: C_22  and  C_24
REMARK    8  A    between atoms: C_24  and  C_26
REMARK                            x       y       z     vdW  Elec       q    Type
REMARK                         _______ _______ _______ _____ _____    ______ ____
ROOT
ATOM      1  N   UNL     1      35.018 -15.241 -22.917  0.00  0.00    +0.387 N 
ATOM      2  C   UNL     1      32.919 -13.635 -21.559  0.00  0.00    +0.103 C 
ATOM      3  C   UNL     1      33.084 -13.713 -23.093  0.00  0.00    +0.008 C 
ATOM      4  C   UNL     1      34.266 -14.009 -20.898  0.00  0.00    +0.008 C 
ATOM      5  C   UNL     1      33.718 -15.028 -23.563  0.00  0.00    -0.075 C 
ATOM      6  C   UNL     1      34.879 -15.299 -21.458  0.00  0.00    -0.075 C 
ATOM      7  H   UNL     1      35.615 -14.447 -23.145  0.00  0.00    -0.080 HD
ENDROOT
BRANCH   2   8
ATOM      8  C   UNL     1      32.417 -12.290 -21.031  0.00  0.00    +0.002 C 
ATOM      9  C   UNL     1      32.423 -11.171 -21.862  0.00  0.00    +0.002 C 
ATOM     10  C   UNL     1      31.952 -12.188 -19.721  0.00  0.00    -0.002 C 
ATOM     11  C   UNL     1      31.964  -9.944 -21.381  0.00  0.00    +0.071 C 
ATOM     12  C   UNL     1      31.492 -10.961 -19.241  0.00  0.00    -0.000 C 
ATOM     13  C   UNL     1      31.499  -9.839 -20.070  0.00  0.00    +0.004 C 
BRANCH  11  17
ATOM     14  F   UNL     1      32.773  -8.883 -23.367  0.00  0.00    -0.166 F 
ATOM     15  F   UNL     1      30.742  -8.422 -22.763  0.00  0.00    -0.166 F 
ATOM     16  F   UNL     1      32.417  -7.624 -21.630  0.00  0.00    -0.166 F 
ATOM     17  C   UNL     1      31.973  -8.745 -22.268  0.00  0.00    +0.419 C 
ENDBRANCH  11  17
ENDBRANCH   2   8
BRANCH   2  18
ATOM     18  O   UNL     1      31.919 -14.593 -21.177  0.00  0.00    -0.383 OA
ATOM     19  H   UNL     1      32.329 -15.466 -21.078  0.00  0.00    +0.211 HD
ENDBRANCH   2  18
BRANCH   1  20
ATOM     20  C   UNL     1      35.648 -16.460 -23.422  0.00  0.00    -0.077 C 
BRANCH  20  21
ATOM     21  C   UNL     1      34.744 -17.668 -23.166  0.00  0.00    -0.015 C 
BRANCH  21  22
ATOM     22  C   UNL     1      35.543 -18.936 -22.853  0.00  0.00    +0.067 C 
BRANCH  22  24
ATOM     23  O   UNL     1      36.764 -18.357 -20.853  0.00  0.00    -0.291 OA
ATOM     24  C   UNL     1      35.914 -19.069 -21.383  0.00  0.00    +0.173 C 
BRANCH  24  26
ATOM     25  F   UNL     1      33.249 -22.873 -18.284  0.00  0.00    -0.204 F 
ATOM     26  C   UNL     1      35.203 -20.085 -20.556  0.00  0.00    +0.035 C 
ATOM     27  C   UNL     1      35.948 -21.008 -19.856  0.00  0.00    +0.005 C 
ATOM     28  C   UNL     1      33.827 -20.064 -20.523  0.00  0.00    +0.005 C 
ATOM     29  C   UNL     1      35.282 -21.958 -19.082  0.00  0.00    +0.030 C 
ATOM     30  C   UNL     1      33.161 -21.014 -19.749  0.00  0.00    +0.030 C 
ATOM     31  C   UNL     1      33.889 -21.961 -19.028  0.00  0.00    +0.140 C 
ENDBRANCH  24  26
ENDBRANCH  22  24
ENDBRANCH  21  22
ENDBRANCH  20  21
ENDBRANCH   1  20
TORSDOF 8
ENDMDL
MODEL 8
REMARK VINA RESULT:     -11.1      2.195     10.071
REMARK  Name = 5567
REMARK  8 active torsions:
REMARK  status: ('A' for Active; 'I' for Inactive)
REMARK    1  A    between atoms: N_1  and  C_20
REMARK    2  A    between atoms: C_2  and  C_8
REMARK    3  A    between atoms: C_2  and  O_18
REMARK    4  A    between atoms: C_11  and  C_17
REMARK    5  A    between atoms: C_20  and  C_21
REMARK    6  A    between atoms: C_21  and  C_22
REMARK    7  A    between atoms: C_22  and  C_24
REMARK    8  A    between atoms: C_24  and  C_26
REMARK                            x       y       z     vdW  Elec       q    Type
REMARK                         _______ _______ _______ _____ _____    ______ ____
ROOT
ATOM      1  N   UNL     1      35.983 -20.425 -19.541  0.00  0.00    +0.387 N 
ATOM      2  C   UNL     1      35.450 -18.779 -21.956  0.00  0.00    +0.103 C 
ATOM      3  C   UNL     1      36.773 -18.734 -21.160  0.00  0.00    +0.008 C 
ATOM      4  C   UNL     1      34.335 -19.319 -21.031  0.00  0.00    +0.008 C 
ATOM      5  C   UNL     1      37.084 -20.050 -20.436  0.00  0.00    -0.075 C 
ATOM      6  C   UNL     1      34.733 -20.600 -20.286  0.00  0.00    -0.075 C 
ATOM      7  H   UNL     1      35.849 -19.665 -18.874  0.00  0.00    -0.080 HD
ENDROOT
BRANCH   2   8
ATOM      8  C   UNL     1      35.029 -17.449 -22.584  0.00  0.00    +0.002 C 
ATOM      9  C   UNL     1      34.617 -16.395 -21.770  0.00  0.00    +0.002 C 
ATOM     10  C   UNL     1      35.061 -17.294 -23.969  0.00  0.00    -0.002 C 
ATOM     11  C   UNL     1      34.234 -15.182 -22.343  0.00  0.00    +0.071 C 
ATOM     12  C   UNL     1      34.679 -16.080 -24.541  0.00  0.00    -0.000 C 
ATOM     13  C   UNL     1      34.265 -15.025 -23.728  0.00  0.00    +0.004 C 
BRANCH  11  17
ATOM     14  F   UNL     1      34.651 -13.785 -20.446  0.00  0.00    -0.166 F 
ATOM     15  F   UNL     1      33.654 -12.870 -22.141  0.00  0.00    -0.166 F 
ATOM     16  F   UNL     1      32.581 -14.287 -20.887  0.00  0.00    -0.166 F 
ATOM     17  C   UNL     1      33.791 -14.054 -21.474  0.00  0.00    +0.419 C 
ENDBRANCH  11  17
ENDBRANCH   2   8
BRANCH   2  18
ATOM     18  O   UNL     1      35.632 -19.681 -23.059  0.00  0.00    -0.383 OA
ATOM     19  H   UNL     1      36.578 -19.750 -23.266  0.00  0.00    +0.211 HD
ENDBRANCH   2  18
BRANCH   1  20
ATOM     20  C   UNL     1      36.316 -21.642 -18.802  0.00  0.00    -0.077 C 
BRANCH  20  21
ATOM     21  C   UNL     1      35.106 -22.578 -18.752  0.00  0.00    -0.015 C 
BRANCH  21  22
ATOM     22  C   UNL     1      34.575 -22.764 -17.327  0.00  0.00    +0.067 C 
BRANCH  22  24
ATOM     23  O   UNL     1      32.361 -22.278 -18.159  0.00  0.00    -0.291 OA
ATOM     24  C   UNL     1      33.057 -22.688 -17.234  0.00  0.00    +0.173 C 
BRANCH  24  26
ATOM     25  F   UNL     1      30.581 -24.421 -12.539  0.00  0.00    -0.204 F 
ATOM     26  C   UNL     1      32.396 -23.150 -15.980  0.00  0.00    +0.035 C 
ATOM     27  C   UNL     1      31.026 -23.053 -15.880  0.00  0.00    +0.005 C 
ATOM     28  C   UNL     1      33.179 -23.658 -14.968  0.00  0.00    +0.005 C 
ATOM     29  C   UNL     1      30.407 -23.486 -14.707  0.00  0.00    +0.030 C 
ATOM     30  C   UNL     1      32.561 -24.091 -13.795  0.00  0.00    +0.030 C 
ATOM     31  C   UNL     1      31.174 -24.005 -13.665  0.00  0.00    +0.140 C 
ENDBRANCH  24  26
ENDBRANCH  22  24
ENDBRANCH  21  22
ENDBRANCH  20  21
ENDBRANCH   1  20
TORSDOF 8
ENDMDL
MODEL 9
REMARK VINA RESULT:     -11.1      3.587     11.622
REMARK  Name = 5567
REMARK  8 active torsions:
REMARK  status: ('A' for Active; 'I' for Inactive)
REMARK    1  A    between atoms: N_1  and  C_20
REMARK    2  A    between atoms: C_2  and  C_8
REMARK    3  A    between atoms: C_2  and  O_18
REMARK    4  A    between atoms: C_11  and  C_17
REMARK    5  A    between atoms: C_20  and  C_21
REMARK    6  A    between atoms: C_21  and  C_22
REMARK    7  A    between atoms: C_22  and  C_24
REMARK    8  A    between atoms: C_24  and  C_26
REMARK                            x       y       z     vdW  Elec       q    Type
REMARK                         _______ _______ _______ _____ _____    ______ ____
ROOT
ATOM      1  N   UNL     1      34.820 -15.243 -23.595  0.00  0.00    +0.387 N 
ATOM      2  C   UNL     1      33.249 -12.817 -22.907  0.00  0.00    +0.103 C 
ATOM      3  C   UNL     1      33.451 -13.331 -24.350  0.00  0.00    +0.008 C 
ATOM      4  C   UNL     1      34.389 -13.373 -22.022  0.00  0.00    +0.008 C 
ATOM      5  C   UNL     1      33.676 -14.846 -24.423  0.00  0.00    -0.075 C 
ATOM      6  C   UNL     1      34.606 -14.882 -22.190  0.00  0.00    -0.075 C 
ATOM      7  H   UNL     1      35.640 -14.737 -23.929  0.00  0.00    -0.080 HD
ENDROOT
BRANCH   2   8
ATOM      8  C   UNL     1      33.156 -11.297 -22.770  0.00  0.00    +0.002 C 
ATOM      9  C   UNL     1      34.066 -10.481 -23.440  0.00  0.00    +0.002 C 
ATOM     10  C   UNL     1      32.158 -10.730 -21.979  0.00  0.00    -0.002 C 
ATOM     11  C   UNL     1      33.981  -9.093 -23.316  0.00  0.00    +0.071 C 
ATOM     12  C   UNL     1      32.072  -9.343 -21.855  0.00  0.00    -0.000 C 
ATOM     13  C   UNL     1      32.984  -8.525 -22.524  0.00  0.00    +0.004 C 
BRANCH  11  17
ATOM     14  F   UNL     1      35.734  -8.890 -24.930  0.00  0.00    -0.166 F 
ATOM     15  F   UNL     1      34.368  -7.216 -24.745  0.00  0.00    -0.166 F 
ATOM     16  F   UNL     1      35.827  -7.602 -23.180  0.00  0.00    -0.166 F 
ATOM     17  C   UNL     1      34.956  -8.219 -24.030  0.00  0.00    +0.419 C 
ENDBRANCH  11  17
ENDBRANCH   2   8
BRANCH   2  18
ATOM     18  O   UNL     1      31.990 -13.321 -22.435  0.00  0.00    -0.383 OA
ATOM     19  H   UNL     1      32.140 -14.121 -21.907  0.00  0.00    +0.211 HD
ENDBRANCH   2  18
BRANCH   1  20
ATOM     20  C   UNL     1      35.073 -16.678 -23.724  0.00  0.00    -0.077 C 
BRANCH  20  21
ATOM     21  C   UNL     1      35.338 -17.294 -22.349  0.00  0.00    -0.015 C 
BRANCH  21  22
ATOM     22  C   UNL     1      35.795 -18.752 -22.444  0.00  0.00    +0.067 C 
BRANCH  22  24
ATOM     23  O   UNL     1      37.413 -19.007 -20.671  0.00  0.00    -0.291 OA
ATOM     24  C   UNL     1      36.314 -19.310 -21.126  0.00  0.00    +0.173 C 
BRANCH  24  26
ATOM     25  F   UNL     1      33.050 -22.799 -18.236  0.00  0.00    -0.204 F 
ATOM     26  C   UNL     1      35.442 -20.241 -20.353  0.00  0.00    +0.035 C 
ATOM     27  C   UNL     1      34.076 -20.134 -20.489  0.00  0.00    +0.005 C 
ATOM     28  C   UNL     1      36.035 -21.175 -19.534  0.00  0.00    +0.005 C 
ATOM     29  C   UNL     1      33.260 -21.006 -19.767  0.00  0.00    +0.030 C 
ATOM     30  C   UNL     1      35.220 -22.046 -18.812  0.00  0.00    +0.030 C 
ATOM     31  C   UNL     1      33.832 -21.962 -18.929  0.00  0.00    +0.140 C 
ENDBRANCH  24  26
ENDBRANCH  22  24
ENDBRANCH  21  22
ENDBRANCH  20  21
ENDBRANCH   1  20
TORSDOF 8
ENDMDL
