MODEL 1
REMARK VINA RESULT:     -11.7      0.000      0.000
REMARK  Name = 24779724
REMARK  3 active torsions:
REMARK  status: ('A' for Active; 'I' for Inactive)
REMARK    1  A    between atoms: C_5  and  C_12
REMARK    2  A    between atoms: C_7  and  S_16
REMARK    3  A    between atoms: S_16  and  C_19
REMARK                            x       y       z     vdW  Elec       q    Type
REMARK                         _______ _______ _______ _____ _____    ______ ____
ROOT
ATOM      1  N   UNL     1      34.731 -21.233 -19.144  0.00  0.00    -0.186 N 
ATOM      2  N   UNL     1      35.764 -21.570 -18.332  0.00  0.00    -0.162 NA
ATOM      3  N   UNL     1      32.721 -21.090 -20.017  0.00  0.00    -0.126 NA
ATOM      4  N   UNL     1      33.582 -20.321 -20.773  0.00  0.00    -0.120 NA
ATOM      5  C   UNL     1      35.426 -22.361 -17.353  0.00  0.00    +0.104 C 
ATOM      6  C   UNL     1      33.419 -21.633 -19.042  0.00  0.00    +0.187 A 
ATOM      7  C   UNL     1      34.779 -20.419 -20.239  0.00  0.00    +0.217 A 
ATOM      8  C   UNL     1      34.042 -22.890 -17.129  0.00  0.00    +0.024 C 
ATOM      9  C   UNL     1      33.088 -22.502 -17.984  0.00  0.00    +0.042 C 
ENDROOT
BRANCH   5  12
ATOM     10  N   UNL     1      37.506 -23.787 -14.740  0.00  0.00    -0.208 N 
ATOM     11  N   UNL     1      38.463 -23.026 -15.298  0.00  0.00    -0.176 NA
ATOM     12  C   UNL     1      36.469 -22.798 -16.389  0.00  0.00    +0.056 C 
ATOM     13  C   UNL     1      36.293 -23.686 -15.357  0.00  0.00    +0.087 C 
ATOM     14  C   UNL     1      37.825 -22.425 -16.305  0.00  0.00    +0.121 C 
ATOM     15  C   UNL     1      37.819 -24.608 -13.595  0.00  0.00    +0.140 C 
ENDBRANCH   5  12
BRANCH   7  16
ATOM     16  S   UNL     1      36.273 -19.628 -20.816  0.00  0.00    -0.051 S 
BRANCH  16  19
ATOM     17  N   UNL     1      34.059 -15.007 -23.837  0.00  0.00    -0.248 NA
ATOM     18  C   UNL     1      34.645 -16.012 -21.727  0.00  0.00    -0.003 C 
ATOM     19  C   UNL     1      35.609 -18.239 -21.711  0.00  0.00    +0.011 C 
ATOM     20  C   UNL     1      34.557 -16.041 -23.134  0.00  0.00    +0.060 C 
ATOM     21  C   UNL     1      35.170 -17.110 -21.026  0.00  0.00    +0.060 C 
ATOM     22  C   UNL     1      35.524 -18.275 -23.097  0.00  0.00    -0.017 C 
ATOM     23  C   UNL     1      35.002 -17.184 -23.794  0.00  0.00    +0.072 C 
ATOM     24  C   UNL     1      34.197 -14.862 -21.063  0.00  0.00    -0.001 C 
ATOM     25  C   UNL     1      33.683 -13.794 -21.784  0.00  0.00    +0.020 C 
ATOM     26  C   UNL     1      33.637 -13.916 -23.158  0.00  0.00    +0.098 C 
ENDBRANCH  16  19
ENDBRANCH   7  16
TORSDOF 3
ENDMDL
MODEL 2
REMARK VINA RESULT:     -11.6      0.738      1.569
REMARK  Name = 24779724
REMARK  3 active torsions:
REMARK  status: ('A' for Active; 'I' for Inactive)
REMARK    1  A    between atoms: C_5  and  C_12
REMARK    2  A    between atoms: C_7  and  S_16
REMARK    3  A    between atoms: S_16  and  C_19
REMARK                            x       y       z     vdW  Elec       q    Type
REMARK                         _______ _______ _______ _____ _____    ______ ____
ROOT
ATOM      1  N   UNL     1      34.725 -21.084 -19.320  0.00  0.00    -0.186 N 
ATOM      2  N   UNL     1      35.774 -21.395 -18.518  0.00  0.00    -0.162 NA
ATOM      3  N   UNL     1      32.707 -21.004 -20.183  0.00  0.00    -0.126 NA
ATOM      4  N   UNL     1      33.535 -20.190 -20.929  0.00  0.00    -0.120 NA
ATOM      5  C   UNL     1      35.471 -22.215 -17.551  0.00  0.00    +0.104 C 
ATOM      6  C   UNL     1      33.430 -21.536 -19.220  0.00  0.00    +0.187 A 
ATOM      7  C   UNL     1      34.737 -20.251 -20.401  0.00  0.00    +0.217 A 
ATOM      8  C   UNL     1      34.109 -22.801 -17.331  0.00  0.00    +0.024 C 
ATOM      9  C   UNL     1      33.137 -22.435 -18.176  0.00  0.00    +0.042 C 
ENDROOT
BRANCH   5  12
ATOM     10  N   UNL     1      37.606 -23.576 -14.948  0.00  0.00    -0.208 N 
ATOM     11  N   UNL     1      38.551 -22.829 -15.544  0.00  0.00    -0.176 NA
ATOM     12  C   UNL     1      36.534 -22.627 -16.599  0.00  0.00    +0.056 C 
ATOM     13  C   UNL     1      36.380 -23.490 -15.541  0.00  0.00    +0.087 C 
ATOM     14  C   UNL     1      37.891 -22.252 -16.552  0.00  0.00    +0.121 C 
ATOM     15  C   UNL     1      37.943 -24.367 -13.789  0.00  0.00    +0.140 C 
ENDBRANCH   5  12
BRANCH   7  16
ATOM     16  S   UNL     1      36.197 -19.393 -20.969  0.00  0.00    -0.051 S 
BRANCH  16  19
ATOM     17  N   UNL     1      33.812 -14.480 -23.329  0.00  0.00    -0.248 NA
ATOM     18  C   UNL     1      34.796 -16.658 -23.637  0.00  0.00    -0.003 C 
ATOM     19  C   UNL     1      35.483 -17.927 -21.686  0.00  0.00    +0.011 C 
ATOM     20  C   UNL     1      34.353 -15.601 -22.815  0.00  0.00    +0.060 C 
ATOM     21  C   UNL     1      35.357 -17.813 -23.067  0.00  0.00    +0.060 C 
ATOM     22  C   UNL     1      35.050 -16.889 -20.871  0.00  0.00    -0.017 C 
ATOM     23  C   UNL     1      34.492 -15.741 -21.437  0.00  0.00    +0.072 C 
ATOM     24  C   UNL     1      34.656 -16.517 -25.024  0.00  0.00    -0.001 C 
ATOM     25  C   UNL     1      34.098 -15.364 -25.557  0.00  0.00    +0.020 C 
ATOM     26  C   UNL     1      33.695 -14.384 -24.672  0.00  0.00    +0.098 C 
ENDBRANCH  16  19
ENDBRANCH   7  16
TORSDOF 3
ENDMDL
MODEL 3
REMARK VINA RESULT:     -10.3      5.107     12.158
REMARK  Name = 24779724
REMARK  3 active torsions:
REMARK  status: ('A' for Active; 'I' for Inactive)
REMARK    1  A    between atoms: C_5  and  C_12
REMARK    2  A    between atoms: C_7  and  S_16
REMARK    3  A    between atoms: S_16  and  C_19
REMARK                            x       y       z     vdW  Elec       q    Type
REMARK                         _______ _______ _______ _____ _____    ______ ____
ROOT
ATOM      1  N   UNL     1      32.570 -10.792 -22.089  0.00  0.00    -0.186 N 
ATOM      2  N   UNL     1      33.156  -9.859 -22.881  0.00  0.00    -0.162 NA
ATOM      3  N   UNL     1      31.410 -11.736 -20.481  0.00  0.00    -0.126 NA
ATOM      4  N   UNL     1      31.933 -12.729 -21.285  0.00  0.00    -0.120 NA
ATOM      5  C   UNL     1      32.929  -8.632 -22.504  0.00  0.00    +0.104 C 
ATOM      6  C   UNL     1      31.798 -10.578 -20.972  0.00  0.00    +0.187 A 
ATOM      7  C   UNL     1      32.624 -12.147 -22.240  0.00  0.00    +0.217 A 
ATOM      8  C   UNL     1      32.123  -8.250 -21.299  0.00  0.00    +0.024 C 
ATOM      9  C   UNL     1      31.585  -9.242 -20.578  0.00  0.00    +0.042 C 
ENDROOT
BRANCH   5  12
ATOM     10  N   UNL     1      33.743  -5.759 -24.571  0.00  0.00    -0.208 N 
ATOM     11  N   UNL     1      35.010  -6.096 -24.272  0.00  0.00    -0.176 NA
ATOM     12  C   UNL     1      33.513  -7.518 -23.294  0.00  0.00    +0.056 C 
ATOM     13  C   UNL     1      32.809  -6.580 -24.010  0.00  0.00    +0.087 C 
ATOM     14  C   UNL     1      34.863  -7.170 -23.492  0.00  0.00    +0.121 C 
ATOM     15  C   UNL     1      33.484  -4.619 -25.416  0.00  0.00    +0.140 C 
ENDBRANCH   5  12
BRANCH   7  16
ATOM     16  S   UNL     1      33.515 -12.959 -23.558  0.00  0.00    -0.051 S 
BRANCH  16  19
ATOM     17  N   UNL     1      35.364 -17.896 -20.803  0.00  0.00    -0.248 NA
ATOM     18  C   UNL     1      34.775 -16.762 -22.845  0.00  0.00    -0.003 C 
ATOM     19  C   UNL     1      34.070 -14.442 -22.743  0.00  0.00    +0.011 C 
ATOM     20  C   UNL     1      34.947 -16.790 -21.446  0.00  0.00    +0.060 C 
ATOM     21  C   UNL     1      34.338 -15.590 -23.484  0.00  0.00    +0.060 C 
ATOM     22  C   UNL     1      34.237 -14.462 -21.364  0.00  0.00    -0.017 C 
ATOM     23  C   UNL     1      34.671 -15.628 -20.729  0.00  0.00    +0.072 C 
ATOM     24  C   UNL     1      35.052 -17.931 -23.566  0.00  0.00    -0.001 C 
ATOM     25  C   UNL     1      35.482 -19.074 -22.907  0.00  0.00    +0.020 C 
ATOM     26  C   UNL     1      35.621 -19.003 -21.535  0.00  0.00    +0.098 C 
ENDBRANCH  16  19
ENDBRANCH   7  16
TORSDOF 3
ENDMDL
MODEL 4
REMARK VINA RESULT:     -10.3      3.694      7.373
REMARK  Name = 24779724
REMARK  3 active torsions:
REMARK  status: ('A' for Active; 'I' for Inactive)
REMARK    1  A    between atoms: C_5  and  C_12
REMARK    2  A    between atoms: C_7  and  S_16
REMARK    3  A    between atoms: S_16  and  C_19
REMARK                            x       y       z     vdW  Elec       q    Type
REMARK                         _______ _______ _______ _____ _____    ______ ____
ROOT
ATOM      1  N   UNL     1      33.820 -15.232 -22.493  0.00  0.00    -0.186 N 
ATOM      2  N   UNL     1      34.255 -16.223 -21.675  0.00  0.00    -0.162 NA
ATOM      3  N   UNL     1      33.475 -13.992 -24.272  0.00  0.00    -0.126 NA
ATOM      4  N   UNL     1      32.808 -13.423 -23.206  0.00  0.00    -0.120 NA
ATOM      5  C   UNL     1      34.997 -17.111 -22.275  0.00  0.00    +0.104 C 
ATOM      6  C   UNL     1      34.079 -15.077 -23.834  0.00  0.00    +0.187 A 
ATOM      7  C   UNL     1      33.026 -14.175 -22.151  0.00  0.00    +0.217 A 
ATOM      8  C   UNL     1      35.376 -17.060 -23.725  0.00  0.00    +0.024 C 
ATOM      9  C   UNL     1      34.898 -16.042 -24.451  0.00  0.00    +0.042 C 
ENDROOT
BRANCH   5  12
ATOM     10  N   UNL     1      35.694 -20.106 -20.343  0.00  0.00    -0.208 N 
ATOM     11  N   UNL     1      36.957 -19.646 -20.373  0.00  0.00    -0.176 NA
ATOM     12  C   UNL     1      35.532 -18.251 -21.487  0.00  0.00    +0.056 C 
ATOM     13  C   UNL     1      34.802 -19.306 -20.996  0.00  0.00    +0.087 C 
ATOM     14  C   UNL     1      36.852 -18.514 -21.073  0.00  0.00    +0.121 C 
ATOM     15  C   UNL     1      35.396 -21.341 -19.660  0.00  0.00    +0.140 C 
ENDBRANCH   5  12
BRANCH   7  16
ATOM     16  S   UNL     1      32.401 -13.904 -20.500  0.00  0.00    -0.051 S 
BRANCH  16  19
ATOM     17  N   UNL     1      31.684  -7.999 -20.441  0.00  0.00    -0.248 NA
ATOM     18  C   UNL     1      32.091 -10.023 -21.684  0.00  0.00    -0.003 C 
ATOM     19  C   UNL     1      32.187 -12.136 -20.494  0.00  0.00    +0.011 C 
ATOM     20  C   UNL     1      31.849  -9.335 -20.477  0.00  0.00    +0.060 C 
ATOM     21  C   UNL     1      32.258 -11.418 -21.684  0.00  0.00    +0.060 C 
ATOM     22  C   UNL     1      31.949 -11.465 -19.301  0.00  0.00    -0.017 C 
ATOM     23  C   UNL     1      31.783 -10.078 -19.301  0.00  0.00    +0.072 C 
ATOM     24  C   UNL     1      32.158  -9.275 -22.867  0.00  0.00    -0.001 C 
ATOM     25  C   UNL     1      31.989  -7.899 -22.834  0.00  0.00    +0.020 C 
ATOM     26  C   UNL     1      31.756  -7.314 -21.605  0.00  0.00    +0.098 C 
ENDBRANCH  16  19
ENDBRANCH   7  16
TORSDOF 3
ENDMDL
MODEL 5
REMARK VINA RESULT:     -10.2      5.315     11.493
REMARK  Name = 24779724
REMARK  3 active torsions:
REMARK  status: ('A' for Active; 'I' for Inactive)
REMARK    1  A    between atoms: C_5  and  C_12
REMARK    2  A    between atoms: C_7  and  S_16
REMARK    3  A    between atoms: S_16  and  C_19
REMARK                            x       y       z     vdW  Elec       q    Type
REMARK                         _______ _______ _______ _____ _____    ______ ____
ROOT
ATOM      1  N   UNL     1      32.484 -11.689 -21.760  0.00  0.00    -0.186 N 
ATOM      2  N   UNL     1      32.673 -10.474 -22.331  0.00  0.00    -0.162 NA
ATOM      3  N   UNL     1      31.869 -13.267 -20.361  0.00  0.00    -0.126 NA
ATOM      4  N   UNL     1      32.521 -13.855 -21.426  0.00  0.00    -0.120 NA
ATOM      5  C   UNL     1      32.178  -9.486 -21.641  0.00  0.00    +0.104 C 
ATOM      6  C   UNL     1      31.852 -11.968 -20.570  0.00  0.00    +0.187 A 
ATOM      7  C   UNL     1      32.882 -12.899 -22.251  0.00  0.00    +0.217 A 
ATOM      8  C   UNL     1      31.481  -9.638 -20.322  0.00  0.00    +0.024 C 
ATOM      9  C   UNL     1      31.343 -10.878 -19.837  0.00  0.00    +0.042 C 
ENDROOT
BRANCH   5  12
ATOM     10  N   UNL     1      31.910  -6.026 -22.711  0.00  0.00    -0.208 N 
ATOM     11  N   UNL     1      33.168  -6.222 -23.142  0.00  0.00    -0.176 NA
ATOM     12  C   UNL     1      32.315  -8.103 -22.165  0.00  0.00    +0.056 C 
ATOM     13  C   UNL     1      31.354  -7.122 -22.118  0.00  0.00    +0.087 C 
ATOM     14  C   UNL     1      33.410  -7.491 -22.805  0.00  0.00    +0.121 C 
ATOM     15  C   UNL     1      31.279  -4.741 -22.898  0.00  0.00    +0.140 C 
ENDBRANCH   5  12
BRANCH   7  16
ATOM     16  S   UNL     1      33.760 -13.096 -23.794  0.00  0.00    -0.051 S 
BRANCH  16  19
ATOM     17  N   UNL     1      35.326 -18.830 -23.559  0.00  0.00    -0.248 NA
ATOM     18  C   UNL     1      34.920 -16.746 -22.419  0.00  0.00    -0.003 C 
ATOM     19  C   UNL     1      34.229 -14.812 -23.713  0.00  0.00    +0.011 C 
ATOM     20  C   UNL     1      34.974 -17.531 -23.590  0.00  0.00    +0.060 C 
ATOM     21  C   UNL     1      34.549 -15.393 -22.489  0.00  0.00    +0.060 C 
ATOM     22  C   UNL     1      34.280 -15.579 -24.869  0.00  0.00    -0.017 C 
ATOM     23  C   UNL     1      34.650 -16.924 -24.801  0.00  0.00    +0.072 C 
ATOM     24  C   UNL     1      35.247 -17.356 -21.201  0.00  0.00    -0.001 C 
ATOM     25  C   UNL     1      35.610 -18.695 -21.165  0.00  0.00    +0.020 C 
ATOM     26  C   UNL     1      35.634 -19.381 -22.363  0.00  0.00    +0.098 C 
ENDBRANCH  16  19
ENDBRANCH   7  16
TORSDOF 3
ENDMDL
MODEL 6
REMARK VINA RESULT:     -10.0      3.754      6.491
REMARK  Name = 24779724
REMARK  3 active torsions:
REMARK  status: ('A' for Active; 'I' for Inactive)
REMARK    1  A    between atoms: C_5  and  C_12
REMARK    2  A    between atoms: C_7  and  S_16
REMARK    3  A    between atoms: S_16  and  C_19
REMARK                            x       y       z     vdW  Elec       q    Type
REMARK                         _______ _______ _______ _____ _____    ______ ____
ROOT
ATOM      1  N   UNL     1      32.972 -23.254 -16.076  0.00  0.00    -0.186 N 
ATOM      2  N   UNL     1      31.686 -23.268 -16.506  0.00  0.00    -0.162 NA
ATOM      3  N   UNL     1      34.742 -23.074 -14.788  0.00  0.00    -0.126 NA
ATOM      4  N   UNL     1      35.158 -23.406 -16.061  0.00  0.00    -0.120 NA
ATOM      5  C   UNL     1      30.817 -22.994 -15.575  0.00  0.00    +0.104 C 
ATOM      6  C   UNL     1      33.429 -22.985 -14.807  0.00  0.00    +0.187 A 
ATOM      7  C   UNL     1      34.089 -23.508 -16.818  0.00  0.00    +0.217 A 
ATOM      8  C   UNL     1      31.170 -22.665 -14.155  0.00  0.00    +0.024 C 
ATOM      9  C   UNL     1      32.467 -22.675 -13.825  0.00  0.00    +0.042 C 
ENDROOT
BRANCH   5  12
ATOM     10  N   UNL     1      27.236 -22.521 -15.957  0.00  0.00    -0.208 N 
ATOM     11  N   UNL     1      27.369 -23.458 -16.912  0.00  0.00    -0.176 NA
ATOM     12  C   UNL     1      29.372 -22.984 -15.920  0.00  0.00    +0.056 C 
ATOM     13  C   UNL     1      28.407 -22.202 -15.332  0.00  0.00    +0.087 C 
ATOM     14  C   UNL     1      28.675 -23.736 -16.885  0.00  0.00    +0.121 C 
ATOM     15  C   UNL     1      25.937 -21.957 -15.681  0.00  0.00    +0.140 C 
ENDBRANCH   5  12
BRANCH   7  16
ATOM     16  S   UNL     1      34.047 -23.916 -18.556  0.00  0.00    -0.051 S 
BRANCH  16  19
ATOM     17  N   UNL     1      34.774 -18.555 -21.030  0.00  0.00    -0.248 NA
ATOM     18  C   UNL     1      35.744 -20.570 -20.132  0.00  0.00    -0.003 C 
ATOM     19  C   UNL     1      34.276 -22.313 -19.297  0.00  0.00    +0.011 C 
ATOM     20  C   UNL     1      34.632 -19.771 -20.470  0.00  0.00    +0.060 C 
ATOM     21  C   UNL     1      35.558 -21.834 -19.549  0.00  0.00    +0.060 C 
ATOM     22  C   UNL     1      33.176 -21.531 -19.627  0.00  0.00    -0.017 C 
ATOM     23  C   UNL     1      33.360 -20.274 -20.207  0.00  0.00    +0.072 C 
ATOM     24  C   UNL     1      37.023 -20.064 -20.397  0.00  0.00    -0.001 C 
ATOM     25  C   UNL     1      37.174 -18.811 -20.974  0.00  0.00    +0.020 C 
ATOM     26  C   UNL     1      36.026 -18.103 -21.269  0.00  0.00    +0.098 C 
ENDBRANCH  16  19
ENDBRANCH   7  16
TORSDOF 3
ENDMDL
MODEL 7
REMARK VINA RESULT:      -9.7      7.485     11.910
REMARK  Name = 24779724
REMARK  3 active torsions:
REMARK  status: ('A' for Active; 'I' for Inactive)
REMARK    1  A    between atoms: C_5  and  C_12
REMARK    2  A    between atoms: C_7  and  S_16
REMARK    3  A    between atoms: S_16  and  C_19
REMARK                            x       y       z     vdW  Elec       q    Type
REMARK                         _______ _______ _______ _____ _____    ______ ____
ROOT
ATOM      1  N   UNL     1      32.349 -10.669 -21.636  0.00  0.00    -0.186 N 
ATOM      2  N   UNL     1      32.823 -11.556 -22.546  0.00  0.00    -0.162 NA
ATOM      3  N   UNL     1      31.486  -9.813 -19.806  0.00  0.00    -0.126 NA
ATOM      4  N   UNL     1      31.767  -8.784 -20.681  0.00  0.00    -0.120 NA
ATOM      5  C   UNL     1      32.775 -12.796 -22.147  0.00  0.00    +0.104 C 
ATOM      6  C   UNL     1      31.838 -10.941 -20.388  0.00  0.00    +0.187 A 
ATOM      7  C   UNL     1      32.280  -9.313 -21.769  0.00  0.00    +0.217 A 
ATOM      8  C   UNL     1      32.229 -13.240 -20.823  0.00  0.00    +0.024 C 
ATOM      9  C   UNL     1      31.782 -12.291 -19.991  0.00  0.00    +0.042 C 
ENDROOT
BRANCH   5  12
ATOM     10  N   UNL     1      34.212 -15.679 -23.823  0.00  0.00    -0.208 N 
ATOM     11  N   UNL     1      33.738 -15.080 -24.929  0.00  0.00    -0.176 NA
ATOM     12  C   UNL     1      33.272 -13.863 -23.053  0.00  0.00    +0.056 C 
ATOM     13  C   UNL     1      33.960 -14.989 -22.673  0.00  0.00    +0.087 C 
ATOM     14  C   UNL     1      33.164 -13.973 -24.453  0.00  0.00    +0.121 C 
ATOM     15  C   UNL     1      34.915 -16.935 -23.932  0.00  0.00    +0.140 C 
ENDBRANCH   5  12
BRANCH   7  16
ATOM     16  S   UNL     1      32.825  -8.436 -23.227  0.00  0.00    -0.051 S 
BRANCH  16  19
ATOM     17  N   UNL     1      30.216  -3.153 -22.410  0.00  0.00    -0.248 NA
ATOM     18  C   UNL     1      31.826  -4.508 -23.584  0.00  0.00    -0.003 C 
ATOM     19  C   UNL     1      32.050  -6.851 -22.991  0.00  0.00    +0.011 C 
ATOM     20  C   UNL     1      30.819  -4.340 -22.611  0.00  0.00    +0.060 C 
ATOM     21  C   UNL     1      32.434  -5.761 -23.767  0.00  0.00    +0.060 C 
ATOM     22  C   UNL     1      31.059  -6.692 -22.031  0.00  0.00    -0.017 C 
ATOM     23  C   UNL     1      30.454  -5.446 -21.849  0.00  0.00    +0.072 C 
ATOM     24  C   UNL     1      32.193  -3.394 -24.352  0.00  0.00    -0.001 C 
ATOM     25  C   UNL     1      31.574  -2.170 -24.147  0.00  0.00    +0.020 C 
ATOM     26  C   UNL     1      30.600  -2.103 -23.171  0.00  0.00    +0.098 C 
ENDBRANCH  16  19
ENDBRANCH   7  16
TORSDOF 3
ENDMDL
MODEL 8
REMARK VINA RESULT:      -9.6      6.522     13.675
REMARK  Name = 24779724
REMARK  3 active torsions:
REMARK  status: ('A' for Active; 'I' for Inactive)
REMARK    1  A    between atoms: C_5  and  C_12
REMARK    2  A    between atoms: C_7  and  S_16
REMARK    3  A    between atoms: S_16  and  C_19
REMARK                            x       y       z     vdW  Elec       q    Type
REMARK                         _______ _______ _______ _____ _____    ______ ____
ROOT
ATOM      1  N   UNL     1      33.508  -8.825 -23.236  0.00  0.00    -0.186 N 
ATOM      2  N   UNL     1      32.543  -7.951 -22.858  0.00  0.00    -0.162 NA
ATOM      3  N   UNL     1      35.378  -9.657 -24.033  0.00  0.00    -0.126 NA
ATOM      4  N   UNL     1      34.594 -10.698 -23.581  0.00  0.00    -0.120 NA
ATOM      5  C   UNL     1      32.842  -6.704 -23.092  0.00  0.00    +0.104 C 
ATOM      6  C   UNL     1      34.718  -8.537 -23.821  0.00  0.00    +0.187 A 
ATOM      7  C   UNL     1      33.480 -10.184 -23.110  0.00  0.00    +0.217 A 
ATOM      8  C   UNL     1      34.114  -6.244 -23.740  0.00  0.00    +0.024 C 
ATOM      9  C   UNL     1      35.007  -7.183 -24.078  0.00  0.00    +0.042 C 
ENDROOT
BRANCH   5  12
ATOM     10  N   UNL     1      30.819  -3.738 -22.550  0.00  0.00    -0.208 N 
ATOM     11  N   UNL     1      30.090  -4.563 -21.778  0.00  0.00    -0.176 NA
ATOM     12  C   UNL     1      31.867  -5.647 -22.718  0.00  0.00    +0.056 C 
ATOM     13  C   UNL     1      31.894  -4.339 -23.135  0.00  0.00    +0.087 C 
ATOM     14  C   UNL     1      30.735  -5.727 -21.885  0.00  0.00    +0.121 C 
ATOM     15  C   UNL     1      30.427  -2.356 -22.692  0.00  0.00    +0.140 C 
ENDBRANCH   5  12
BRANCH   7  16
ATOM     16  S   UNL     1      32.108 -11.080 -22.399  0.00  0.00    -0.051 S 
BRANCH  16  19
ATOM     17  N   UNL     1      34.608 -16.353 -21.243  0.00  0.00    -0.248 NA
ATOM     18  C   UNL     1      33.937 -14.688 -22.850  0.00  0.00    -0.003 C 
ATOM     19  C   UNL     1      32.859 -12.660 -22.064  0.00  0.00    +0.011 C 
ATOM     20  C   UNL     1      34.047 -15.163 -21.526  0.00  0.00    +0.060 C 
ATOM     21  C   UNL     1      33.344 -13.441 -23.109  0.00  0.00    +0.060 C 
ATOM     22  C   UNL     1      32.964 -13.122 -20.758  0.00  0.00    -0.017 C 
ATOM     23  C   UNL     1      33.553 -14.362 -20.500  0.00  0.00    +0.072 C 
ATOM     24  C   UNL     1      34.433 -15.494 -23.882  0.00  0.00    -0.001 C 
ATOM     25  C   UNL     1      35.013 -16.721 -23.594  0.00  0.00    +0.020 C 
ATOM     26  C   UNL     1      35.075 -17.100 -22.268  0.00  0.00    +0.098 C 
ENDBRANCH  16  19
ENDBRANCH   7  16
TORSDOF 3
ENDMDL
MODEL 9
REMARK VINA RESULT:      -9.4      6.860     10.034
REMARK  Name = 24779724
REMARK  3 active torsions:
REMARK  status: ('A' for Active; 'I' for Inactive)
REMARK    1  A    between atoms: C_5  and  C_12
REMARK    2  A    between atoms: C_7  and  S_16
REMARK    3  A    between atoms: S_16  and  C_19
REMARK                            x       y       z     vdW  Elec       q    Type
REMARK                         _______ _______ _______ _____ _____    ______ ____
ROOT
ATOM      1  N   UNL     1      31.950 -24.025 -14.521  0.00  0.00    -0.186 N 
ATOM      2  N   UNL     1      31.030 -23.570 -15.406  0.00  0.00    -0.162 NA
ATOM      3  N   UNL     1      32.873 -24.978 -12.770  0.00  0.00    -0.126 NA
ATOM      4  N   UNL     1      33.875 -24.467 -13.569  0.00  0.00    -0.120 NA
ATOM      5  C   UNL     1      29.799 -23.839 -15.070  0.00  0.00    +0.104 C 
ATOM      6  C   UNL     1      31.722 -24.707 -13.350  0.00  0.00    +0.187 A 
ATOM      7  C   UNL     1      33.307 -23.900 -14.610  0.00  0.00    +0.217 A 
ATOM      8  C   UNL     1      29.400 -24.558 -13.817  0.00  0.00    +0.024 C 
ATOM      9  C   UNL     1      30.381 -24.968 -13.003  0.00  0.00    +0.042 C 
ENDROOT
BRANCH   5  12
ATOM     10  N   UNL     1      27.049 -22.266 -16.844  0.00  0.00    -0.208 N 
ATOM     11  N   UNL     1      27.189 -23.311 -17.677  0.00  0.00    -0.176 NA
ATOM     12  C   UNL     1      28.697 -23.398 -15.963  0.00  0.00    +0.056 C 
ATOM     13  C   UNL     1      27.928 -22.271 -15.800  0.00  0.00    +0.087 C 
ATOM     14  C   UNL     1      28.197 -23.998 -17.135  0.00  0.00    +0.121 C 
ATOM     15  C   UNL     1      26.033 -21.273 -17.103  0.00  0.00    +0.140 C 
ENDBRANCH   5  12
BRANCH   7  16
ATOM     16  S   UNL     1      34.135 -23.079 -15.963  0.00  0.00    -0.051 S 
BRANCH  16  19
ATOM     17  N   UNL     1      39.832 -24.371 -14.838  0.00  0.00    -0.248 NA
ATOM     18  C   UNL     1      37.503 -24.967 -14.676  0.00  0.00    -0.003 C 
ATOM     19  C   UNL     1      35.838 -23.476 -15.622  0.00  0.00    +0.011 C 
ATOM     20  C   UNL     1      38.537 -24.098 -15.083  0.00  0.00    +0.060 C 
ATOM     21  C   UNL     1      36.162 -24.650 -14.948  0.00  0.00    +0.060 C 
ATOM     22  C   UNL     1      36.851 -22.616 -16.025  0.00  0.00    -0.017 C 
ATOM     23  C   UNL     1      38.184 -22.930 -15.755  0.00  0.00    +0.072 C 
ATOM     24  C   UNL     1      37.858 -26.142 -14.000  0.00  0.00    -0.001 C 
ATOM     25  C   UNL     1      39.191 -26.427 -13.747  0.00  0.00    +0.020 C 
ATOM     26  C   UNL     1      40.132 -25.516 -14.183  0.00  0.00    +0.098 C 
ENDBRANCH  16  19
ENDBRANCH   7  16
TORSDOF 3
ENDMDL
