MODEL 1
REMARK VINA RESULT:     -12.0      0.000      0.000
REMARK  Name = 11476460
REMARK  8 active torsions:
REMARK  status: ('A' for Active; 'I' for Inactive)
REMARK    1  A    between atoms: C_2  and  N_10
REMARK    2  A    between atoms: C_5  and  C_23
REMARK    3  A    between atoms: C_11  and  C_14
REMARK    4  A    between atoms: C_14  and  O_15
REMARK    5  A    between atoms: O_15  and  P_16
REMARK    6  A    between atoms: P_16  and  O_18
REMARK    7  A    between atoms: P_16  and  O_20
REMARK    8  A    between atoms: C_27  and  C_32
REMARK                            x       y       z     vdW  Elec       q    Type
REMARK                         _______ _______ _______ _____ _____    ______ ____
ROOT
ATOM      1  F   UNL     1      33.524 -22.743 -17.818  0.00  0.00    -0.204 F 
ATOM      2  C   UNL     1      36.243 -23.495 -15.519  0.00  0.00    +0.059 C 
ATOM      3  C   UNL     1      34.978 -23.492 -16.116  0.00  0.00    +0.045 C 
ATOM      4  C   UNL     1      37.272 -22.732 -16.081  0.00  0.00    +0.015 C 
ATOM      5  C   UNL     1      35.774 -21.975 -17.819  0.00  0.00    +0.029 C 
ATOM      6  C   UNL     1      34.744 -22.734 -17.263  0.00  0.00    +0.141 C 
ATOM      7  C   UNL     1      37.038 -21.974 -17.228  0.00  0.00    +0.004 C 
ENDROOT
BRANCH   2  10
ATOM      8  O   UNL     1      36.652 -25.996 -12.904  0.00  0.00    -0.434 OA
ATOM      9  O   UNL     1      35.928 -26.475 -15.000  0.00  0.00    -0.226 OA
ATOM     10  N   UNL     1      36.481 -24.268 -14.348  0.00  0.00    -0.221 N 
ATOM     11  C   UNL     1      37.265 -24.873 -12.255  0.00  0.00    +0.221 C 
ATOM     12  C   UNL     1      36.835 -23.681 -13.084  0.00  0.00    +0.148 C 
ATOM     13  C   UNL     1      36.320 -25.643 -14.193  0.00  0.00    +0.409 C 
BRANCH  11  14
ATOM     14  C   UNL     1      38.773 -25.079 -12.238  0.00  0.00    +0.199 C 
BRANCH  14  15
ATOM     15  O   UNL     1      39.275 -24.863 -13.545  0.00  0.00    -0.269 OA
BRANCH  15  16
ATOM     16  P   UNL     1      40.057 -26.073 -14.282  0.00  0.00    +0.473 P 
ATOM     17  O   UNL     1      41.316 -26.524 -13.600  0.00  0.00    -0.227 OA
BRANCH  16  18
ATOM     18  O   UNL     1      40.245 -25.543 -15.798  0.00  0.00    -0.303 OA
ATOM     19  H   UNL     1      40.003 -26.248 -16.420  0.00  0.00    +0.222 HD
ENDBRANCH  16  18
BRANCH  16  20
ATOM     20  O   UNL     1      38.914 -27.209 -14.425  0.00  0.00    -0.303 OA
ATOM     21  H   UNL     1      38.851 -27.709 -13.597  0.00  0.00    +0.222 HD
ENDBRANCH  16  20
ENDBRANCH  15  16
ENDBRANCH  14  15
ENDBRANCH  11  14
ENDBRANCH   2  10
BRANCH   5  23
ATOM     22  N   UNL     1      36.419 -19.768 -20.753  0.00  0.00    -0.234 NA
ATOM     23  C   UNL     1      35.536 -21.186 -19.009  0.00  0.00    +0.021 C 
ATOM     24  C   UNL     1      34.260 -21.070 -19.546  0.00  0.00    +0.004 C 
ATOM     25  C   UNL     1      36.572 -20.523 -19.642  0.00  0.00    +0.100 C 
ATOM     26  C   UNL     1      34.062 -20.304 -20.688  0.00  0.00    +0.029 C 
ATOM     27  C   UNL     1      35.165 -19.678 -21.249  0.00  0.00    +0.146 C 
BRANCH  27  32
ATOM     28  N   UNL     1      35.181 -17.549 -22.438  0.00  0.00    -0.105 NA
ATOM     29  N   UNL     1      34.938 -17.313 -23.735  0.00  0.00    -0.113 N 
ATOM     30  N   UNL     1      34.698 -19.406 -23.640  0.00  0.00    -0.085 NA
ATOM     31  N   UNL     1      34.648 -18.384 -24.486  0.00  0.00    -0.018 NA
ATOM     32  C   UNL     1      35.018 -18.874 -22.428  0.00  0.00    +0.092 C 
ATOM     33  C   UNL     1      34.986 -15.985 -24.290  0.00  0.00    +0.163 C 
ENDBRANCH  27  32
ENDBRANCH   5  23
TORSDOF 8
ENDMDL
MODEL 2
REMARK VINA RESULT:     -10.8      2.489      3.698
REMARK  Name = 11476460
REMARK  8 active torsions:
REMARK  status: ('A' for Active; 'I' for Inactive)
REMARK    1  A    between atoms: C_2  and  N_10
REMARK    2  A    between atoms: C_5  and  C_23
REMARK    3  A    between atoms: C_11  and  C_14
REMARK    4  A    between atoms: C_14  and  O_15
REMARK    5  A    between atoms: O_15  and  P_16
REMARK    6  A    between atoms: P_16  and  O_18
REMARK    7  A    between atoms: P_16  and  O_20
REMARK    8  A    between atoms: C_27  and  C_32
REMARK                            x       y       z     vdW  Elec       q    Type
REMARK                         _______ _______ _______ _____ _____    ______ ____
ROOT
ATOM      1  F   UNL     1      32.838 -20.744 -20.062  0.00  0.00    -0.204 F 
ATOM      2  C   UNL     1      35.499 -22.041 -17.946  0.00  0.00    +0.059 C 
ATOM      3  C   UNL     1      34.230 -21.823 -18.490  0.00  0.00    +0.045 C 
ATOM      4  C   UNL     1      36.602 -21.366 -18.479  0.00  0.00    +0.015 C 
ATOM      5  C   UNL     1      35.168 -20.268 -20.084  0.00  0.00    +0.029 C 
ATOM      6  C   UNL     1      34.064 -20.939 -19.556  0.00  0.00    +0.141 C 
ATOM      7  C   UNL     1      36.437 -20.481 -19.545  0.00  0.00    +0.004 C 
ENDROOT
BRANCH   2  10
ATOM      8  O   UNL     1      36.558 -24.092 -15.130  0.00  0.00    -0.434 OA
ATOM      9  O   UNL     1      37.895 -22.567 -16.147  0.00  0.00    -0.226 OA
ATOM     10  N   UNL     1      35.669 -22.943 -16.858  0.00  0.00    -0.221 N 
ATOM     11  C   UNL     1      35.160 -24.409 -15.141  0.00  0.00    +0.221 C 
ATOM     12  C   UNL     1      34.672 -23.909 -16.484  0.00  0.00    +0.148 C 
ATOM     13  C   UNL     1      36.805 -23.118 -16.072  0.00  0.00    +0.409 C 
BRANCH  11  14
ATOM     14  C   UNL     1      34.490 -23.713 -13.963  0.00  0.00    +0.199 C 
BRANCH  14  15
ATOM     15  O   UNL     1      34.402 -24.628 -12.886  0.00  0.00    -0.269 OA
BRANCH  15  16
ATOM     16  P   UNL     1      35.628 -24.699 -11.830  0.00  0.00    +0.473 P 
ATOM     17  O   UNL     1      35.225 -24.953 -10.407  0.00  0.00    -0.227 OA
BRANCH  16  18
ATOM     18  O   UNL     1      36.434 -23.321 -12.085  0.00  0.00    -0.303 OA
ATOM     19  H   UNL     1      35.873 -22.568 -11.840  0.00  0.00    +0.222 HD
ENDBRANCH  16  18
BRANCH  16  20
ATOM     20  O   UNL     1      36.597 -25.821 -12.477  0.00  0.00    -0.303 OA
ATOM     21  H   UNL     1      36.805 -25.579 -13.393  0.00  0.00    +0.222 HD
ENDBRANCH  16  20
ENDBRANCH  15  16
ENDBRANCH  14  15
ENDBRANCH  11  14
ENDBRANCH   2  10
BRANCH   5  23
ATOM     22  N   UNL     1      34.800 -17.070 -21.963  0.00  0.00    -0.234 NA
ATOM     23  C   UNL     1      35.001 -19.349 -21.189  0.00  0.00    +0.021 C 
ATOM     24  C   UNL     1      34.879 -19.814 -22.492  0.00  0.00    +0.004 C 
ATOM     25  C   UNL     1      34.956 -17.983 -20.978  0.00  0.00    +0.100 C 
ATOM     26  C   UNL     1      34.718 -18.906 -23.533  0.00  0.00    +0.029 C 
ATOM     27  C   UNL     1      34.686 -17.557 -23.219  0.00  0.00    +0.146 C 
BRANCH  27  32
ATOM     28  N   UNL     1      33.960 -15.383 -24.050  0.00  0.00    -0.105 NA
ATOM     29  N   UNL     1      34.052 -14.889 -25.293  0.00  0.00    -0.113 N 
ATOM     30  N   UNL     1      34.926 -16.793 -25.535  0.00  0.00    -0.085 NA
ATOM     31  N   UNL     1      34.618 -15.689 -26.206  0.00  0.00    -0.018 NA
ATOM     32  C   UNL     1      34.520 -16.577 -24.253  0.00  0.00    +0.092 C 
ATOM     33  C   UNL     1      33.572 -13.573 -25.629  0.00  0.00    +0.163 C 
ENDBRANCH  27  32
ENDBRANCH   5  23
TORSDOF 8
ENDMDL
MODEL 3
REMARK VINA RESULT:     -10.5      3.052      4.746
REMARK  Name = 11476460
REMARK  8 active torsions:
REMARK  status: ('A' for Active; 'I' for Inactive)
REMARK    1  A    between atoms: C_2  and  N_10
REMARK    2  A    between atoms: C_5  and  C_23
REMARK    3  A    between atoms: C_11  and  C_14
REMARK    4  A    between atoms: C_14  and  O_15
REMARK    5  A    between atoms: O_15  and  P_16
REMARK    6  A    between atoms: P_16  and  O_18
REMARK    7  A    between atoms: P_16  and  O_20
REMARK    8  A    between atoms: C_27  and  C_32
REMARK                            x       y       z     vdW  Elec       q    Type
REMARK                         _______ _______ _______ _____ _____    ______ ____
ROOT
ATOM      1  F   UNL     1      37.517 -19.810 -20.104  0.00  0.00    -0.204 F 
ATOM      2  C   UNL     1      35.507 -22.018 -18.024  0.00  0.00    +0.059 C 
ATOM      3  C   UNL     1      36.610 -21.342 -18.553  0.00  0.00    +0.045 C 
ATOM      4  C   UNL     1      34.236 -21.791 -18.563  0.00  0.00    +0.015 C 
ATOM      5  C   UNL     1      35.176 -20.225 -20.144  0.00  0.00    +0.029 C 
ATOM      6  C   UNL     1      36.446 -20.447 -19.611  0.00  0.00    +0.141 C 
ATOM      7  C   UNL     1      34.072 -20.897 -19.621  0.00  0.00    +0.004 C 
ENDROOT
BRANCH   2  10
ATOM      8  O   UNL     1      36.559 -24.090 -15.221  0.00  0.00    -0.434 OA
ATOM      9  O   UNL     1      37.887 -22.536 -16.203  0.00  0.00    -0.226 OA
ATOM     10  N   UNL     1      35.675 -22.931 -16.945  0.00  0.00    -0.221 N 
ATOM     11  C   UNL     1      35.164 -24.424 -15.252  0.00  0.00    +0.221 C 
ATOM     12  C   UNL     1      34.686 -23.915 -16.595  0.00  0.00    +0.148 C 
ATOM     13  C   UNL     1      36.804 -23.101 -16.147  0.00  0.00    +0.409 C 
BRANCH  11  14
ATOM     14  C   UNL     1      34.472 -23.751 -14.074  0.00  0.00    +0.199 C 
BRANCH  14  15
ATOM     15  O   UNL     1      33.475 -24.625 -13.575  0.00  0.00    -0.269 OA
BRANCH  15  16
ATOM     16  P   UNL     1      31.944 -24.100 -13.521  0.00  0.00    +0.473 P 
ATOM     17  O   UNL     1      31.356 -23.723 -14.849  0.00  0.00    -0.227 OA
BRANCH  16  18
ATOM     18  O   UNL     1      31.982 -22.917 -12.420  0.00  0.00    -0.303 OA
ATOM     19  H   UNL     1      32.806 -22.976 -11.910  0.00  0.00    +0.222 HD
ENDBRANCH  16  18
BRANCH  16  20
ATOM     20  O   UNL     1      31.178 -25.299 -12.751  0.00  0.00    -0.303 OA
ATOM     21  H   UNL     1      31.333 -26.134 -13.219  0.00  0.00    +0.222 HD
ENDBRANCH  16  20
ENDBRANCH  15  16
ENDBRANCH  14  15
ENDBRANCH  11  14
ENDBRANCH   2  10
BRANCH   5  23
ATOM     22  N   UNL     1      34.828 -17.014 -22.005  0.00  0.00    -0.234 NA
ATOM     23  C   UNL     1      35.000 -19.299 -21.243  0.00  0.00    +0.021 C 
ATOM     24  C   UNL     1      34.834 -19.756 -22.543  0.00  0.00    +0.004 C 
ATOM     25  C   UNL     1      34.990 -17.932 -21.027  0.00  0.00    +0.100 C 
ATOM     26  C   UNL     1      34.666 -18.843 -23.577  0.00  0.00    +0.029 C 
ATOM     27  C   UNL     1      34.670 -17.494 -23.258  0.00  0.00    +0.146 C 
BRANCH  27  32
ATOM     28  N   UNL     1      33.924 -15.321 -24.076  0.00  0.00    -0.105 NA
ATOM     29  N   UNL     1      34.017 -14.816 -25.314  0.00  0.00    -0.113 N 
ATOM     30  N   UNL     1      34.913 -16.708 -25.567  0.00  0.00    -0.085 NA
ATOM     31  N   UNL     1      34.597 -15.603 -26.231  0.00  0.00    -0.018 NA
ATOM     32  C   UNL     1      34.499 -16.507 -24.286  0.00  0.00    +0.092 C 
ATOM     33  C   UNL     1      33.524 -13.503 -25.641  0.00  0.00    +0.163 C 
ENDBRANCH  27  32
ENDBRANCH   5  23
TORSDOF 8
ENDMDL
MODEL 4
REMARK VINA RESULT:     -10.4      6.830     10.848
REMARK  Name = 11476460
REMARK  8 active torsions:
REMARK  status: ('A' for Active; 'I' for Inactive)
REMARK    1  A    between atoms: C_2  and  N_10
REMARK    2  A    between atoms: C_5  and  C_23
REMARK    3  A    between atoms: C_11  and  C_14
REMARK    4  A    between atoms: C_14  and  O_15
REMARK    5  A    between atoms: O_15  and  P_16
REMARK    6  A    between atoms: P_16  and  O_18
REMARK    7  A    between atoms: P_16  and  O_20
REMARK    8  A    between atoms: C_27  and  C_32
REMARK                            x       y       z     vdW  Elec       q    Type
REMARK                         _______ _______ _______ _____ _____    ______ ____
ROOT
ATOM      1  F   UNL     1      33.171 -21.120 -19.596  0.00  0.00    -0.204 F 
ATOM      2  C   UNL     1      35.343 -19.147 -21.749  0.00  0.00    +0.059 C 
ATOM      3  C   UNL     1      34.194 -19.740 -21.215  0.00  0.00    +0.045 C 
ATOM      4  C   UNL     1      36.583 -19.382 -21.146  0.00  0.00    +0.015 C 
ATOM      5  C   UNL     1      35.523 -20.791 -19.493  0.00  0.00    +0.029 C 
ATOM      6  C   UNL     1      34.284 -20.560 -20.091  0.00  0.00    +0.141 C 
ATOM      7  C   UNL     1      36.673 -20.202 -20.021  0.00  0.00    +0.004 C 
ENDROOT
BRANCH   2  10
ATOM      8  O   UNL     1      34.843 -17.554 -24.985  0.00  0.00    -0.434 OA
ATOM      9  O   UNL     1      34.295 -19.712 -24.548  0.00  0.00    -0.226 OA
ATOM     10  N   UNL     1      35.251 -18.311 -22.897  0.00  0.00    -0.221 N 
ATOM     11  C   UNL     1      35.207 -16.404 -24.209  0.00  0.00    +0.221 C 
ATOM     12  C   UNL     1      35.794 -16.980 -22.938  0.00  0.00    +0.148 C 
ATOM     13  C   UNL     1      34.745 -18.646 -24.151  0.00  0.00    +0.409 C 
BRANCH  11  14
ATOM     14  C   UNL     1      33.962 -15.562 -23.966  0.00  0.00    +0.199 C 
BRANCH  14  15
ATOM     15  O   UNL     1      33.753 -15.455 -22.569  0.00  0.00    -0.269 OA
BRANCH  15  16
ATOM     16  P   UNL     1      33.771 -13.983 -21.895  0.00  0.00    +0.473 P 
ATOM     17  O   UNL     1      34.363 -13.923 -20.517  0.00  0.00    -0.227 OA
BRANCH  16  18
ATOM     18  O   UNL     1      32.236 -13.488 -22.010  0.00  0.00    -0.303 OA
ATOM     19  H   UNL     1      31.896 -13.281 -21.125  0.00  0.00    +0.222 HD
ENDBRANCH  16  18
BRANCH  16  20
ATOM     20  O   UNL     1      34.535 -13.087 -23.005  0.00  0.00    -0.303 OA
ATOM     21  H   UNL     1      34.813 -12.248 -22.607  0.00  0.00    +0.222 HD
ENDBRANCH  16  20
ENDBRANCH  15  16
ENDBRANCH  14  15
ENDBRANCH  11  14
ENDBRANCH   2  10
BRANCH   5  23
ATOM     22  N   UNL     1      36.966 -22.515 -16.520  0.00  0.00    -0.234 NA
ATOM     23  C   UNL     1      35.622 -21.642 -18.327  0.00  0.00    +0.021 C 
ATOM     24  C   UNL     1      34.534 -22.386 -17.891  0.00  0.00    +0.004 C 
ATOM     25  C   UNL     1      36.805 -21.739 -17.615  0.00  0.00    +0.100 C 
ATOM     26  C   UNL     1      34.659 -23.195 -16.768  0.00  0.00    +0.029 C 
ATOM     27  C   UNL     1      35.886 -23.225 -16.124  0.00  0.00    +0.146 C 
BRANCH  27  32
ATOM     28  N   UNL     1      37.140 -24.823 -14.775  0.00  0.00    -0.105 NA
ATOM     29  N   UNL     1      36.820 -25.345 -13.583  0.00  0.00    -0.113 N 
ATOM     30  N   UNL     1      35.165 -24.090 -13.947  0.00  0.00    -0.085 NA
ATOM     31  N   UNL     1      35.658 -24.939 -13.053  0.00  0.00    -0.018 NA
ATOM     32  C   UNL     1      36.073 -24.044 -14.961  0.00  0.00    +0.092 C 
ATOM     33  C   UNL     1      37.674 -26.288 -12.908  0.00  0.00    +0.163 C 
ENDBRANCH  27  32
ENDBRANCH   5  23
TORSDOF 8
ENDMDL
MODEL 5
REMARK VINA RESULT:     -10.4     12.660     16.095
REMARK  Name = 11476460
REMARK  8 active torsions:
REMARK  status: ('A' for Active; 'I' for Inactive)
REMARK    1  A    between atoms: C_2  and  N_10
REMARK    2  A    between atoms: C_5  and  C_23
REMARK    3  A    between atoms: C_11  and  C_14
REMARK    4  A    between atoms: C_14  and  O_15
REMARK    5  A    between atoms: O_15  and  P_16
REMARK    6  A    between atoms: P_16  and  O_18
REMARK    7  A    between atoms: P_16  and  O_20
REMARK    8  A    between atoms: C_27  and  C_32
REMARK                            x       y       z     vdW  Elec       q    Type
REMARK                         _______ _______ _______ _____ _____    ______ ____
ROOT
ATOM      1  F   UNL     1      31.539 -12.832 -20.507  0.00  0.00    -0.204 F 
ATOM      2  C   UNL     1      32.133  -9.667 -22.201  0.00  0.00    +0.059 C 
ATOM      3  C   UNL     1      31.586 -10.624 -21.342  0.00  0.00    +0.045 C 
ATOM      4  C   UNL     1      33.180 -10.027 -23.057  0.00  0.00    +0.015 C 
ATOM      5  C   UNL     1      33.123 -12.283 -22.194  0.00  0.00    +0.029 C 
ATOM      6  C   UNL     1      32.079 -11.929 -21.338  0.00  0.00    +0.141 C 
ATOM      7  C   UNL     1      33.672 -11.332 -23.054  0.00  0.00    +0.004 C 
ENDROOT
BRANCH   2  10
ATOM      8  O   UNL     1      31.070  -6.242 -21.573  0.00  0.00    -0.434 OA
ATOM      9  O   UNL     1      32.115  -7.536 -20.031  0.00  0.00    -0.226 OA
ATOM     10  N   UNL     1      31.630  -8.335 -22.206  0.00  0.00    -0.221 N 
ATOM     11  C   UNL     1      30.832  -6.307 -22.986  0.00  0.00    +0.221 C 
ATOM     12  C   UNL     1      30.886  -7.786 -23.306  0.00  0.00    +0.148 C 
ATOM     13  C   UNL     1      31.670  -7.411 -21.164  0.00  0.00    +0.409 C 
BRANCH  11  14
ATOM     14  C   UNL     1      31.905  -5.499 -23.703  0.00  0.00    +0.199 C 
BRANCH  14  15
ATOM     15  O   UNL     1      32.134  -4.305 -22.976  0.00  0.00    -0.269 OA
BRANCH  15  16
ATOM     16  P   UNL     1      31.063  -3.098 -23.117  0.00  0.00    +0.473 P 
ATOM     17  O   UNL     1      30.377  -3.011 -24.449  0.00  0.00    -0.227 OA
BRANCH  16  18
ATOM     18  O   UNL     1      31.904  -1.786 -22.685  0.00  0.00    -0.303 OA
ATOM     19  H   UNL     1      31.831  -1.656 -21.726  0.00  0.00    +0.222 HD
ENDBRANCH  16  18
BRANCH  16  20
ATOM     20  O   UNL     1      30.078  -3.339 -21.856  0.00  0.00    -0.303 OA
ATOM     21  H   UNL     1      29.785  -4.263 -21.849  0.00  0.00    +0.222 HD
ENDBRANCH  16  20
ENDBRANCH  15  16
ENDBRANCH  14  15
ENDBRANCH  11  14
ENDBRANCH   2  10
BRANCH   5  23
ATOM     22  N   UNL     1      34.520 -15.506 -20.948  0.00  0.00    -0.234 NA
ATOM     23  C   UNL     1      33.637 -13.636 -22.195  0.00  0.00    +0.021 C 
ATOM     24  C   UNL     1      33.752 -14.355 -23.377  0.00  0.00    +0.004 C 
ATOM     25  C   UNL     1      34.030 -14.248 -21.018  0.00  0.00    +0.100 C 
ATOM     26  C   UNL     1      34.251 -15.652 -23.346  0.00  0.00    +0.029 C 
ATOM     27  C   UNL     1      34.618 -16.177 -22.117  0.00  0.00    +0.146 C 
BRANCH  27  32
ATOM     28  N   UNL     1      35.210 -18.196 -20.884  0.00  0.00    -0.105 NA
ATOM     29  N   UNL     1      35.754 -19.330 -21.347  0.00  0.00    -0.113 N 
ATOM     30  N   UNL     1      35.611 -18.185 -23.112  0.00  0.00    -0.085 NA
ATOM     31  N   UNL     1      36.009 -19.369 -22.662  0.00  0.00    -0.018 NA
ATOM     32  C   UNL     1      35.141 -17.511 -22.027  0.00  0.00    +0.092 C 
ATOM     33  C   UNL     1      36.049 -20.444 -20.483  0.00  0.00    +0.163 C 
ENDBRANCH  27  32
ENDBRANCH   5  23
TORSDOF 8
ENDMDL
MODEL 6
REMARK VINA RESULT:     -10.2      1.688      2.330
REMARK  Name = 11476460
REMARK  8 active torsions:
REMARK  status: ('A' for Active; 'I' for Inactive)
REMARK    1  A    between atoms: C_2  and  N_10
REMARK    2  A    between atoms: C_5  and  C_23
REMARK    3  A    between atoms: C_11  and  C_14
REMARK    4  A    between atoms: C_14  and  O_15
REMARK    5  A    between atoms: O_15  and  P_16
REMARK    6  A    between atoms: P_16  and  O_18
REMARK    7  A    between atoms: P_16  and  O_20
REMARK    8  A    between atoms: C_27  and  C_32
REMARK                            x       y       z     vdW  Elec       q    Type
REMARK                         _______ _______ _______ _____ _____    ______ ____
ROOT
ATOM      1  F   UNL     1      37.502 -21.297 -17.618  0.00  0.00    -0.204 F 
ATOM      2  C   UNL     1      35.328 -23.490 -15.692  0.00  0.00    +0.059 C 
ATOM      3  C   UNL     1      36.449 -22.755 -16.088  0.00  0.00    +0.045 C 
ATOM      4  C   UNL     1      34.169 -23.454 -16.475  0.00  0.00    +0.015 C 
ATOM      5  C   UNL     1      35.257 -21.961 -18.033  0.00  0.00    +0.029 C 
ATOM      6  C   UNL     1      36.414 -21.993 -17.256  0.00  0.00    +0.141 C 
ATOM      7  C   UNL     1      34.134 -22.692 -17.643  0.00  0.00    +0.004 C 
ENDROOT
BRANCH   2  10
ATOM      8  O   UNL     1      35.894 -25.839 -12.969  0.00  0.00    -0.434 OA
ATOM      9  O   UNL     1      37.001 -25.917 -14.946  0.00  0.00    -0.226 OA
ATOM     10  N   UNL     1      35.363 -24.268 -14.501  0.00  0.00    -0.221 N 
ATOM     11  C   UNL     1      35.049 -24.896 -12.295  0.00  0.00    +0.221 C 
ATOM     12  C   UNL     1      34.447 -24.069 -13.411  0.00  0.00    +0.148 C 
ATOM     13  C   UNL     1      36.173 -25.369 -14.232  0.00  0.00    +0.409 C 
BRANCH  11  14
ATOM     14  C   UNL     1      35.897 -24.076 -11.332  0.00  0.00    +0.199 C 
BRANCH  14  15
ATOM     15  O   UNL     1      37.194 -24.642 -11.276  0.00  0.00    -0.269 OA
BRANCH  15  16
ATOM     16  P   UNL     1      38.427 -23.812 -11.918  0.00  0.00    +0.473 P 
ATOM     17  O   UNL     1      39.397 -23.246 -10.922  0.00  0.00    -0.227 OA
BRANCH  16  18
ATOM     18  O   UNL     1      37.704 -22.726 -12.873  0.00  0.00    -0.303 OA
ATOM     19  H   UNL     1      36.766 -22.660 -12.634  0.00  0.00    +0.222 HD
ENDBRANCH  16  18
BRANCH  16  20
ATOM     20  O   UNL     1      39.064 -24.865 -12.969  0.00  0.00    -0.303 OA
ATOM     21  H   UNL     1      39.547 -25.552 -12.484  0.00  0.00    +0.222 HD
ENDBRANCH  16  20
ENDBRANCH  15  16
ENDBRANCH  14  15
ENDBRANCH  11  14
ENDBRANCH   2  10
BRANCH   5  23
ATOM     22  N   UNL     1      33.902 -20.129 -20.982  0.00  0.00    -0.234 NA
ATOM     23  C   UNL     1      35.215 -21.172 -19.246  0.00  0.00    +0.021 C 
ATOM     24  C   UNL     1      36.384 -20.712 -19.838  0.00  0.00    +0.004 C 
ATOM     25  C   UNL     1      34.011 -20.858 -19.850  0.00  0.00    +0.100 C 
ATOM     26  C   UNL     1      36.313 -19.959 -21.004  0.00  0.00    +0.029 C 
ATOM     27  C   UNL     1      35.059 -19.696 -21.532  0.00  0.00    +0.146 C 
BRANCH  27  32
ATOM     28  N   UNL     1      35.125 -17.606 -22.786  0.00  0.00    -0.105 NA
ATOM     29  N   UNL     1      34.880 -17.404 -24.088  0.00  0.00    -0.113 N 
ATOM     30  N   UNL     1      34.582 -19.485 -23.927  0.00  0.00    -0.085 NA
ATOM     31  N   UNL     1      34.554 -18.489 -24.804  0.00  0.00    -0.018 NA
ATOM     32  C   UNL     1      34.926 -18.925 -22.734  0.00  0.00    +0.092 C 
ATOM     33  C   UNL     1      34.960 -16.096 -24.686  0.00  0.00    +0.163 C 
ENDBRANCH  27  32
ENDBRANCH   5  23
TORSDOF 8
ENDMDL
MODEL 7
REMARK VINA RESULT:     -10.0      1.940      3.053
REMARK  Name = 11476460
REMARK  8 active torsions:
REMARK  status: ('A' for Active; 'I' for Inactive)
REMARK    1  A    between atoms: C_2  and  N_10
REMARK    2  A    between atoms: C_5  and  C_23
REMARK    3  A    between atoms: C_11  and  C_14
REMARK    4  A    between atoms: C_14  and  O_15
REMARK    5  A    between atoms: O_15  and  P_16
REMARK    6  A    between atoms: P_16  and  O_18
REMARK    7  A    between atoms: P_16  and  O_20
REMARK    8  A    between atoms: C_27  and  C_32
REMARK                            x       y       z     vdW  Elec       q    Type
REMARK                         _______ _______ _______ _____ _____    ______ ____
ROOT
ATOM      1  F   UNL     1      37.452 -19.968 -19.999  0.00  0.00    -0.204 F 
ATOM      2  C   UNL     1      35.348 -22.025 -17.857  0.00  0.00    +0.059 C 
ATOM      3  C   UNL     1      36.479 -21.413 -18.405  0.00  0.00    +0.045 C 
ATOM      4  C   UNL     1      34.088 -21.758 -18.403  0.00  0.00    +0.015 C 
ATOM      5  C   UNL     1      35.095 -20.280 -20.028  0.00  0.00    +0.029 C 
ATOM      6  C   UNL     1      36.354 -20.543 -19.488  0.00  0.00    +0.141 C 
ATOM      7  C   UNL     1      33.962 -20.888 -19.486  0.00  0.00    +0.004 C 
ENDROOT
BRANCH   2  10
ATOM      8  O   UNL     1      35.142 -24.613 -15.304  0.00  0.00    -0.434 OA
ATOM      9  O   UNL     1      33.730 -24.479 -17.074  0.00  0.00    -0.226 OA
ATOM     10  N   UNL     1      35.476 -22.913 -16.753  0.00  0.00    -0.221 N 
ATOM     11  C   UNL     1      36.389 -24.010 -14.930  0.00  0.00    +0.221 C 
ATOM     12  C   UNL     1      36.410 -22.696 -15.682  0.00  0.00    +0.148 C 
ATOM     13  C   UNL     1      34.693 -24.030 -16.468  0.00  0.00    +0.409 C 
BRANCH  11  14
ATOM     14  C   UNL     1      37.524 -24.945 -15.325  0.00  0.00    +0.199 C 
BRANCH  14  15
ATOM     15  O   UNL     1      38.712 -24.508 -14.690  0.00  0.00    -0.269 OA
BRANCH  15  16
ATOM     16  P   UNL     1      39.903 -25.580 -14.457  0.00  0.00    +0.473 P 
ATOM     17  O   UNL     1      40.993 -25.126 -13.530  0.00  0.00    -0.227 OA
BRANCH  16  18
ATOM     18  O   UNL     1      40.382 -25.953 -15.956  0.00  0.00    -0.303 OA
ATOM     19  H   UNL     1      39.800 -26.638 -16.321  0.00  0.00    +0.222 HD
ENDBRANCH  16  18
BRANCH  16  20
ATOM     20  O   UNL     1      39.108 -26.906 -13.981  0.00  0.00    -0.303 OA
ATOM     21  H   UNL     1      38.330 -26.647 -13.464  0.00  0.00    +0.222 HD
ENDBRANCH  16  20
ENDBRANCH  15  16
ENDBRANCH  14  15
ENDBRANCH  11  14
ENDBRANCH   2  10
BRANCH   5  23
ATOM     22  N   UNL     1      34.849 -17.111 -21.975  0.00  0.00    -0.234 NA
ATOM     23  C   UNL     1      34.959 -19.379 -21.153  0.00  0.00    +0.021 C 
ATOM     24  C   UNL     1      34.809 -19.866 -22.444  0.00  0.00    +0.004 C 
ATOM     25  C   UNL     1      34.972 -18.007 -20.971  0.00  0.00    +0.100 C 
ATOM     26  C   UNL     1      34.679 -18.976 -23.504  0.00  0.00    +0.029 C 
ATOM     27  C   UNL     1      34.705 -17.620 -23.219  0.00  0.00    +0.146 C 
BRANCH  27  32
ATOM     28  N   UNL     1      33.922 -15.500 -24.136  0.00  0.00    -0.105 NA
ATOM     29  N   UNL     1      34.097 -15.006 -25.369  0.00  0.00    -0.113 N 
ATOM     30  N   UNL     1      35.110 -16.850 -25.511  0.00  0.00    -0.085 NA
ATOM     31  N   UNL     1      34.796 -15.772 -26.218  0.00  0.00    -0.018 NA
ATOM     32  C   UNL     1      34.574 -16.656 -24.274  0.00  0.00    +0.092 C 
ATOM     33  C   UNL     1      33.566 -13.726 -25.761  0.00  0.00    +0.163 C 
ENDBRANCH  27  32
ENDBRANCH   5  23
TORSDOF 8
ENDMDL
MODEL 8
REMARK VINA RESULT:      -9.9      6.247      9.509
REMARK  Name = 11476460
REMARK  8 active torsions:
REMARK  status: ('A' for Active; 'I' for Inactive)
REMARK    1  A    between atoms: C_2  and  N_10
REMARK    2  A    between atoms: C_5  and  C_23
REMARK    3  A    between atoms: C_11  and  C_14
REMARK    4  A    between atoms: C_14  and  O_15
REMARK    5  A    between atoms: O_15  and  P_16
REMARK    6  A    between atoms: P_16  and  O_18
REMARK    7  A    between atoms: P_16  and  O_20
REMARK    8  A    between atoms: C_27  and  C_32
REMARK                            x       y       z     vdW  Elec       q    Type
REMARK                         _______ _______ _______ _____ _____    ______ ____
ROOT
ATOM      1  F   UNL     1      33.721 -14.219 -19.868  0.00  0.00    -0.204 F 
ATOM      2  C   UNL     1      35.010 -17.048 -21.761  0.00  0.00    +0.059 C 
ATOM      3  C   UNL     1      34.566 -16.264 -20.691  0.00  0.00    +0.045 C 
ATOM      4  C   UNL     1      35.023 -16.508 -23.051  0.00  0.00    +0.015 C 
ATOM      5  C   UNL     1      34.157 -14.420 -22.197  0.00  0.00    +0.029 C 
ATOM      6  C   UNL     1      34.141 -14.953 -20.908  0.00  0.00    +0.141 C 
ATOM      7  C   UNL     1      34.598 -15.197 -23.268  0.00  0.00    +0.004 C 
ENDROOT
BRANCH   2  10
ATOM      8  O   UNL     1      36.740 -20.196 -21.170  0.00  0.00    -0.434 OA
ATOM      9  O   UNL     1      37.794 -18.195 -21.335  0.00  0.00    -0.226 OA
ATOM     10  N   UNL     1      35.444 -18.385 -21.539  0.00  0.00    -0.221 N 
ATOM     11  C   UNL     1      35.384 -20.640 -21.021  0.00  0.00    +0.221 C 
ATOM     12  C   UNL     1      34.555 -19.514 -21.600  0.00  0.00    +0.148 C 
ATOM     13  C   UNL     1      36.749 -18.830 -21.342  0.00  0.00    +0.409 C 
BRANCH  11  14
ATOM     14  C   UNL     1      35.108 -20.888 -19.544  0.00  0.00    +0.199 C 
BRANCH  14  15
ATOM     15  O   UNL     1      33.844 -21.515 -19.418  0.00  0.00    -0.269 OA
BRANCH  15  16
ATOM     16  P   UNL     1      33.686 -22.730 -18.359  0.00  0.00    +0.473 P 
ATOM     17  O   UNL     1      32.396 -22.739 -17.592  0.00  0.00    -0.227 OA
BRANCH  16  18
ATOM     18  O   UNL     1      35.025 -22.630 -17.458  0.00  0.00    -0.303 OA
ATOM     19  H   UNL     1      35.513 -23.468 -17.509  0.00  0.00    +0.222 HD
ENDBRANCH  16  18
BRANCH  16  20
ATOM     20  O   UNL     1      33.949 -24.040 -19.270  0.00  0.00    -0.303 OA
ATOM     21  H   UNL     1      33.753 -24.837 -18.753  0.00  0.00    +0.222 HD
ENDBRANCH  16  20
ENDBRANCH  15  16
ENDBRANCH  14  15
ENDBRANCH  11  14
ENDBRANCH   2  10
BRANCH   5  23
ATOM     22  N   UNL     1      32.290 -11.220 -21.793  0.00  0.00    -0.234 NA
ATOM     23  C   UNL     1      33.718 -13.060 -22.428  0.00  0.00    +0.021 C 
ATOM     24  C   UNL     1      34.259 -12.300 -23.457  0.00  0.00    +0.004 C 
ATOM     25  C   UNL     1      32.746 -12.481 -21.631  0.00  0.00    +0.100 C 
ATOM     26  C   UNL     1      33.816 -10.997 -23.655  0.00  0.00    +0.029 C 
ATOM     27  C   UNL     1      32.838 -10.508 -22.803  0.00  0.00    +0.146 C 
BRANCH  27  32
ATOM     28  N   UNL     1      33.111  -8.142 -23.325  0.00  0.00    -0.105 NA
ATOM     29  N   UNL     1      32.185  -7.172 -23.321  0.00  0.00    -0.113 N 
ATOM     30  N   UNL     1      31.037  -8.847 -22.752  0.00  0.00    -0.085 NA
ATOM     31  N   UNL     1      30.942  -7.544 -22.988  0.00  0.00    -0.018 NA
ATOM     32  C   UNL     1      32.343  -9.171 -22.962  0.00  0.00    +0.092 C 
ATOM     33  C   UNL     1      32.507  -5.809 -23.656  0.00  0.00    +0.163 C 
ENDBRANCH  27  32
ENDBRANCH   5  23
TORSDOF 8
ENDMDL
MODEL 9
REMARK VINA RESULT:      -9.7      5.574      6.432
REMARK  Name = 11476460
REMARK  8 active torsions:
REMARK  status: ('A' for Active; 'I' for Inactive)
REMARK    1  A    between atoms: C_2  and  N_10
REMARK    2  A    between atoms: C_5  and  C_23
REMARK    3  A    between atoms: C_11  and  C_14
REMARK    4  A    between atoms: C_14  and  O_15
REMARK    5  A    between atoms: O_15  and  P_16
REMARK    6  A    between atoms: P_16  and  O_18
REMARK    7  A    between atoms: P_16  and  O_20
REMARK    8  A    between atoms: C_27  and  C_32
REMARK                            x       y       z     vdW  Elec       q    Type
REMARK                         _______ _______ _______ _____ _____    ______ ____
ROOT
ATOM      1  F   UNL     1      34.045 -23.381 -16.198  0.00  0.00    -0.204 F 
ATOM      2  C   UNL     1      35.442 -24.301 -12.965  0.00  0.00    +0.059 C 
ATOM      3  C   UNL     1      35.347 -23.994 -14.326  0.00  0.00    +0.045 C 
ATOM      4  C   UNL     1      34.289 -24.281 -12.173  0.00  0.00    +0.015 C 
ATOM      5  C   UNL     1      32.967 -23.653 -14.096  0.00  0.00    +0.029 C 
ATOM      6  C   UNL     1      34.113 -23.671 -14.890  0.00  0.00    +0.141 C 
ATOM      7  C   UNL     1      33.055 -23.958 -12.737  0.00  0.00    +0.004 C 
ENDROOT
BRANCH   2  10
ATOM      8  O   UNL     1      38.472 -25.786 -11.598  0.00  0.00    -0.434 OA
ATOM      9  O   UNL     1      36.745 -26.997 -12.433  0.00  0.00    -0.226 OA
ATOM     10  N   UNL     1      36.701 -24.630 -12.390  0.00  0.00    -0.221 N 
ATOM     11  C   UNL     1      38.872 -24.408 -11.618  0.00  0.00    +0.221 C 
ATOM     12  C   UNL     1      37.580 -23.646 -11.819  0.00  0.00    +0.148 C 
ATOM     13  C   UNL     1      37.233 -25.902 -12.187  0.00  0.00    +0.409 C 
BRANCH  11  14
ATOM     14  C   UNL     1      39.871 -24.203 -12.749  0.00  0.00    +0.199 C 
BRANCH  14  15
ATOM     15  O   UNL     1      39.384 -24.856 -13.908  0.00  0.00    -0.269 OA
BRANCH  15  16
ATOM     16  P   UNL     1      40.133 -26.202 -14.408  0.00  0.00    +0.473 P 
ATOM     17  O   UNL     1      41.353 -26.580 -13.620  0.00  0.00    -0.227 OA
BRANCH  16  18
ATOM     18  O   UNL     1      40.382 -25.940 -15.984  0.00  0.00    -0.303 OA
ATOM     19  H   UNL     1      40.510 -26.789 -16.437  0.00  0.00    +0.222 HD
ENDBRANCH  16  18
BRANCH  16  20
ATOM     20  O   UNL     1      38.945 -27.301 -14.398  0.00  0.00    -0.303 OA
ATOM     21  H   UNL     1      38.145 -26.908 -14.016  0.00  0.00    +0.222 HD
ENDBRANCH  16  20
ENDBRANCH  15  16
ENDBRANCH  14  15
ENDBRANCH  11  14
ENDBRANCH   2  10
BRANCH   5  23
ATOM     22  N   UNL     1      29.336 -22.851 -14.358  0.00  0.00    -0.234 NA
ATOM     23  C   UNL     1      31.684 -23.320 -14.676  0.00  0.00    +0.021 C 
ATOM     24  C   UNL     1      31.542 -23.154 -16.048  0.00  0.00    +0.004 C 
ATOM     25  C   UNL     1      30.563 -23.160 -13.882  0.00  0.00    +0.100 C 
ATOM     26  C   UNL     1      30.296 -22.836 -16.577  0.00  0.00    +0.029 C 
ATOM     27  C   UNL     1      29.235 -22.696 -15.697  0.00  0.00    +0.146 C 
BRANCH  27  32
ATOM     28  N   UNL     1      27.679 -22.042 -17.458  0.00  0.00    -0.105 NA
ATOM     29  N   UNL     1      26.356 -21.843 -17.374  0.00  0.00    -0.113 N 
ATOM     30  N   UNL     1      26.825 -22.370 -15.386  0.00  0.00    -0.085 NA
ATOM     31  N   UNL     1      25.807 -22.026 -16.165  0.00  0.00    -0.018 NA
ATOM     32  C   UNL     1      27.926 -22.370 -16.188  0.00  0.00    +0.092 C 
ATOM     33  C   UNL     1      25.569 -21.455 -18.515  0.00  0.00    +0.163 C 
ENDBRANCH  27  32
ENDBRANCH   5  23
TORSDOF 8
ENDMDL
