MODEL 1
REMARK VINA RESULT:     -10.7      0.000      0.000
REMARK  Name = 444746
REMARK  6 active torsions:
REMARK  status: ('A' for Active; 'I' for Inactive)
REMARK    1  A    between atoms: C_1  and  C_9
REMARK    2  A    between atoms: C_1  and  N_13
REMARK    3  A    between atoms: C_1  and  C_27
REMARK    4  A    between atoms: C_4  and  O_10
REMARK    5  A    between atoms: C_14  and  C_18
REMARK    6  A    between atoms: C_27  and  C_29
REMARK                            x       y       z     vdW  Elec       q    Type
REMARK                         _______ _______ _______ _____ _____    ______ ____
ROOT
ATOM      1  C   UNL     1      33.943 -23.389 -16.463  0.00  0.00    +0.153 C 
ENDROOT
BRANCH   1   9
ATOM      2  O   UNL     1      31.900 -22.355 -17.075  0.00  0.00    -0.273 OA
ATOM      3  N   UNL     1      31.761 -24.097 -15.546  0.00  0.00    -0.278 N 
ATOM      4  C   UNL     1      30.440 -24.965 -13.123  0.00  0.00    +0.114 C 
ATOM      5  C   UNL     1      29.844 -23.873 -14.014  0.00  0.00    +0.051 C 
ATOM      6  C   UNL     1      31.962 -25.006 -13.263  0.00  0.00    +0.051 C 
ATOM      7  C   UNL     1      30.299 -24.034 -15.461  0.00  0.00    +0.096 C 
ATOM      8  C   UNL     1      32.381 -25.145 -14.724  0.00  0.00    +0.096 C 
ATOM      9  C   UNL     1      32.444 -23.228 -16.395  0.00  0.00    +0.244 C 
BRANCH   4  10
ATOM     10  O   UNL     1      30.112 -24.710 -11.763  0.00  0.00    -0.384 OA
ATOM     11  H   UNL     1      29.477 -23.977 -11.716  0.00  0.00    +0.210 HD
ENDBRANCH   4  10
ENDBRANCH   1   9
BRANCH   1  13
ATOM     12  O   UNL     1      33.973 -23.643 -19.271  0.00  0.00    -0.269 OA
ATOM     13  N   UNL     1      34.347 -22.374 -17.392  0.00  0.00    -0.294 N 
ATOM     14  C   UNL     1      34.335 -22.574 -18.777  0.00  0.00    +0.260 C 
ATOM     15  H   UNL     1      34.645 -21.503 -17.043  0.00  0.00    +0.150 HD
BRANCH  14  18
ATOM     16 CL   UNL     1      35.428 -16.492 -23.315  0.00  0.00    -0.082 Cl
ATOM     17  N   UNL     1      36.032 -21.037 -19.694  0.00  0.00    -0.309 N 
ATOM     18  C   UNL     1      34.747 -21.429 -19.599  0.00  0.00    +0.102 C 
ATOM     19  C   UNL     1      33.948 -20.635 -20.345  0.00  0.00    +0.020 C 
ATOM     20  C   UNL     1      34.799 -19.670 -20.955  0.00  0.00    +0.016 C 
ATOM     21  C   UNL     1      36.101 -19.945 -20.530  0.00  0.00    +0.048 C 
ATOM     22  C   UNL     1      34.586 -18.586 -21.830  0.00  0.00    +0.013 C 
ATOM     23  C   UNL     1      37.204 -19.188 -20.938  0.00  0.00    +0.015 C 
ATOM     24  C   UNL     1      35.680 -17.818 -22.246  0.00  0.00    +0.058 C 
ATOM     25  C   UNL     1      36.967 -18.117 -21.806  0.00  0.00    +0.013 C 
ATOM     26  H   UNL     1      36.796 -21.461 -19.242  0.00  0.00    +0.152 HD
ENDBRANCH  14  18
ENDBRANCH   1  13
BRANCH   1  27
ATOM     27  C   UNL     1      34.553 -23.216 -15.078  0.00  0.00    +0.055 C 
BRANCH  27  29
ATOM     28  F   UNL     1      39.379 -26.045 -14.524  0.00  0.00    -0.204 F 
ATOM     29  C   UNL     1      35.848 -23.975 -14.929  0.00  0.00    -0.020 C 
ATOM     30  C   UNL     1      37.051 -23.292 -15.016  0.00  0.00    -0.002 C 
ATOM     31  C   UNL     1      35.813 -25.344 -14.710  0.00  0.00    -0.002 C 
ATOM     32  C   UNL     1      38.248 -23.994 -14.879  0.00  0.00    +0.029 C 
ATOM     33  C   UNL     1      37.010 -26.046 -14.572  0.00  0.00    +0.029 C 
ATOM     34  C   UNL     1      38.228 -25.371 -14.658  0.00  0.00    +0.140 C 
ENDBRANCH  27  29
ENDBRANCH   1  27
TORSDOF 6
ENDMDL
MODEL 2
REMARK VINA RESULT:     -10.7      2.912      4.815
REMARK  Name = 444746
REMARK  6 active torsions:
REMARK  status: ('A' for Active; 'I' for Inactive)
REMARK    1  A    between atoms: C_1  and  C_9
REMARK    2  A    between atoms: C_1  and  N_13
REMARK    3  A    between atoms: C_1  and  C_27
REMARK    4  A    between atoms: C_4  and  O_10
REMARK    5  A    between atoms: C_14  and  C_18
REMARK    6  A    between atoms: C_27  and  C_29
REMARK                            x       y       z     vdW  Elec       q    Type
REMARK                         _______ _______ _______ _____ _____    ______ ____
ROOT
ATOM      1  C   UNL     1      35.248 -22.697 -15.491  0.00  0.00    +0.153 C 
ENDROOT
BRANCH   1   9
ATOM      2  O   UNL     1      37.475 -23.219 -16.111  0.00  0.00    -0.273 OA
ATOM      3  N   UNL     1      36.896 -23.618 -13.897  0.00  0.00    -0.278 N 
ATOM      4  C   UNL     1      37.209 -25.487 -11.711  0.00  0.00    +0.114 C 
ATOM      5  C   UNL     1      38.187 -25.458 -12.888  0.00  0.00    +0.051 C 
ATOM      6  C   UNL     1      35.832 -24.981 -12.141  0.00  0.00    +0.051 C 
ATOM      7  C   UNL     1      38.239 -24.074 -13.527  0.00  0.00    +0.096 C 
ATOM      8  C   UNL     1      35.924 -23.606 -12.795  0.00  0.00    +0.096 C 
ATOM      9  C   UNL     1      36.641 -23.199 -15.202  0.00  0.00    +0.244 C 
BRANCH   4  10
ATOM     10  O   UNL     1      37.078 -26.817 -11.226  0.00  0.00    -0.384 OA
ATOM     11  H   UNL     1      37.644 -27.409 -11.747  0.00  0.00    +0.210 HD
ENDBRANCH   4  10
ENDBRANCH   1   9
BRANCH   1  13
ATOM     12  O   UNL     1      34.580 -23.479 -18.116  0.00  0.00    -0.269 OA
ATOM     13  N   UNL     1      35.416 -21.900 -16.670  0.00  0.00    -0.294 N 
ATOM     14  C   UNL     1      35.061 -22.358 -17.944  0.00  0.00    +0.260 C 
ATOM     15  H   UNL     1      35.797 -20.997 -16.582  0.00  0.00    +0.150 HD
BRANCH  14  18
ATOM     16 CL   UNL     1      35.069 -17.600 -23.957  0.00  0.00    -0.082 Cl
ATOM     17  N   UNL     1      36.449 -20.818 -19.280  0.00  0.00    -0.309 N 
ATOM     18  C   UNL     1      35.264 -21.414 -19.051  0.00  0.00    +0.102 C 
ATOM     19  C   UNL     1      34.346 -21.016 -19.959  0.00  0.00    +0.020 C 
ATOM     20  C   UNL     1      35.008 -20.101 -20.824  0.00  0.00    +0.016 C 
ATOM     21  C   UNL     1      36.326 -19.994 -20.376  0.00  0.00    +0.048 C 
ATOM     22  C   UNL     1      34.612 -19.350 -21.949  0.00  0.00    +0.013 C 
ATOM     23  C   UNL     1      37.272 -19.171 -20.999  0.00  0.00    +0.015 C 
ATOM     24  C   UNL     1      35.546 -18.521 -22.582  0.00  0.00    +0.058 C 
ATOM     25  C   UNL     1      36.854 -18.436 -22.112  0.00  0.00    +0.013 C 
ATOM     26  H   UNL     1      37.269 -20.950 -18.751  0.00  0.00    +0.152 HD
ENDBRANCH  14  18
ENDBRANCH   1  13
BRANCH   1  27
ATOM     27  C   UNL     1      34.297 -23.871 -15.687  0.00  0.00    +0.055 C 
BRANCH  27  29
ATOM     28  F   UNL     1      29.001 -22.555 -14.340  0.00  0.00    -0.204 F 
ATOM     29  C   UNL     1      32.876 -23.517 -15.325  0.00  0.00    -0.020 C 
ATOM     30  C   UNL     1      32.486 -23.544 -13.996  0.00  0.00    -0.002 C 
ATOM     31  C   UNL     1      31.984 -23.173 -16.330  0.00  0.00    -0.002 C 
ATOM     32  C   UNL     1      31.171 -23.219 -13.662  0.00  0.00    +0.029 C 
ATOM     33  C   UNL     1      30.670 -22.846 -15.996  0.00  0.00    +0.029 C 
ATOM     34  C   UNL     1      30.263 -22.870 -14.662  0.00  0.00    +0.140 C 
ENDBRANCH  27  29
ENDBRANCH   1  27
TORSDOF 6
ENDMDL
MODEL 3
REMARK VINA RESULT:      -9.7     11.908     15.805
REMARK  Name = 444746
REMARK  6 active torsions:
REMARK  status: ('A' for Active; 'I' for Inactive)
REMARK    1  A    between atoms: C_1  and  C_9
REMARK    2  A    between atoms: C_1  and  N_13
REMARK    3  A    between atoms: C_1  and  C_27
REMARK    4  A    between atoms: C_4  and  O_10
REMARK    5  A    between atoms: C_14  and  C_18
REMARK    6  A    between atoms: C_27  and  C_29
REMARK                            x       y       z     vdW  Elec       q    Type
REMARK                         _______ _______ _______ _____ _____    ______ ____
ROOT
ATOM      1  C   UNL     1      32.804  -8.053 -22.900  0.00  0.00    +0.153 C 
ENDROOT
BRANCH   1   9
ATOM      2  O   UNL     1      33.374  -7.222 -20.756  0.00  0.00    -0.273 OA
ATOM      3  N   UNL     1      31.989  -9.086 -20.809  0.00  0.00    -0.278 N 
ATOM      4  C   UNL     1      31.461 -11.630 -19.537  0.00  0.00    +0.114 C 
ATOM      5  C   UNL     1      32.242 -10.524 -18.825  0.00  0.00    +0.051 C 
ATOM      6  C   UNL     1      31.617 -11.511 -21.053  0.00  0.00    +0.051 C 
ATOM      7  C   UNL     1      31.852  -9.147 -19.352  0.00  0.00    +0.096 C 
ATOM      8  C   UNL     1      31.239 -10.116 -21.542  0.00  0.00    +0.096 C 
ATOM      9  C   UNL     1      32.752  -8.076 -21.393  0.00  0.00    +0.244 C 
BRANCH   4  10
ATOM     10  O   UNL     1      31.944 -12.902 -19.125  0.00  0.00    -0.384 OA
ATOM     11  H   UNL     1      32.578 -12.788 -18.400  0.00  0.00    +0.210 HD
ENDBRANCH   4  10
ENDBRANCH   1   9
BRANCH   1  13
ATOM     12  O   UNL     1      35.210  -9.303 -23.671  0.00  0.00    -0.269 OA
ATOM     13  N   UNL     1      32.954  -9.435 -23.252  0.00  0.00    -0.294 N 
ATOM     14  C   UNL     1      34.185  -9.986 -23.626  0.00  0.00    +0.260 C 
ATOM     15  H   UNL     1      32.162 -10.019 -23.230  0.00  0.00    +0.150 HD
BRANCH  14  18
ATOM     16 CL   UNL     1      34.568 -17.623 -24.181  0.00  0.00    -0.082 Cl
ATOM     17  N   UNL     1      33.780 -11.910 -25.114  0.00  0.00    -0.309 N 
ATOM     18  C   UNL     1      34.186 -11.424 -23.926  0.00  0.00    +0.102 C 
ATOM     19  C   UNL     1      34.570 -12.425 -23.105  0.00  0.00    +0.020 C 
ATOM     20  C   UNL     1      34.391 -13.633 -23.836  0.00  0.00    +0.016 C 
ATOM     21  C   UNL     1      33.894 -13.282 -25.093  0.00  0.00    +0.048 C 
ATOM     22  C   UNL     1      34.603 -14.996 -23.548  0.00  0.00    +0.013 C 
ATOM     23  C   UNL     1      33.599 -14.229 -26.080  0.00  0.00    +0.015 C 
ATOM     24  C   UNL     1      34.312 -15.955 -24.525  0.00  0.00    +0.058 C 
ATOM     25  C   UNL     1      33.818 -15.574 -25.771  0.00  0.00    +0.013 C 
ATOM     26  H   UNL     1      33.456 -11.374 -25.873  0.00  0.00    +0.152 HD
ENDBRANCH  14  18
ENDBRANCH   1  13
BRANCH   1  27
ATOM     27  C   UNL     1      31.535  -7.424 -23.461  0.00  0.00    +0.055 C 
BRANCH  27  29
ATOM     28  F   UNL     1      32.057  -1.872 -24.169  0.00  0.00    -0.204 F 
ATOM     29  C   UNL     1      31.675  -5.934 -23.650  0.00  0.00    -0.020 C 
ATOM     30  C   UNL     1      30.913  -5.075 -22.876  0.00  0.00    -0.002 C 
ATOM     31  C   UNL     1      32.564  -5.450 -24.598  0.00  0.00    -0.002 C 
ATOM     32  C   UNL     1      31.041  -3.697 -23.052  0.00  0.00    +0.029 C 
ATOM     33  C   UNL     1      32.694  -4.072 -24.774  0.00  0.00    +0.029 C 
ATOM     34  C   UNL     1      31.932  -3.195 -24.001  0.00  0.00    +0.140 C 
ENDBRANCH  27  29
ENDBRANCH   1  27
TORSDOF 6
ENDMDL
MODEL 4
REMARK VINA RESULT:      -9.7      3.071      5.118
REMARK  Name = 444746
REMARK  6 active torsions:
REMARK  status: ('A' for Active; 'I' for Inactive)
REMARK    1  A    between atoms: C_1  and  C_9
REMARK    2  A    between atoms: C_1  and  N_13
REMARK    3  A    between atoms: C_1  and  C_27
REMARK    4  A    between atoms: C_4  and  O_10
REMARK    5  A    between atoms: C_14  and  C_18
REMARK    6  A    between atoms: C_27  and  C_29
REMARK                            x       y       z     vdW  Elec       q    Type
REMARK                         _______ _______ _______ _____ _____    ______ ____
ROOT
ATOM      1  C   UNL     1      34.197 -23.687 -15.385  0.00  0.00    +0.153 C 
ENDROOT
BRANCH   1   9
ATOM      2  O   UNL     1      35.471 -25.607 -15.941  0.00  0.00    -0.273 OA
ATOM      3  N   UNL     1      36.382 -24.187 -14.346  0.00  0.00    -0.278 N 
ATOM      4  C   UNL     1      37.820 -24.125 -11.836  0.00  0.00    +0.114 C 
ATOM      5  C   UNL     1      37.833 -25.361 -12.738  0.00  0.00    +0.051 C 
ATOM      6  C   UNL     1      36.538 -23.319 -12.044  0.00  0.00    +0.051 C 
ATOM      7  C   UNL     1      37.605 -24.980 -14.197  0.00  0.00    +0.096 C 
ATOM      8  C   UNL     1      36.330 -22.975 -13.516  0.00  0.00    +0.096 C 
ATOM      9  C   UNL     1      35.404 -24.584 -15.256  0.00  0.00    +0.244 C 
BRANCH   4  10
ATOM     10  O   UNL     1      37.896 -24.522 -10.473  0.00  0.00    -0.384 OA
ATOM     11  H   UNL     1      38.811 -24.431 -10.161  0.00  0.00    +0.210 HD
ENDBRANCH   4  10
ENDBRANCH   1   9
BRANCH   1  13
ATOM     12  O   UNL     1      33.567 -23.999 -18.115  0.00  0.00    -0.269 OA
ATOM     13  N   UNL     1      34.562 -22.784 -16.437  0.00  0.00    -0.294 N 
ATOM     14  C   UNL     1      34.212 -23.007 -17.774  0.00  0.00    +0.260 C 
ATOM     15  H   UNL     1      35.078 -21.977 -16.212  0.00  0.00    +0.150 HD
BRANCH  14  18
ATOM     16 CL   UNL     1      35.340 -17.548 -23.038  0.00  0.00    -0.082 Cl
ATOM     17  N   UNL     1      35.916 -21.599 -18.869  0.00  0.00    -0.309 N 
ATOM     18  C   UNL     1      34.631 -21.975 -18.733  0.00  0.00    +0.102 C 
ATOM     19  C   UNL     1      33.837 -21.281 -19.577  0.00  0.00    +0.020 C 
ATOM     20  C   UNL     1      34.692 -20.402 -20.299  0.00  0.00    +0.016 C 
ATOM     21  C   UNL     1      35.992 -20.621 -19.836  0.00  0.00    +0.048 C 
ATOM     22  C   UNL     1      34.486 -19.437 -21.305  0.00  0.00    +0.013 C 
ATOM     23  C   UNL     1      37.099 -19.923 -20.330  0.00  0.00    +0.015 C 
ATOM     24  C   UNL     1      35.584 -18.729 -21.809  0.00  0.00    +0.058 C 
ATOM     25  C   UNL     1      36.868 -18.971 -21.327  0.00  0.00    +0.013 C 
ATOM     26  H   UNL     1      36.678 -21.964 -18.362  0.00  0.00    +0.152 HD
ENDBRANCH  14  18
ENDBRANCH   1  13
BRANCH   1  27
ATOM     27  C   UNL     1      32.959 -24.515 -15.703  0.00  0.00    +0.055 C 
BRANCH  27  29
ATOM     28  F   UNL     1      28.208 -21.811 -14.393  0.00  0.00    -0.204 F 
ATOM     29  C   UNL     1      31.684 -23.789 -15.352  0.00  0.00    -0.020 C 
ATOM     30  C   UNL     1      31.576 -23.161 -14.121  0.00  0.00    -0.002 C 
ATOM     31  C   UNL     1      30.642 -23.763 -16.266  0.00  0.00    -0.002 C 
ATOM     32  C   UNL     1      30.397 -22.491 -13.795  0.00  0.00    +0.029 C 
ATOM     33  C   UNL     1      29.463 -23.092 -15.941  0.00  0.00    +0.029 C 
ATOM     34  C   UNL     1      29.340 -22.457 -14.705  0.00  0.00    +0.140 C 
ENDBRANCH  27  29
ENDBRANCH   1  27
TORSDOF 6
ENDMDL
MODEL 5
REMARK VINA RESULT:      -9.3      1.762      2.987
REMARK  Name = 444746
REMARK  6 active torsions:
REMARK  status: ('A' for Active; 'I' for Inactive)
REMARK    1  A    between atoms: C_1  and  C_9
REMARK    2  A    between atoms: C_1  and  N_13
REMARK    3  A    between atoms: C_1  and  C_27
REMARK    4  A    between atoms: C_4  and  O_10
REMARK    5  A    between atoms: C_14  and  C_18
REMARK    6  A    between atoms: C_27  and  C_29
REMARK                            x       y       z     vdW  Elec       q    Type
REMARK                         _______ _______ _______ _____ _____    ______ ____
ROOT
ATOM      1  C   UNL     1      32.996 -23.913 -14.282  0.00  0.00    +0.153 C 
ENDROOT
BRANCH   1   9
ATOM      2  O   UNL     1      31.507 -23.144 -12.607  0.00  0.00    -0.273 OA
ATOM      3  N   UNL     1      30.793 -22.924 -14.806  0.00  0.00    -0.278 N 
ATOM      4  C   UNL     1      28.493 -23.182 -16.541  0.00  0.00    +0.114 C 
ATOM      5  C   UNL     1      28.341 -23.014 -15.028  0.00  0.00    +0.051 C 
ATOM      6  C   UNL     1      29.829 -23.844 -16.879  0.00  0.00    +0.051 C 
ATOM      7  C   UNL     1      29.534 -22.273 -14.434  0.00  0.00    +0.096 C 
ATOM      8  C   UNL     1      30.997 -23.089 -16.251  0.00  0.00    +0.096 C 
ATOM      9  C   UNL     1      31.702 -23.292 -13.815  0.00  0.00    +0.244 C 
BRANCH   4  10
ATOM     10  O   UNL     1      27.439 -23.993 -17.044  0.00  0.00    -0.384 OA
ATOM     11  H   UNL     1      27.804 -24.661 -17.646  0.00  0.00    +0.210 HD
ENDBRANCH   4  10
ENDBRANCH   1   9
BRANCH   1  13
ATOM     12  O   UNL     1      34.060 -24.873 -16.710  0.00  0.00    -0.269 OA
ATOM     13  N   UNL     1      33.364 -23.110 -15.411  0.00  0.00    -0.294 N 
ATOM     14  C   UNL     1      33.888 -23.660 -16.586  0.00  0.00    +0.260 C 
ATOM     15  H   UNL     1      33.245 -22.134 -15.358  0.00  0.00    +0.150 HD
BRANCH  14  18
ATOM     16 CL   UNL     1      36.500 -18.867 -21.971  0.00  0.00    -0.082 Cl
ATOM     17  N   UNL     1      33.222 -22.139 -18.410  0.00  0.00    -0.309 N 
ATOM     18  C   UNL     1      34.188 -22.711 -17.667  0.00  0.00    +0.102 C 
ATOM     19  C   UNL     1      35.409 -22.289 -18.063  0.00  0.00    +0.020 C 
ATOM     20  C   UNL     1      35.191 -21.382 -19.138  0.00  0.00    +0.016 C 
ATOM     21  C   UNL     1      33.810 -21.305 -19.336  0.00  0.00    +0.048 C 
ATOM     22  C   UNL     1      36.037 -20.617 -19.965  0.00  0.00    +0.013 C 
ATOM     23  C   UNL     1      33.231 -20.499 -20.321  0.00  0.00    +0.015 C 
ATOM     24  C   UNL     1      35.473 -19.806 -20.956  0.00  0.00    +0.058 C 
ATOM     25  C   UNL     1      34.092 -19.749 -21.129  0.00  0.00    +0.013 C 
ATOM     26  H   UNL     1      32.254 -22.290 -18.309  0.00  0.00    +0.152 HD
ENDBRANCH  14  18
ENDBRANCH   1  13
BRANCH   1  27
ATOM     27  C   UNL     1      34.026 -23.886 -13.161  0.00  0.00    +0.055 C 
BRANCH  27  29
ATOM     28  F   UNL     1      39.257 -24.644 -15.074  0.00  0.00    -0.204 F 
ATOM     29  C   UNL     1      35.430 -24.090 -13.675  0.00  0.00    -0.020 C 
ATOM     30  C   UNL     1      35.868 -25.371 -13.966  0.00  0.00    -0.002 C 
ATOM     31  C   UNL     1      36.258 -22.990 -13.846  0.00  0.00    -0.002 C 
ATOM     32  C   UNL     1      37.167 -25.560 -14.440  0.00  0.00    +0.029 C 
ATOM     33  C   UNL     1      37.556 -23.178 -14.320  0.00  0.00    +0.029 C 
ATOM     34  C   UNL     1      38.011 -24.463 -14.617  0.00  0.00    +0.140 C 
ENDBRANCH  27  29
ENDBRANCH   1  27
TORSDOF 6
ENDMDL
MODEL 6
REMARK VINA RESULT:      -8.9      4.086      7.168
REMARK  Name = 444746
REMARK  6 active torsions:
REMARK  status: ('A' for Active; 'I' for Inactive)
REMARK    1  A    between atoms: C_1  and  C_9
REMARK    2  A    between atoms: C_1  and  N_13
REMARK    3  A    between atoms: C_1  and  C_27
REMARK    4  A    between atoms: C_4  and  O_10
REMARK    5  A    between atoms: C_14  and  C_18
REMARK    6  A    between atoms: C_27  and  C_29
REMARK                            x       y       z     vdW  Elec       q    Type
REMARK                         _______ _______ _______ _____ _____    ______ ____
ROOT
ATOM      1  C   UNL     1      33.510 -23.167 -16.101  0.00  0.00    +0.153 C 
ENDROOT
BRANCH   1   9
ATOM      2  O   UNL     1      32.986 -24.757 -14.423  0.00  0.00    -0.273 OA
ATOM      3  N   UNL     1      31.221 -23.475 -15.223  0.00  0.00    -0.278 N 
ATOM      4  C   UNL     1      28.438 -23.578 -16.003  0.00  0.00    +0.114 C 
ATOM      5  C   UNL     1      29.056 -24.643 -15.095  0.00  0.00    +0.051 C 
ATOM      6  C   UNL     1      29.500 -22.959 -16.911  0.00  0.00    +0.051 C 
ATOM      7  C   UNL     1      30.243 -24.082 -14.317  0.00  0.00    +0.096 C 
ATOM      8  C   UNL     1      30.681 -22.429 -16.102  0.00  0.00    +0.096 C 
ATOM      9  C   UNL     1      32.556 -23.874 -15.171  0.00  0.00    +0.244 C 
BRANCH   4  10
ATOM     10  O   UNL     1      27.427 -24.164 -16.813  0.00  0.00    -0.384 OA
ATOM     11  H   UNL     1      27.342 -23.660 -17.638  0.00  0.00    +0.210 HD
ENDBRANCH   4  10
ENDBRANCH   1   9
BRANCH   1  13
ATOM     12  O   UNL     1      35.538 -22.013 -14.518  0.00  0.00    -0.269 OA
ATOM     13  N   UNL     1      34.778 -23.764 -15.798  0.00  0.00    -0.294 N 
ATOM     14  C   UNL     1      35.738 -23.128 -15.002  0.00  0.00    +0.260 C 
ATOM     15  H   UNL     1      34.983 -24.655 -16.164  0.00  0.00    +0.150 HD
BRANCH  14  18
ATOM     16 CL   UNL     1      41.612 -27.626 -12.991  0.00  0.00    -0.082 Cl
ATOM     17  N   UNL     1      38.121 -23.614 -15.410  0.00  0.00    -0.309 N 
ATOM     18  C   UNL     1      36.975 -23.880 -14.755  0.00  0.00    +0.102 C 
ATOM     19  C   UNL     1      37.147 -24.899 -13.885  0.00  0.00    +0.020 C 
ATOM     20  C   UNL     1      38.507 -25.302 -14.003  0.00  0.00    +0.016 C 
ATOM     21  C   UNL     1      39.096 -24.480 -14.966  0.00  0.00    +0.048 C 
ATOM     22  C   UNL     1      39.296 -26.290 -13.381  0.00  0.00    +0.013 C 
ATOM     23  C   UNL     1      40.439 -24.596 -15.340  0.00  0.00    +0.015 C 
ATOM     24  C   UNL     1      40.641 -26.420 -13.746  0.00  0.00    +0.058 C 
ATOM     25  C   UNL     1      41.201 -25.585 -14.709  0.00  0.00    +0.013 C 
ATOM     26  H   UNL     1      38.243 -22.915 -16.092  0.00  0.00    +0.152 HD
ENDBRANCH  14  18
ENDBRANCH   1  13
BRANCH   1  27
ATOM     27  C   UNL     1      33.080 -23.369 -17.548  0.00  0.00    +0.055 C 
BRANCH  27  29
ATOM     28  F   UNL     1      35.416 -19.597 -20.999  0.00  0.00    -0.204 F 
ATOM     29  C   UNL     1      33.707 -22.357 -18.474  0.00  0.00    -0.020 C 
ATOM     30  C   UNL     1      32.895 -21.471 -19.163  0.00  0.00    -0.002 C 
ATOM     31  C   UNL     1      35.086 -22.331 -18.620  0.00  0.00    -0.002 C 
ATOM     32  C   UNL     1      33.474 -20.535 -20.021  0.00  0.00    +0.029 C 
ATOM     33  C   UNL     1      35.666 -21.395 -19.477  0.00  0.00    +0.029 C 
ATOM     34  C   UNL     1      34.859 -20.497 -20.178  0.00  0.00    +0.140 C 
ENDBRANCH  27  29
ENDBRANCH   1  27
TORSDOF 6
ENDMDL
MODEL 7
REMARK VINA RESULT:      -8.8      3.975      7.643
REMARK  Name = 444746
REMARK  6 active torsions:
REMARK  status: ('A' for Active; 'I' for Inactive)
REMARK    1  A    between atoms: C_1  and  C_9
REMARK    2  A    between atoms: C_1  and  N_13
REMARK    3  A    between atoms: C_1  and  C_27
REMARK    4  A    between atoms: C_4  and  O_10
REMARK    5  A    between atoms: C_14  and  C_18
REMARK    6  A    between atoms: C_27  and  C_29
REMARK                            x       y       z     vdW  Elec       q    Type
REMARK                         _______ _______ _______ _____ _____    ______ ____
ROOT
ATOM      1  C   UNL     1      36.644 -23.215 -15.976  0.00  0.00    +0.153 C 
ENDROOT
BRANCH   1   9
ATOM      2  O   UNL     1      36.810 -22.354 -13.775  0.00  0.00    -0.273 OA
ATOM      3  N   UNL     1      37.668 -24.484 -14.120  0.00  0.00    -0.278 N 
ATOM      4  C   UNL     1      39.866 -26.243 -13.454  0.00  0.00    +0.114 C 
ATOM      5  C   UNL     1      39.520 -25.029 -12.590  0.00  0.00    +0.051 C 
ATOM      6  C   UNL     1      39.434 -26.015 -14.903  0.00  0.00    +0.051 C 
ATOM      7  C   UNL     1      38.044 -24.666 -12.716  0.00  0.00    +0.096 C 
ATOM      8  C   UNL     1      37.960 -25.633 -14.989  0.00  0.00    +0.096 C 
ATOM      9  C   UNL     1      37.044 -23.305 -14.525  0.00  0.00    +0.244 C 
BRANCH   4  10
ATOM     10  O   UNL     1      41.269 -26.472 -13.425  0.00  0.00    -0.384 OA
ATOM     11  H   UNL     1      41.494 -26.999 -12.642  0.00  0.00    +0.210 HD
ENDBRANCH   4  10
ENDBRANCH   1   9
BRANCH   1  13
ATOM     12  O   UNL     1      34.913 -25.255 -15.087  0.00  0.00    -0.269 OA
ATOM     13  N   UNL     1      35.214 -23.137 -15.926  0.00  0.00    -0.294 N 
ATOM     14  C   UNL     1      34.418 -24.194 -15.470  0.00  0.00    +0.260 C 
ATOM     15  H   UNL     1      34.773 -22.308 -16.223  0.00  0.00    +0.150 HD
BRANCH  14  18
ATOM     16 CL   UNL     1      27.049 -22.182 -16.128  0.00  0.00    -0.082 Cl
ATOM     17  N   UNL     1      32.139 -24.631 -14.635  0.00  0.00    -0.309 N 
ATOM     18  C   UNL     1      32.969 -23.951 -15.448  0.00  0.00    +0.102 C 
ATOM     19  C   UNL     1      32.283 -23.061 -16.198  0.00  0.00    +0.020 C 
ATOM     20  C   UNL     1      30.916 -23.193 -15.825  0.00  0.00    +0.016 C 
ATOM     21  C   UNL     1      30.853 -24.185 -14.843  0.00  0.00    +0.048 C 
ATOM     22  C   UNL     1      29.722 -22.563 -16.229  0.00  0.00    +0.013 C 
ATOM     23  C   UNL     1      29.652 -24.579 -14.243  0.00  0.00    +0.015 C 
ATOM     24  C   UNL     1      28.512 -22.947 -15.639  0.00  0.00    +0.058 C 
ATOM     25  C   UNL     1      28.481 -23.939 -14.661  0.00  0.00    +0.013 C 
ATOM     26  H   UNL     1      32.406 -25.331 -13.997  0.00  0.00    +0.152 HD
ENDBRANCH  14  18
ENDBRANCH   1  13
BRANCH   1  27
ATOM     27  C   UNL     1      37.291 -21.999 -16.625  0.00  0.00    +0.055 C 
BRANCH  27  29
ATOM     28  F   UNL     1      34.626 -20.434 -21.320  0.00  0.00    -0.204 F 
ATOM     29  C   UNL     1      36.576 -21.579 -17.885  0.00  0.00    -0.020 C 
ATOM     30  C   UNL     1      37.211 -20.727 -18.776  0.00  0.00    -0.002 C 
ATOM     31  C   UNL     1      35.296 -22.052 -18.131  0.00  0.00    -0.002 C 
ATOM     32  C   UNL     1      36.549 -20.338 -19.940  0.00  0.00    +0.029 C 
ATOM     33  C   UNL     1      34.634 -21.664 -19.296  0.00  0.00    +0.029 C 
ATOM     34  C   UNL     1      35.261 -20.806 -20.200  0.00  0.00    +0.140 C 
ENDBRANCH  27  29
ENDBRANCH   1  27
TORSDOF 6
ENDMDL
MODEL 8
REMARK VINA RESULT:      -8.6     11.963     16.115
REMARK  Name = 444746
REMARK  6 active torsions:
REMARK  status: ('A' for Active; 'I' for Inactive)
REMARK    1  A    between atoms: C_1  and  C_9
REMARK    2  A    between atoms: C_1  and  N_13
REMARK    3  A    between atoms: C_1  and  C_27
REMARK    4  A    between atoms: C_4  and  O_10
REMARK    5  A    between atoms: C_14  and  C_18
REMARK    6  A    between atoms: C_27  and  C_29
REMARK                            x       y       z     vdW  Elec       q    Type
REMARK                         _______ _______ _______ _____ _____    ______ ____
ROOT
ATOM      1  C   UNL     1      33.580  -7.362 -22.730  0.00  0.00    +0.153 C 
ENDROOT
BRANCH   1   9
ATOM      2  O   UNL     1      33.765  -6.640 -20.481  0.00  0.00    -0.273 OA
ATOM      3  N   UNL     1      32.245  -8.346 -20.899  0.00  0.00    -0.278 N 
ATOM      4  C   UNL     1      31.212 -10.845 -19.872  0.00  0.00    +0.114 C 
ATOM      5  C   UNL     1      31.931  -9.842 -18.967  0.00  0.00    +0.051 C 
ATOM      6  C   UNL     1      31.695 -10.712 -21.317  0.00  0.00    +0.051 C 
ATOM      7  C   UNL     1      31.798  -8.421 -19.506  0.00  0.00    +0.096 C 
ATOM      8  C   UNL     1      31.568  -9.275 -21.814  0.00  0.00    +0.096 C 
ATOM      9  C   UNL     1      33.210  -7.410 -21.269  0.00  0.00    +0.244 C 
BRANCH   4  10
ATOM     10  O   UNL     1      31.469 -12.169 -19.423  0.00  0.00    -0.384 OA
ATOM     11  H   UNL     1      30.648 -12.560 -19.084  0.00  0.00    +0.210 HD
ENDBRANCH   4  10
ENDBRANCH   1   9
BRANCH   1  13
ATOM     12  O   UNL     1      35.715  -8.941 -23.678  0.00  0.00    -0.269 OA
ATOM     13  N   UNL     1      33.489  -8.731 -23.144  0.00  0.00    -0.294 N 
ATOM     14  C   UNL     1      34.597  -9.453 -23.605  0.00  0.00    +0.260 C 
ATOM     15  H   UNL     1      32.615  -9.182 -23.104  0.00  0.00    +0.150 HD
BRANCH  14  18
ATOM     16 CL   UNL     1      33.011 -16.395 -26.447  0.00  0.00    -0.082 Cl
ATOM     17  N   UNL     1      34.570 -11.867 -23.101  0.00  0.00    -0.309 N 
ATOM     18  C   UNL     1      34.351 -10.856 -23.963  0.00  0.00    +0.102 C 
ATOM     19  C   UNL     1      33.895 -11.326 -25.145  0.00  0.00    +0.020 C 
ATOM     20  C   UNL     1      33.822 -12.741 -25.012  0.00  0.00    +0.016 C 
ATOM     21  C   UNL     1      34.252 -13.055 -23.721  0.00  0.00    +0.048 C 
ATOM     22  C   UNL     1      33.432 -13.789 -25.870  0.00  0.00    +0.013 C 
ATOM     23  C   UNL     1      34.310 -14.368 -23.242  0.00  0.00    +0.015 C 
ATOM     24  C   UNL     1      33.486 -15.108 -25.405  0.00  0.00    +0.058 C 
ATOM     25  C   UNL     1      33.918 -15.390 -24.111  0.00  0.00    +0.013 C 
ATOM     26  H   UNL     1      34.903 -11.773 -22.179  0.00  0.00    +0.152 HD
ENDBRANCH  14  18
ENDBRANCH   1  13
BRANCH   1  27
ATOM     27  C   UNL     1      32.630  -6.440 -23.483  0.00  0.00    +0.055 C 
BRANCH  27  29
ATOM     28  F   UNL     1      35.271  -3.458 -27.449  0.00  0.00    -0.204 F 
ATOM     29  C   UNL     1      33.339  -5.640 -24.547  0.00  0.00    -0.020 C 
ATOM     30  C   UNL     1      32.686  -4.572 -25.143  0.00  0.00    -0.002 C 
ATOM     31  C   UNL     1      34.631  -5.987 -24.912  0.00  0.00    -0.002 C 
ATOM     32  C   UNL     1      33.341  -3.832 -26.128  0.00  0.00    +0.029 C 
ATOM     33  C   UNL     1      35.286  -5.247 -25.897  0.00  0.00    +0.029 C 
ATOM     34  C   UNL     1      34.641  -4.170 -26.505  0.00  0.00    +0.140 C 
ENDBRANCH  27  29
ENDBRANCH   1  27
TORSDOF 6
ENDMDL
MODEL 9
REMARK VINA RESULT:      -8.5     12.737     18.021
REMARK  Name = 444746
REMARK  6 active torsions:
REMARK  status: ('A' for Active; 'I' for Inactive)
REMARK    1  A    between atoms: C_1  and  C_9
REMARK    2  A    between atoms: C_1  and  N_13
REMARK    3  A    between atoms: C_1  and  C_27
REMARK    4  A    between atoms: C_4  and  O_10
REMARK    5  A    between atoms: C_14  and  C_18
REMARK    6  A    between atoms: C_27  and  C_29
REMARK                            x       y       z     vdW  Elec       q    Type
REMARK                         _______ _______ _______ _____ _____    ______ ____
ROOT
ATOM      1  C   UNL     1      33.448  -7.294 -23.295  0.00  0.00    +0.153 C 
ENDROOT
BRANCH   1   9
ATOM      2  O   UNL     1      35.797  -7.068 -23.517  0.00  0.00    -0.273 OA
ATOM      3  N   UNL     1      34.503  -6.157 -25.218  0.00  0.00    -0.278 N 
ATOM      4  C   UNL     1      34.250  -3.879 -26.983  0.00  0.00    +0.114 C 
ATOM      5  C   UNL     1      35.579  -4.228 -26.310  0.00  0.00    +0.051 C 
ATOM      6  C   UNL     1      33.073  -4.376 -26.144  0.00  0.00    +0.051 C 
ATOM      7  C   UNL     1      35.663  -5.719 -25.998  0.00  0.00    +0.096 C 
ATOM      8  C   UNL     1      33.201  -5.864 -25.833  0.00  0.00    +0.096 C 
ATOM      9  C   UNL     1      34.692  -6.834 -24.014  0.00  0.00    +0.244 C 
BRANCH   4  10
ATOM     10  O   UNL     1      34.142  -2.470 -27.135  0.00  0.00    -0.384 OA
ATOM     11  H   UNL     1      33.358  -2.260 -27.666  0.00  0.00    +0.210 HD
ENDBRANCH   4  10
ENDBRANCH   1   9
BRANCH   1  13
ATOM     12  O   UNL     1      31.467  -9.186 -22.628  0.00  0.00    -0.269 OA
ATOM     13  N   UNL     1      33.656  -8.704 -23.135  0.00  0.00    -0.294 N 
ATOM     14  C   UNL     1      32.620  -9.584 -22.802  0.00  0.00    +0.260 C 
ATOM     15  H   UNL     1      34.562  -9.068 -23.264  0.00  0.00    +0.150 HD
BRANCH  14  18
ATOM     16 CL   UNL     1      35.122 -16.821 -23.185  0.00  0.00    -0.082 Cl
ATOM     17  N   UNL     1      32.512 -11.801 -21.727  0.00  0.00    -0.309 N 
ATOM     18  C   UNL     1      32.983 -11.004 -22.705  0.00  0.00    +0.102 C 
ATOM     19  C   UNL     1      33.800 -11.692 -23.532  0.00  0.00    +0.020 C 
ATOM     20  C   UNL     1      33.844 -13.025 -23.034  0.00  0.00    +0.016 C 
ATOM     21  C   UNL     1      33.028 -13.066 -21.902  0.00  0.00    +0.048 C 
ATOM     22  C   UNL     1      34.502 -14.203 -23.439  0.00  0.00    +0.013 C 
ATOM     23  C   UNL     1      32.835 -14.232 -21.151  0.00  0.00    +0.015 C 
ATOM     24  C   UNL     1      34.321 -15.376 -22.697  0.00  0.00    +0.058 C 
ATOM     25  C   UNL     1      33.499 -15.387 -21.572  0.00  0.00    +0.013 C 
ATOM     26  H   UNL     1      31.900 -11.526 -21.007  0.00  0.00    +0.152 HD
ENDBRANCH  14  18
ENDBRANCH   1  13
BRANCH   1  27
ATOM     27  C   UNL     1      33.301  -6.553 -21.972  0.00  0.00    +0.055 C 
BRANCH  27  29
ATOM     28  F   UNL     1      29.305  -2.606 -22.191  0.00  0.00    -0.204 F 
ATOM     29  C   UNL     1      32.229  -5.494 -22.031  0.00  0.00    -0.020 C 
ATOM     30  C   UNL     1      31.081  -5.645 -21.269  0.00  0.00    -0.002 C 
ATOM     31  C   UNL     1      32.410  -4.387 -22.847  0.00  0.00    -0.002 C 
ATOM     32  C   UNL     1      30.089  -4.667 -21.324  0.00  0.00    +0.029 C 
ATOM     33  C   UNL     1      31.418  -3.408 -22.901  0.00  0.00    +0.029 C 
ATOM     34  C   UNL     1      30.257  -3.548 -22.140  0.00  0.00    +0.140 C 
ENDBRANCH  27  29
ENDBRANCH   1  27
TORSDOF 6
ENDMDL
