MODEL 1
REMARK VINA RESULT:     -12.8      0.000      0.000
REMARK  Name = 25049750
REMARK  7 active torsions:
REMARK  status: ('A' for Active; 'I' for Inactive)
REMARK    1  A    between atoms: C_1  and  C_14
REMARK    2  A    between atoms: C_6  and  O_20
REMARK    3  A    between atoms: C_10  and  C_17
REMARK    4  A    between atoms: C_17  and  O_18
REMARK    5  A    between atoms: O_20  and  C_21
REMARK    6  A    between atoms: C_21  and  C_23
REMARK    7  A    between atoms: C_27  and  C_32
REMARK                            x       y       z     vdW  Elec       q    Type
REMARK                         _______ _______ _______ _____ _____    ______ ____
ROOT
ATOM      1  C   UNL     1      35.234 -19.956 -21.100  0.00  0.00    -0.004 C 
ATOM      2  C   UNL     1      35.897 -20.795 -20.203  0.00  0.00    +0.000 C 
ATOM      3  C   UNL     1      33.848 -19.814 -21.026  0.00  0.00    +0.000 C 
ATOM      4  C   UNL     1      35.175 -21.491 -19.235  0.00  0.00    +0.037 C 
ATOM      5  C   UNL     1      33.126 -20.510 -20.057  0.00  0.00    +0.037 C 
ATOM      6  C   UNL     1      33.789 -21.348 -19.161  0.00  0.00    +0.139 C 
ENDROOT
BRANCH   1  14
ATOM      7  O   UNL     1      34.305 -17.784 -24.922  0.00  0.00    -0.275 OA
ATOM      8  N   UNL     1      35.375 -19.258 -23.451  0.00  0.00    -0.302 N 
ATOM      9  C   UNL     1      35.288 -17.063 -22.878  0.00  0.00    +0.081 C 
ATOM     10  C   UNL     1      34.291 -16.045 -22.445  0.00  0.00    +0.108 C 
ATOM     11  C   UNL     1      35.506 -15.637 -23.236  0.00  0.00    +0.021 C 
ATOM     12  C   UNL     1      36.158 -17.691 -21.853  0.00  0.00    +0.033 C 
ATOM     13  C   UNL     1      34.911 -18.034 -23.892  0.00  0.00    +0.222 C 
ATOM     14  C   UNL     1      36.018 -19.200 -22.149  0.00  0.00    +0.095 C 
ATOM     15  H   UNL     1      35.280 -20.090 -23.970  0.00  0.00    +0.150 HD
BRANCH  10  17
ATOM     16  O   UNL     1      34.339 -16.299 -20.115  0.00  0.00    -0.250 OA
ATOM     17  C   UNL     1      34.283 -15.555 -21.083  0.00  0.00    +0.314 C 
BRANCH  17  18
ATOM     18  O   UNL     1      34.212 -14.204 -21.014  0.00  0.00    -0.480 OA
ATOM     19  H   UNL     1      34.988 -13.688 -21.103  0.00  0.00    +0.295 HD
ENDBRANCH  17  18
ENDBRANCH  10  17
ENDBRANCH   1  14
BRANCH   6  20
ATOM     20  O   UNL     1      33.079 -22.033 -18.209  0.00  0.00    -0.471 OA
BRANCH  20  21
ATOM     21  C   UNL     1      33.552 -23.328 -17.865  0.00  0.00    +0.229 C 
BRANCH  21  23
ATOM     22  N   UNL     1      33.631 -23.766 -13.609  0.00  0.00    -0.406 NA
ATOM     23  C   UNL     1      33.542 -23.475 -16.375  0.00  0.00    +0.012 C 
ATOM     24  C   UNL     1      32.365 -23.373 -15.622  0.00  0.00    +0.096 C 
ATOM     25  C   UNL     1      34.754 -23.722 -15.747  0.00  0.00    +0.028 C 
ATOM     26  C   UNL     1      32.456 -23.527 -14.222  0.00  0.00    +0.117 C 
ATOM     27  C   UNL     1      34.744 -23.858 -14.373  0.00  0.00    +0.130 C 
ATOM     28  C   UNL     1      31.122 -23.125 -16.230  0.00  0.00    -0.015 C 
ATOM     29  C   UNL     1      31.287 -23.425 -13.476  0.00  0.00    +0.028 C 
ATOM     30  C   UNL     1      29.968 -23.027 -15.458  0.00  0.00    -0.004 C 
ATOM     31  C   UNL     1      30.051 -23.178 -14.079  0.00  0.00    +0.002 C 
BRANCH  27  32
ATOM     32  C   UNL     1      35.962 -24.114 -13.641  0.00  0.00    +0.030 C 
ATOM     33  C   UNL     1      36.907 -25.005 -14.151  0.00  0.00    +0.003 C 
ATOM     34  C   UNL     1      36.194 -23.473 -12.425  0.00  0.00    +0.003 C 
ATOM     35  C   UNL     1      38.084 -25.253 -13.446  0.00  0.00    +0.000 C 
ATOM     36  C   UNL     1      37.372 -23.721 -11.719  0.00  0.00    +0.000 C 
ATOM     37  C   UNL     1      38.316 -24.611 -12.229  0.00  0.00    +0.000 C 
ENDBRANCH  27  32
ENDBRANCH  21  23
ENDBRANCH  20  21
ENDBRANCH   6  20
TORSDOF 7
ENDMDL
MODEL 2
REMARK VINA RESULT:     -12.7      5.096      9.915
REMARK  Name = 25049750
REMARK  7 active torsions:
REMARK  status: ('A' for Active; 'I' for Inactive)
REMARK    1  A    between atoms: C_1  and  C_14
REMARK    2  A    between atoms: C_6  and  O_20
REMARK    3  A    between atoms: C_10  and  C_17
REMARK    4  A    between atoms: C_17  and  O_18
REMARK    5  A    between atoms: O_20  and  C_21
REMARK    6  A    between atoms: C_21  and  C_23
REMARK    7  A    between atoms: C_27  and  C_32
REMARK                            x       y       z     vdW  Elec       q    Type
REMARK                         _______ _______ _______ _____ _____    ______ ____
ROOT
ATOM      1  C   UNL     1      31.772 -10.522 -21.311  0.00  0.00    -0.004 C 
ATOM      2  C   UNL     1      31.594 -11.088 -20.048  0.00  0.00    +0.000 C 
ATOM      3  C   UNL     1      32.342 -11.275 -22.337  0.00  0.00    +0.000 C 
ATOM      4  C   UNL     1      31.986 -12.406 -19.812  0.00  0.00    +0.037 C 
ATOM      5  C   UNL     1      32.734 -12.593 -22.101  0.00  0.00    +0.037 C 
ATOM      6  C   UNL     1      32.555 -13.159 -20.839  0.00  0.00    +0.139 C 
ENDROOT
BRANCH   1  14
ATOM      7  O   UNL     1      33.083  -6.442 -19.959  0.00  0.00    -0.275 OA
ATOM      8  N   UNL     1      31.648  -8.229 -20.437  0.00  0.00    -0.302 N 
ATOM      9  C   UNL     1      32.962  -7.444 -22.114  0.00  0.00    +0.081 C 
ATOM     10  C   UNL     1      34.398  -7.412 -22.507  0.00  0.00    +0.108 C 
ATOM     11  C   UNL     1      33.470  -6.298 -22.913  0.00  0.00    +0.021 C 
ATOM     12  C   UNL     1      32.066  -8.435 -22.763  0.00  0.00    +0.033 C 
ATOM     13  C   UNL     1      32.608  -7.275 -20.715  0.00  0.00    +0.222 C 
ATOM     14  C   UNL     1      31.346  -9.094 -21.566  0.00  0.00    +0.095 C 
ATOM     15  H   UNL     1      31.210  -8.314 -19.559  0.00  0.00    +0.150 HD
BRANCH  10  17
ATOM     16  O   UNL     1      35.035  -9.422 -23.533  0.00  0.00    -0.250 OA
ATOM     17  C   UNL     1      34.876  -8.213 -23.614  0.00  0.00    +0.314 C 
BRANCH  17  18
ATOM     18  O   UNL     1      35.118  -7.476 -24.725  0.00  0.00    -0.480 OA
ATOM     19  H   UNL     1      34.924  -6.560 -24.732  0.00  0.00    +0.295 HD
ENDBRANCH  17  18
ENDBRANCH  10  17
ENDBRANCH   1  14
BRANCH   6  20
ATOM     20  O   UNL     1      32.940 -14.454 -20.608  0.00  0.00    -0.471 OA
BRANCH  20  21
ATOM     21  C   UNL     1      34.333 -14.727 -20.662  0.00  0.00    +0.229 C 
BRANCH  21  23
ATOM     22  N   UNL     1      34.971 -18.449 -22.673  0.00  0.00    -0.406 NA
ATOM     23  C   UNL     1      34.554 -16.011 -21.399  0.00  0.00    +0.012 C 
ATOM     24  C   UNL     1      34.598 -16.072 -22.798  0.00  0.00    +0.096 C 
ATOM     25  C   UNL     1      34.719 -17.164 -20.644  0.00  0.00    +0.028 C 
ATOM     26  C   UNL     1      34.812 -17.329 -23.402  0.00  0.00    +0.117 C 
ATOM     27  C   UNL     1      34.922 -18.348 -21.325  0.00  0.00    +0.130 C 
ATOM     28  C   UNL     1      34.436 -14.922 -23.590  0.00  0.00    -0.015 C 
ATOM     29  C   UNL     1      34.855 -17.387 -24.792  0.00  0.00    +0.028 C 
ATOM     30  C   UNL     1      34.483 -15.010 -24.977  0.00  0.00    -0.004 C 
ATOM     31  C   UNL     1      34.693 -16.245 -25.579  0.00  0.00    +0.002 C 
BRANCH  27  32
ATOM     32  C   UNL     1      35.102 -19.592 -20.616  0.00  0.00    +0.030 C 
ATOM     33  C   UNL     1      36.387 -20.052 -20.327  0.00  0.00    +0.003 C 
ATOM     34  C   UNL     1      33.990 -20.336 -20.220  0.00  0.00    +0.003 C 
ATOM     35  C   UNL     1      36.561 -21.254 -19.641  0.00  0.00    +0.000 C 
ATOM     36  C   UNL     1      34.164 -21.539 -19.534  0.00  0.00    +0.000 C 
ATOM     37  C   UNL     1      35.449 -21.998 -19.246  0.00  0.00    +0.000 C 
ENDBRANCH  27  32
ENDBRANCH  21  23
ENDBRANCH  20  21
ENDBRANCH   6  20
TORSDOF 7
ENDMDL
MODEL 3
REMARK VINA RESULT:     -12.1      1.127      4.169
REMARK  Name = 25049750
REMARK  7 active torsions:
REMARK  status: ('A' for Active; 'I' for Inactive)
REMARK    1  A    between atoms: C_1  and  C_14
REMARK    2  A    between atoms: C_6  and  O_20
REMARK    3  A    between atoms: C_10  and  C_17
REMARK    4  A    between atoms: C_17  and  O_18
REMARK    5  A    between atoms: O_20  and  C_21
REMARK    6  A    between atoms: C_21  and  C_23
REMARK    7  A    between atoms: C_27  and  C_32
REMARK                            x       y       z     vdW  Elec       q    Type
REMARK                         _______ _______ _______ _____ _____    ______ ____
ROOT
ATOM      1  C   UNL     1      35.790 -19.193 -21.345  0.00  0.00    -0.004 C 
ATOM      2  C   UNL     1      36.658 -19.948 -20.554  0.00  0.00    +0.000 C 
ATOM      3  C   UNL     1      34.413 -19.393 -21.255  0.00  0.00    +0.000 C 
ATOM      4  C   UNL     1      36.147 -20.903 -19.675  0.00  0.00    +0.037 C 
ATOM      5  C   UNL     1      33.903 -20.348 -20.375  0.00  0.00    +0.037 C 
ATOM      6  C   UNL     1      34.769 -21.102 -19.585  0.00  0.00    +0.139 C 
ENDROOT
BRANCH   1  14
ATOM      7  O   UNL     1      34.371 -17.088 -25.052  0.00  0.00    -0.275 OA
ATOM      8  N   UNL     1      35.787 -18.296 -23.632  0.00  0.00    -0.302 N 
ATOM      9  C   UNL     1      35.033 -16.278 -22.915  0.00  0.00    +0.081 C 
ATOM     10  C   UNL     1      33.765 -15.637 -22.466  0.00  0.00    +0.108 C 
ATOM     11  C   UNL     1      34.827 -14.827 -23.161  0.00  0.00    +0.021 C 
ATOM     12  C   UNL     1      36.020 -16.703 -21.891  0.00  0.00    +0.033 C 
ATOM     13  C   UNL     1      34.993 -17.231 -24.011  0.00  0.00    +0.222 C 
ATOM     14  C   UNL     1      36.344 -18.157 -22.297  0.00  0.00    +0.095 C 
ATOM     15  H   UNL     1      35.959 -19.074 -24.211  0.00  0.00    +0.150 HD
BRANCH  10  17
ATOM     16  O   UNL     1      34.369 -15.591 -20.200  0.00  0.00    -0.250 OA
ATOM     17  C   UNL     1      33.573 -15.284 -21.075  0.00  0.00    +0.314 C 
BRANCH  17  18
ATOM     18  O   UNL     1      32.429 -14.587 -20.867  0.00  0.00    -0.480 OA
ATOM     19  H   UNL     1      31.891 -14.342 -21.594  0.00  0.00    +0.295 HD
ENDBRANCH  17  18
ENDBRANCH  10  17
ENDBRANCH   1  14
BRANCH   6  20
ATOM     20  O   UNL     1      34.267 -22.041 -18.721  0.00  0.00    -0.471 OA
BRANCH  20  21
ATOM     21  C   UNL     1      35.177 -22.600 -17.784  0.00  0.00    +0.229 C 
BRANCH  21  23
ATOM     22  N   UNL     1      32.929 -23.840 -14.360  0.00  0.00    -0.406 NA
ATOM     23  C   UNL     1      34.422 -23.038 -16.567  0.00  0.00    +0.012 C 
ATOM     24  C   UNL     1      35.067 -23.376 -15.369  0.00  0.00    +0.096 C 
ATOM     25  C   UNL     1      33.039 -23.102 -16.657  0.00  0.00    +0.028 C 
ATOM     26  C   UNL     1      34.271 -23.777 -14.276  0.00  0.00    +0.117 C 
ATOM     27  C   UNL     1      32.345 -23.506 -15.534  0.00  0.00    +0.130 C 
ATOM     28  C   UNL     1      36.467 -23.321 -15.247  0.00  0.00    -0.015 C 
ATOM     29  C   UNL     1      34.913 -24.112 -13.088  0.00  0.00    +0.028 C 
ATOM     30  C   UNL     1      37.082 -23.662 -14.046  0.00  0.00    -0.004 C 
ATOM     31  C   UNL     1      36.303 -24.058 -12.965  0.00  0.00    +0.002 C 
BRANCH  27  32
ATOM     32  C   UNL     1      30.905 -23.600 -15.544  0.00  0.00    +0.030 C 
ATOM     33  C   UNL     1      30.269 -24.640 -14.865  0.00  0.00    +0.003 C 
ATOM     34  C   UNL     1      30.148 -22.651 -16.231  0.00  0.00    +0.003 C 
ATOM     35  C   UNL     1      28.877 -24.730 -14.874  0.00  0.00    +0.000 C 
ATOM     36  C   UNL     1      28.756 -22.741 -16.240  0.00  0.00    +0.000 C 
ATOM     37  C   UNL     1      28.121 -23.782 -15.562  0.00  0.00    +0.000 C 
ENDBRANCH  27  32
ENDBRANCH  21  23
ENDBRANCH  20  21
ENDBRANCH   6  20
TORSDOF 7
ENDMDL
MODEL 4
REMARK VINA RESULT:     -11.8      1.941      4.609
REMARK  Name = 25049750
REMARK  7 active torsions:
REMARK  status: ('A' for Active; 'I' for Inactive)
REMARK    1  A    between atoms: C_1  and  C_14
REMARK    2  A    between atoms: C_6  and  O_20
REMARK    3  A    between atoms: C_10  and  C_17
REMARK    4  A    between atoms: C_17  and  O_18
REMARK    5  A    between atoms: O_20  and  C_21
REMARK    6  A    between atoms: C_21  and  C_23
REMARK    7  A    between atoms: C_27  and  C_32
REMARK                            x       y       z     vdW  Elec       q    Type
REMARK                         _______ _______ _______ _____ _____    ______ ____
ROOT
ATOM      1  C   UNL     1      35.194 -17.690 -22.600  0.00  0.00    -0.004 C 
ATOM      2  C   UNL     1      34.981 -18.983 -23.081  0.00  0.00    +0.000 C 
ATOM      3  C   UNL     1      34.965 -17.401 -21.255  0.00  0.00    +0.000 C 
ATOM      4  C   UNL     1      34.539 -19.984 -22.217  0.00  0.00    +0.037 C 
ATOM      5  C   UNL     1      34.524 -18.404 -20.391  0.00  0.00    +0.037 C 
ATOM      6  C   UNL     1      34.311 -19.696 -20.872  0.00  0.00    +0.139 C 
ENDROOT
BRANCH   1  14
ATOM      7  O   UNL     1      33.576 -15.550 -26.205  0.00  0.00    -0.275 OA
ATOM      8  N   UNL     1      35.085 -16.732 -24.860  0.00  0.00    -0.302 N 
ATOM      9  C   UNL     1      34.263 -14.770 -24.064  0.00  0.00    +0.081 C 
ATOM     10  C   UNL     1      32.982 -14.200 -23.562  0.00  0.00    +0.108 C 
ATOM     11  C   UNL     1      33.986 -13.323 -24.263  0.00  0.00    +0.021 C 
ATOM     12  C   UNL     1      35.298 -15.178 -23.080  0.00  0.00    +0.033 C 
ATOM     13  C   UNL     1      34.234 -15.693 -25.186  0.00  0.00    +0.222 C 
ATOM     14  C   UNL     1      35.674 -16.605 -23.537  0.00  0.00    +0.095 C 
ATOM     15  H   UNL     1      35.275 -17.485 -25.465  0.00  0.00    +0.150 HD
BRANCH  10  17
ATOM     16  O   UNL     1      32.895 -14.744 -21.283  0.00  0.00    -0.250 OA
ATOM     17  C   UNL     1      32.814 -13.894 -22.157  0.00  0.00    +0.314 C 
BRANCH  17  18
ATOM     18  O   UNL     1      32.563 -12.581 -21.935  0.00  0.00    -0.480 OA
ATOM     19  H   UNL     1      32.865 -11.937 -22.544  0.00  0.00    +0.295 HD
ENDBRANCH  17  18
ENDBRANCH  10  17
ENDBRANCH   1  14
BRANCH   6  20
ATOM     20  O   UNL     1      33.877 -20.680 -20.023  0.00  0.00    -0.471 OA
BRANCH  20  21
ATOM     21  C   UNL     1      34.813 -21.695 -19.686  0.00  0.00    +0.229 C 
BRANCH  21  23
ATOM     22  N   UNL     1      33.959 -23.041 -15.716  0.00  0.00    -0.406 NA
ATOM     23  C   UNL     1      34.550 -22.162 -18.289  0.00  0.00    +0.012 C 
ATOM     24  C   UNL     1      35.571 -22.278 -17.336  0.00  0.00    +0.096 C 
ATOM     25  C   UNL     1      33.243 -22.484 -17.954  0.00  0.00    +0.028 C 
ATOM     26  C   UNL     1      35.226 -22.727 -16.044  0.00  0.00    +0.117 C 
ATOM     27  C   UNL     1      33.003 -22.915 -16.664  0.00  0.00    +0.130 C 
ATOM     28  C   UNL     1      36.905 -21.959 -17.644  0.00  0.00    -0.015 C 
ATOM     29  C   UNL     1      36.241 -22.842 -15.099  0.00  0.00    +0.028 C 
ATOM     30  C   UNL     1      37.900 -22.084 -16.679  0.00  0.00    -0.004 C 
ATOM     31  C   UNL     1      37.567 -22.526 -15.404  0.00  0.00    +0.002 C 
BRANCH  27  32
ATOM     32  C   UNL     1      31.671 -23.270 -16.235  0.00  0.00    +0.030 C 
ATOM     33  C   UNL     1      31.472 -24.400 -15.441  0.00  0.00    +0.003 C 
ATOM     34  C   UNL     1      30.583 -22.485 -16.614  0.00  0.00    +0.003 C 
ATOM     35  C   UNL     1      30.186 -24.743 -15.025  0.00  0.00    +0.000 C 
ATOM     36  C   UNL     1      29.296 -22.828 -16.198  0.00  0.00    +0.000 C 
ATOM     37  C   UNL     1      29.098 -23.957 -15.405  0.00  0.00    +0.000 C 
ENDBRANCH  27  32
ENDBRANCH  21  23
ENDBRANCH  20  21
ENDBRANCH   6  20
TORSDOF 7
ENDMDL
MODEL 5
REMARK VINA RESULT:     -11.7      5.363     12.553
REMARK  Name = 25049750
REMARK  7 active torsions:
REMARK  status: ('A' for Active; 'I' for Inactive)
REMARK    1  A    between atoms: C_1  and  C_14
REMARK    2  A    between atoms: C_6  and  O_20
REMARK    3  A    between atoms: C_10  and  C_17
REMARK    4  A    between atoms: C_17  and  O_18
REMARK    5  A    between atoms: O_20  and  C_21
REMARK    6  A    between atoms: C_21  and  C_23
REMARK    7  A    between atoms: C_27  and  C_32
REMARK                            x       y       z     vdW  Elec       q    Type
REMARK                         _______ _______ _______ _____ _____    ______ ____
ROOT
ATOM      1  C   UNL     1      35.259 -17.181 -22.451  0.00  0.00    -0.004 C 
ATOM      2  C   UNL     1      34.933 -16.588 -21.230  0.00  0.00    +0.000 C 
ATOM      3  C   UNL     1      34.835 -16.597 -23.645  0.00  0.00    +0.000 C 
ATOM      4  C   UNL     1      34.182 -15.413 -21.205  0.00  0.00    +0.037 C 
ATOM      5  C   UNL     1      34.085 -15.421 -23.618  0.00  0.00    +0.037 C 
ATOM      6  C   UNL     1      33.759 -14.828 -22.399  0.00  0.00    +0.139 C 
ENDROOT
BRANCH   1  14
ATOM      7  O   UNL     1      37.605 -19.610 -19.487  0.00  0.00    -0.275 OA
ATOM      8  N   UNL     1      37.114 -18.454 -21.463  0.00  0.00    -0.302 N 
ATOM      9  C   UNL     1      35.720 -20.135 -20.841  0.00  0.00    +0.081 C 
ATOM     10  C   UNL     1      34.710 -20.438 -19.789  0.00  0.00    +0.108 C 
ATOM     11  C   UNL     1      35.527 -21.543 -20.404  0.00  0.00    +0.021 C 
ATOM     12  C   UNL     1      35.248 -19.727 -22.188  0.00  0.00    +0.033 C 
ATOM     13  C   UNL     1      36.921 -19.403 -20.477  0.00  0.00    +0.222 C 
ATOM     14  C   UNL     1      36.074 -18.455 -22.479  0.00  0.00    +0.095 C 
ATOM     15  H   UNL     1      37.882 -17.838 -21.477  0.00  0.00    +0.150 HD
BRANCH  10  17
ATOM     16  O   UNL     1      32.658 -21.534 -20.081  0.00  0.00    -0.250 OA
ATOM     17  C   UNL     1      33.301 -20.496 -20.117  0.00  0.00    +0.314 C 
BRANCH  17  18
ATOM     18  O   UNL     1      32.795 -19.286 -20.460  0.00  0.00    -0.480 OA
ATOM     19  H   UNL     1      32.303 -19.191 -21.251  0.00  0.00    +0.295 HD
ENDBRANCH  17  18
ENDBRANCH  10  17
ENDBRANCH   1  14
BRANCH   6  20
ATOM     20  O   UNL     1      33.021 -13.674 -22.373  0.00  0.00    -0.471 OA
BRANCH  20  21
ATOM     21  C   UNL     1      33.402 -12.650 -23.281  0.00  0.00    +0.229 C 
BRANCH  21  23
ATOM     22  N   UNL     1      32.511  -8.790 -21.663  0.00  0.00    -0.406 NA
ATOM     23  C   UNL     1      33.075 -11.316 -22.686  0.00  0.00    +0.012 C 
ATOM     24  C   UNL     1      32.425 -11.189 -21.450  0.00  0.00    +0.096 C 
ATOM     25  C   UNL     1      33.439 -10.185 -23.402  0.00  0.00    +0.028 C 
ATOM     26  C   UNL     1      32.159  -9.890 -20.970  0.00  0.00    +0.117 C 
ATOM     27  C   UNL     1      33.136  -8.956 -22.851  0.00  0.00    +0.130 C 
ATOM     28  C   UNL     1      32.045 -12.316 -20.700  0.00  0.00    -0.015 C 
ATOM     29  C   UNL     1      31.514  -9.765 -19.743  0.00  0.00    +0.028 C 
ATOM     30  C   UNL     1      31.401 -12.161 -19.476  0.00  0.00    -0.004 C 
ATOM     31  C   UNL     1      31.135 -10.884 -18.997  0.00  0.00    +0.002 C 
BRANCH  27  32
ATOM     32  C   UNL     1      33.479  -7.731 -23.532  0.00  0.00    +0.030 C 
ATOM     33  C   UNL     1      34.810  -7.460 -23.852  0.00  0.00    +0.003 C 
ATOM     34  C   UNL     1      32.481  -6.817 -23.872  0.00  0.00    +0.003 C 
ATOM     35  C   UNL     1      35.143  -6.276 -24.511  0.00  0.00    +0.000 C 
ATOM     36  C   UNL     1      32.814  -5.634 -24.531  0.00  0.00    +0.000 C 
ATOM     37  C   UNL     1      34.144  -5.363 -24.849  0.00  0.00    +0.000 C 
ENDBRANCH  27  32
ENDBRANCH  21  23
ENDBRANCH  20  21
ENDBRANCH   6  20
TORSDOF 7
ENDMDL
MODEL 6
REMARK VINA RESULT:     -11.7      2.960     10.751
REMARK  Name = 25049750
REMARK  7 active torsions:
REMARK  status: ('A' for Active; 'I' for Inactive)
REMARK    1  A    between atoms: C_1  and  C_14
REMARK    2  A    between atoms: C_6  and  O_20
REMARK    3  A    between atoms: C_10  and  C_17
REMARK    4  A    between atoms: C_17  and  O_18
REMARK    5  A    between atoms: O_20  and  C_21
REMARK    6  A    between atoms: C_21  and  C_23
REMARK    7  A    between atoms: C_27  and  C_32
REMARK                            x       y       z     vdW  Elec       q    Type
REMARK                         _______ _______ _______ _____ _____    ______ ____
ROOT
ATOM      1  C   UNL     1      35.296 -21.369 -19.479  0.00  0.00    -0.004 C 
ATOM      2  C   UNL     1      36.383 -20.583 -19.864  0.00  0.00    +0.000 C 
ATOM      3  C   UNL     1      34.002 -20.990 -19.834  0.00  0.00    +0.000 C 
ATOM      4  C   UNL     1      36.175 -19.419 -20.603  0.00  0.00    +0.037 C 
ATOM      5  C   UNL     1      33.794 -19.826 -20.574  0.00  0.00    +0.037 C 
ATOM      6  C   UNL     1      34.880 -19.041 -20.960  0.00  0.00    +0.139 C 
ENDROOT
BRANCH   1  14
ATOM      7  O   UNL     1      35.750 -22.433 -15.137  0.00  0.00    -0.275 OA
ATOM      8  N   UNL     1      36.218 -22.363 -17.430  0.00  0.00    -0.302 N 
ATOM      9  C   UNL     1      34.172 -23.105 -16.785  0.00  0.00    +0.081 C 
ATOM     10  C   UNL     1      32.914 -22.580 -16.184  0.00  0.00    +0.108 C 
ATOM     11  C   UNL     1      33.343 -24.002 -15.937  0.00  0.00    +0.021 C 
ATOM     12  C   UNL     1      34.219 -23.339 -18.251  0.00  0.00    +0.033 C 
ATOM     13  C   UNL     1      35.448 -22.601 -16.308  0.00  0.00    +0.222 C 
ATOM     14  C   UNL     1      35.523 -22.631 -18.678  0.00  0.00    +0.095 C 
ATOM     15  H   UNL     1      37.149 -22.043 -17.388  0.00  0.00    +0.150 HD
BRANCH  10  17
ATOM     16  O   UNL     1      31.685 -21.856 -18.044  0.00  0.00    -0.250 OA
ATOM     17  C   UNL     1      31.713 -22.458 -16.981  0.00  0.00    +0.314 C 
BRANCH  17  18
ATOM     18  O   UNL     1      30.648 -23.080 -16.419  0.00  0.00    -0.480 OA
ATOM     19  H   UNL     1      29.892 -23.276 -16.936  0.00  0.00    +0.295 HD
ENDBRANCH  17  18
ENDBRANCH  10  17
ENDBRANCH   1  14
BRANCH   6  20
ATOM     20  O   UNL     1      34.676 -17.897 -21.686  0.00  0.00    -0.471 OA
BRANCH  20  21
ATOM     21  C   UNL     1      34.943 -16.665 -21.031  0.00  0.00    +0.229 C 
BRANCH  21  23
ATOM     22  N   UNL     1      32.912 -13.461 -23.009  0.00  0.00    -0.406 NA
ATOM     23  C   UNL     1      34.242 -15.559 -21.756  0.00  0.00    +0.012 C 
ATOM     24  C   UNL     1      34.179 -15.505 -23.155  0.00  0.00    +0.096 C 
ATOM     25  C   UNL     1      33.641 -14.569 -20.992  0.00  0.00    +0.028 C 
ATOM     26  C   UNL     1      33.495 -14.423 -23.748  0.00  0.00    +0.117 C 
ATOM     27  C   UNL     1      32.995 -13.550 -21.662  0.00  0.00    +0.130 C 
ATOM     28  C   UNL     1      34.777 -16.493 -23.957  0.00  0.00    -0.015 C 
ATOM     29  C   UNL     1      33.434 -14.370 -25.138  0.00  0.00    +0.028 C 
ATOM     30  C   UNL     1      34.700 -16.415 -25.344  0.00  0.00    -0.004 C 
ATOM     31  C   UNL     1      34.028 -15.352 -25.935  0.00  0.00    +0.002 C 
BRANCH  27  32
ATOM     32  C   UNL     1      32.346 -12.481 -20.942  0.00  0.00    +0.030 C 
ATOM     33  C   UNL     1      31.886 -11.356 -21.628  0.00  0.00    +0.003 C 
ATOM     34  C   UNL     1      32.178 -12.571 -19.560  0.00  0.00    +0.003 C 
ATOM     35  C   UNL     1      31.257 -10.323 -20.932  0.00  0.00    +0.000 C 
ATOM     36  C   UNL     1      31.549 -11.538 -18.865  0.00  0.00    +0.000 C 
ATOM     37  C   UNL     1      31.090 -10.414 -19.551  0.00  0.00    +0.000 C 
ENDBRANCH  27  32
ENDBRANCH  21  23
ENDBRANCH  20  21
ENDBRANCH   6  20
TORSDOF 7
ENDMDL
MODEL 7
REMARK VINA RESULT:     -10.7      6.028     11.037
REMARK  Name = 25049750
REMARK  7 active torsions:
REMARK  status: ('A' for Active; 'I' for Inactive)
REMARK    1  A    between atoms: C_1  and  C_14
REMARK    2  A    between atoms: C_6  and  O_20
REMARK    3  A    between atoms: C_10  and  C_17
REMARK    4  A    between atoms: C_17  and  O_18
REMARK    5  A    between atoms: O_20  and  C_21
REMARK    6  A    between atoms: C_21  and  C_23
REMARK    7  A    between atoms: C_27  and  C_32
REMARK                            x       y       z     vdW  Elec       q    Type
REMARK                         _______ _______ _______ _____ _____    ______ ____
ROOT
ATOM      1  C   UNL     1      31.837  -9.448 -22.428  0.00  0.00    -0.004 C 
ATOM      2  C   UNL     1      32.869 -10.014 -23.178  0.00  0.00    +0.000 C 
ATOM      3  C   UNL     1      31.419 -10.058 -21.245  0.00  0.00    +0.000 C 
ATOM      4  C   UNL     1      33.482 -11.190 -22.745  0.00  0.00    +0.037 C 
ATOM      5  C   UNL     1      32.033 -11.234 -20.813  0.00  0.00    +0.037 C 
ATOM      6  C   UNL     1      33.065 -11.799 -21.561  0.00  0.00    +0.139 C 
ENDROOT
BRANCH   1  14
ATOM      7  O   UNL     1      32.024  -5.091 -21.345  0.00  0.00    -0.275 OA
ATOM      8  N   UNL     1      31.093  -7.182 -21.836  0.00  0.00    -0.302 N 
ATOM      9  C   UNL     1      32.481  -6.250 -23.372  0.00  0.00    +0.081 C 
ATOM     10  C   UNL     1      33.925  -5.929 -23.546  0.00  0.00    +0.108 C 
ATOM     11  C   UNL     1      32.869  -5.082 -24.206  0.00  0.00    +0.021 C 
ATOM     12  C   UNL     1      31.933  -7.460 -24.036  0.00  0.00    +0.033 C 
ATOM     13  C   UNL     1      31.867  -6.062 -22.069  0.00  0.00    +0.222 C 
ATOM     14  C   UNL     1      31.173  -8.173 -22.897  0.00  0.00    +0.095 C 
ATOM     15  H   UNL     1      30.539  -7.298 -21.030  0.00  0.00    +0.150 HD
BRANCH  10  17
ATOM     16  O   UNL     1      34.967  -6.299 -25.614  0.00  0.00    -0.250 OA
ATOM     17  C   UNL     1      34.739  -6.683 -24.476  0.00  0.00    +0.314 C 
BRANCH  17  18
ATOM     18  O   UNL     1      35.208  -7.837 -23.942  0.00  0.00    -0.480 OA
ATOM     19  H   UNL     1      35.112  -8.642 -24.410  0.00  0.00    +0.295 HD
ENDBRANCH  17  18
ENDBRANCH  10  17
ENDBRANCH   1  14
BRANCH   6  20
ATOM     20  O   UNL     1      33.667 -12.955 -21.136  0.00  0.00    -0.471 OA
BRANCH  20  21
ATOM     21  C   UNL     1      32.883 -14.139 -21.178  0.00  0.00    +0.229 C 
BRANCH  21  23
ATOM     22  N   UNL     1      34.993 -17.181 -23.324  0.00  0.00    -0.406 NA
ATOM     23  C   UNL     1      33.614 -15.185 -21.961  0.00  0.00    +0.012 C 
ATOM     24  C   UNL     1      33.752 -15.115 -23.354  0.00  0.00    +0.096 C 
ATOM     25  C   UNL     1      34.165 -16.247 -21.257  0.00  0.00    +0.028 C 
ATOM     26  C   UNL     1      34.459 -16.149 -24.004  0.00  0.00    +0.117 C 
ATOM     27  C   UNL     1      34.839 -17.210 -21.981  0.00  0.00    +0.130 C 
ATOM     28  C   UNL     1      33.207 -14.053 -24.095  0.00  0.00    -0.015 C 
ATOM     29  C   UNL     1      34.594 -16.079 -25.387  0.00  0.00    +0.028 C 
ATOM     30  C   UNL     1      33.357 -14.009 -25.478  0.00  0.00    -0.004 C 
ATOM     31  C   UNL     1      34.053 -15.023 -26.124  0.00  0.00    +0.002 C 
BRANCH  27  32
ATOM     32  C   UNL     1      35.440 -18.347 -21.325  0.00  0.00    +0.030 C 
ATOM     33  C   UNL     1      34.650 -19.436 -20.953  0.00  0.00    +0.003 C 
ATOM     34  C   UNL     1      36.809 -18.358 -21.063  0.00  0.00    +0.003 C 
ATOM     35  C   UNL     1      35.231 -20.535 -20.321  0.00  0.00    +0.000 C 
ATOM     36  C   UNL     1      37.390 -19.458 -20.431  0.00  0.00    +0.000 C 
ATOM     37  C   UNL     1      36.600 -20.545 -20.059  0.00  0.00    +0.000 C 
ENDBRANCH  27  32
ENDBRANCH  21  23
ENDBRANCH  20  21
ENDBRANCH   6  20
TORSDOF 7
ENDMDL
MODEL 8
REMARK VINA RESULT:     -10.2      9.048     16.823
REMARK  Name = 25049750
REMARK  7 active torsions:
REMARK  status: ('A' for Active; 'I' for Inactive)
REMARK    1  A    between atoms: C_1  and  C_14
REMARK    2  A    between atoms: C_6  and  O_20
REMARK    3  A    between atoms: C_10  and  C_17
REMARK    4  A    between atoms: C_17  and  O_18
REMARK    5  A    between atoms: O_20  and  C_21
REMARK    6  A    between atoms: C_21  and  C_23
REMARK    7  A    between atoms: C_27  and  C_32
REMARK                            x       y       z     vdW  Elec       q    Type
REMARK                         _______ _______ _______ _____ _____    ______ ____
ROOT
ATOM      1  C   UNL     1      33.963 -11.681 -23.759  0.00  0.00    -0.004 C 
ATOM      2  C   UNL     1      34.883 -11.453 -24.783  0.00  0.00    +0.000 C 
ATOM      3  C   UNL     1      33.482 -10.611 -23.004  0.00  0.00    +0.000 C 
ATOM      4  C   UNL     1      35.322 -10.156 -25.050  0.00  0.00    +0.037 C 
ATOM      5  C   UNL     1      33.922  -9.315 -23.271  0.00  0.00    +0.037 C 
ATOM      6  C   UNL     1      34.841  -9.087 -24.295  0.00  0.00    +0.139 C 
ENDROOT
BRANCH   1  14
ATOM      7  O   UNL     1      34.864 -14.865 -20.720  0.00  0.00    -0.275 OA
ATOM      8  N   UNL     1      34.511 -13.882 -22.815  0.00  0.00    -0.302 N 
ATOM      9  C   UNL     1      32.858 -13.708 -21.268  0.00  0.00    +0.081 C 
ATOM     10  C   UNL     1      32.584 -13.018 -19.977  0.00  0.00    +0.108 C 
ATOM     11  C   UNL     1      31.959 -14.355 -20.277  0.00  0.00    +0.021 C 
ATOM     12  C   UNL     1      32.276 -13.149 -22.514  0.00  0.00    +0.033 C 
ATOM     13  C   UNL     1      34.189 -14.235 -21.519  0.00  0.00    +0.222 C 
ATOM     14  C   UNL     1      33.486 -13.086 -23.471  0.00  0.00    +0.095 C 
ATOM     15  H   UNL     1      35.354 -14.144 -23.252  0.00  0.00    +0.150 HD
BRANCH  10  17
ATOM     16  O   UNL     1      30.901 -11.636 -20.845  0.00  0.00    -0.250 OA
ATOM     17  C   UNL     1      31.637 -11.926 -19.913  0.00  0.00    +0.314 C 
BRANCH  17  18
ATOM     18  O   UNL     1      31.662 -11.282 -18.721  0.00  0.00    -0.480 OA
ATOM     19  H   UNL     1      31.019 -10.629 -18.527  0.00  0.00    +0.295 HD
ENDBRANCH  17  18
ENDBRANCH  10  17
ENDBRANCH   1  14
BRANCH   6  20
ATOM     20  O   UNL     1      35.273  -7.813 -24.557  0.00  0.00    -0.471 OA
BRANCH  20  21
ATOM     21  C   UNL     1      35.084  -6.848 -23.532  0.00  0.00    +0.229 C 
BRANCH  21  23
ATOM     22  N   UNL     1      32.025  -4.131 -24.782  0.00  0.00    -0.406 NA
ATOM     23  C   UNL     1      33.995  -5.905 -23.938  0.00  0.00    +0.012 C 
ATOM     24  C   UNL     1      32.865  -5.680 -23.139  0.00  0.00    +0.096 C 
ATOM     25  C   UNL     1      34.135  -5.245 -25.150  0.00  0.00    +0.028 C 
ATOM     26  C   UNL     1      31.892  -4.772 -23.606  0.00  0.00    +0.117 C 
ATOM     27  C   UNL     1      33.129  -4.376 -25.523  0.00  0.00    +0.130 C 
ATOM     28  C   UNL     1      32.695  -6.332 -21.906  0.00  0.00    -0.015 C 
ATOM     29  C   UNL     1      30.770  -4.550 -22.812  0.00  0.00    +0.028 C 
ATOM     30  C   UNL     1      31.563  -6.091 -21.132  0.00  0.00    -0.004 C 
ATOM     31  C   UNL     1      30.600  -5.198 -21.586  0.00  0.00    +0.002 C 
BRANCH  27  32
ATOM     32  C   UNL     1      33.198  -3.650 -26.769  0.00  0.00    +0.030 C 
ATOM     33  C   UNL     1      34.116  -4.030 -27.748  0.00  0.00    +0.003 C 
ATOM     34  C   UNL     1      32.346  -2.569 -26.995  0.00  0.00    +0.003 C 
ATOM     35  C   UNL     1      34.182  -3.330 -28.953  0.00  0.00    +0.000 C 
ATOM     36  C   UNL     1      32.412  -1.868 -28.199  0.00  0.00    +0.000 C 
ATOM     37  C   UNL     1      33.331  -2.249 -29.178  0.00  0.00    +0.000 C 
ENDBRANCH  27  32
ENDBRANCH  21  23
ENDBRANCH  20  21
ENDBRANCH   6  20
TORSDOF 7
ENDMDL
MODEL 9
REMARK VINA RESULT:      -9.8      6.539     11.597
REMARK  Name = 25049750
REMARK  7 active torsions:
REMARK  status: ('A' for Active; 'I' for Inactive)
REMARK    1  A    between atoms: C_1  and  C_14
REMARK    2  A    between atoms: C_6  and  O_20
REMARK    3  A    between atoms: C_10  and  C_17
REMARK    4  A    between atoms: C_17  and  O_18
REMARK    5  A    between atoms: O_20  and  C_21
REMARK    6  A    between atoms: C_21  and  C_23
REMARK    7  A    between atoms: C_27  and  C_32
REMARK                            x       y       z     vdW  Elec       q    Type
REMARK                         _______ _______ _______ _____ _____    ______ ____
ROOT
ATOM      1  C   UNL     1      33.937  -8.602 -23.079  0.00  0.00    -0.004 C 
ATOM      2  C   UNL     1      32.864  -8.887 -22.233  0.00  0.00    +0.000 C 
ATOM      3  C   UNL     1      34.590  -9.636 -23.748  0.00  0.00    +0.000 C 
ATOM      4  C   UNL     1      32.445 -10.205 -22.058  0.00  0.00    +0.037 C 
ATOM      5  C   UNL     1      34.171 -10.955 -23.573  0.00  0.00    +0.037 C 
ATOM      6  C   UNL     1      33.098 -11.240 -22.729  0.00  0.00    +0.139 C 
ENDROOT
BRANCH   1  14
ATOM      7  O   UNL     1      33.272  -5.352 -26.110  0.00  0.00    -0.275 OA
ATOM      8  N   UNL     1      34.425  -6.797 -24.673  0.00  0.00    -0.302 N 
ATOM      9  C   UNL     1      32.810  -5.475 -23.779  0.00  0.00    +0.081 C 
ATOM     10  C   UNL     1      31.328  -5.334 -23.790  0.00  0.00    +0.108 C 
ATOM     11  C   UNL     1      32.209  -4.127 -23.607  0.00  0.00    +0.021 C 
ATOM     12  C   UNL     1      33.456  -6.131 -22.614  0.00  0.00    +0.033 C 
ATOM     13  C   UNL     1      33.496  -5.832 -25.009  0.00  0.00    +0.222 C 
ATOM     14  C   UNL     1      34.390  -7.172 -23.269  0.00  0.00    +0.095 C 
ATOM     15  H   UNL     1      35.051  -7.193 -25.323  0.00  0.00    +0.150 HD
BRANCH  10  17
ATOM     16  O   UNL     1      30.096  -4.832 -21.859  0.00  0.00    -0.250 OA
ATOM     17  C   UNL     1      30.547  -5.675 -22.620  0.00  0.00    +0.314 C 
BRANCH  17  18
ATOM     18  O   UNL     1      30.380  -7.012 -22.476  0.00  0.00    -0.480 OA
ATOM     19  H   UNL     1      30.250  -7.552 -23.230  0.00  0.00    +0.295 HD
ENDBRANCH  17  18
ENDBRANCH  10  17
ENDBRANCH   1  14
BRANCH   6  20
ATOM     20  O   UNL     1      32.686 -12.536 -22.556  0.00  0.00    -0.471 OA
BRANCH  20  21
ATOM     21  C   UNL     1      33.473 -13.349 -21.697  0.00  0.00    +0.229 C 
BRANCH  21  23
ATOM     22  N   UNL     1      34.790 -16.868 -23.744  0.00  0.00    -0.406 NA
ATOM     23  C   UNL     1      33.923 -14.564 -22.446  0.00  0.00    +0.012 C 
ATOM     24  C   UNL     1      33.830 -14.659 -23.841  0.00  0.00    +0.096 C 
ATOM     25  C   UNL     1      34.448 -15.616 -21.707  0.00  0.00    +0.028 C 
ATOM     26  C   UNL     1      34.281 -15.846 -24.457  0.00  0.00    +0.117 C 
ATOM     27  C   UNL     1      34.863 -16.736 -22.400  0.00  0.00    +0.130 C 
ATOM     28  C   UNL     1      33.305 -13.611 -24.616  0.00  0.00    -0.015 C 
ATOM     29  C   UNL     1      34.188 -15.939 -25.843  0.00  0.00    +0.028 C 
ATOM     30  C   UNL     1      33.223 -13.732 -26.000  0.00  0.00    -0.004 C 
ATOM     31  C   UNL     1      33.666 -14.898 -26.614  0.00  0.00    +0.002 C 
BRANCH  27  32
ATOM     32  C   UNL     1      35.419 -17.874 -21.708  0.00  0.00    +0.030 C 
ATOM     33  C   UNL     1      36.795 -17.956 -21.493  0.00  0.00    +0.003 C 
ATOM     34  C   UNL     1      34.581 -18.893 -21.253  0.00  0.00    +0.003 C 
ATOM     35  C   UNL     1      37.332 -19.055 -20.823  0.00  0.00    +0.000 C 
ATOM     36  C   UNL     1      35.118 -19.992 -20.584  0.00  0.00    +0.000 C 
ATOM     37  C   UNL     1      36.494 -20.074 -20.370  0.00  0.00    +0.000 C 
ENDBRANCH  27  32
ENDBRANCH  21  23
ENDBRANCH  20  21
ENDBRANCH   6  20
TORSDOF 7
ENDMDL
