MODEL 1
REMARK VINA RESULT:     -12.1      0.000      0.000
REMARK  Name = 107971
REMARK  9 active torsions:
REMARK  status: ('A' for Active; 'I' for Inactive)
REMARK    1  A    between atoms: C_3  and  O_20
REMARK    2  A    between atoms: C_10  and  C_12
REMARK    3  A    between atoms: C_17  and  O_18
REMARK    4  A    between atoms: O_20  and  C_26
REMARK    5  A    between atoms: C_22  and  O_27
REMARK    6  A    between atoms: C_23  and  O_29
REMARK    7  A    between atoms: C_24  and  O_31
REMARK    8  A    between atoms: C_25  and  C_33
REMARK    9  A    between atoms: C_33  and  O_34
REMARK                            x       y       z     vdW  Elec       q    Type
REMARK                         _______ _______ _______ _____ _____    ______ ____
ROOT
ATOM      1  O   UNL     1      36.250 -21.642 -18.669  0.00  0.00    -0.450 OA
ATOM      2  O   UNL     1      32.631 -20.546 -20.201  0.00  0.00    -0.286 OA
ATOM      3  C   UNL     1      34.074 -23.506 -16.418  0.00  0.00    +0.144 C 
ATOM      4  C   UNL     1      35.217 -22.988 -17.027  0.00  0.00    +0.075 C 
ATOM      5  C   UNL     1      32.809 -23.157 -16.892  0.00  0.00    +0.037 C 
ATOM      6  C   UNL     1      35.092 -22.119 -18.111  0.00  0.00    +0.151 C 
ATOM      7  C   UNL     1      33.828 -21.771 -18.585  0.00  0.00    +0.074 C 
ATOM      8  C   UNL     1      32.681 -22.289 -17.977  0.00  0.00    +0.009 C 
ATOM      9  C   UNL     1      33.720 -20.854 -19.735  0.00  0.00    +0.202 C 
ATOM     10  C   UNL     1      35.001 -20.344 -20.298  0.00  0.00    +0.077 C 
ATOM     11  C   UNL     1      36.136 -20.773 -19.727  0.00  0.00    +0.183 C 
ENDROOT
BRANCH  10  12
ATOM     12  C   UNL     1      35.034 -19.393 -21.422  0.00  0.00    +0.006 C 
ATOM     13  C   UNL     1      34.808 -19.840 -22.726  0.00  0.00    +0.003 C 
ATOM     14  C   UNL     1      35.292 -18.040 -21.187  0.00  0.00    +0.003 C 
ATOM     15  C   UNL     1      34.840 -18.939 -23.789  0.00  0.00    +0.037 C 
ATOM     16  C   UNL     1      35.325 -17.140 -22.252  0.00  0.00    +0.037 C 
ATOM     17  C   UNL     1      35.099 -17.589 -23.553  0.00  0.00    +0.134 C 
BRANCH  17  18
ATOM     18  O   UNL     1      35.131 -16.710 -24.591  0.00  0.00    -0.506 OA
ATOM     19  H   UNL     1      34.357 -16.555 -25.097  0.00  0.00    +0.292 HD
ENDBRANCH  17  18
ENDBRANCH  10  12
BRANCH   3  20
ATOM     20  O   UNL     1      34.193 -24.353 -15.357  0.00  0.00    -0.450 OA
BRANCH  20  26
ATOM     21  O   UNL     1      36.387 -24.681 -14.635  0.00  0.00    -0.316 OA
ATOM     22  C   UNL     1      35.647 -24.220 -11.899  0.00  0.00    +0.173 C 
ATOM     23  C   UNL     1      36.996 -24.822 -12.293  0.00  0.00    +0.169 C 
ATOM     24  C   UNL     1      34.609 -24.419 -13.002  0.00  0.00    +0.210 C 
ATOM     25  C   UNL     1      37.410 -24.357 -13.692  0.00  0.00    +0.177 C 
ATOM     26  C   UNL     1      35.161 -24.006 -14.367  0.00  0.00    +0.318 C 
BRANCH  22  27
ATOM     27  O   UNL     1      35.205 -24.871 -10.707  0.00  0.00    -0.379 OA
ATOM     28  H   UNL     1      35.693 -24.519  -9.945  0.00  0.00    +0.211 HD
ENDBRANCH  22  27
BRANCH  23  29
ATOM     29  O   UNL     1      37.986 -24.417 -11.351  0.00  0.00    -0.379 OA
ATOM     30  H   UNL     1      37.696 -24.653 -10.456  0.00  0.00    +0.211 HD
ENDBRANCH  23  29
BRANCH  24  31
ATOM     31  O   UNL     1      33.461 -23.618 -12.723  0.00  0.00    -0.377 OA
ATOM     32  H   UNL     1      32.870 -23.622 -13.492  0.00  0.00    +0.211 HD
ENDBRANCH  24  31
BRANCH  25  33
ATOM     33  C   UNL     1      38.695 -25.035 -14.155  0.00  0.00    +0.169 C 
BRANCH  33  34
ATOM     34  O   UNL     1      38.354 -26.110 -15.011  0.00  0.00    -0.379 OA
ATOM     35  H   UNL     1      38.164 -26.899 -14.479  0.00  0.00    +0.211 HD
ENDBRANCH  33  34
ENDBRANCH  25  33
ENDBRANCH  20  26
ENDBRANCH   3  20
TORSDOF 9
ENDMDL
MODEL 2
REMARK VINA RESULT:     -11.1      1.763     10.122
REMARK  Name = 107971
REMARK  9 active torsions:
REMARK  status: ('A' for Active; 'I' for Inactive)
REMARK    1  A    between atoms: C_3  and  O_20
REMARK    2  A    between atoms: C_10  and  C_12
REMARK    3  A    between atoms: C_17  and  O_18
REMARK    4  A    between atoms: O_20  and  C_26
REMARK    5  A    between atoms: C_22  and  O_27
REMARK    6  A    between atoms: C_23  and  O_29
REMARK    7  A    between atoms: C_24  and  O_31
REMARK    8  A    between atoms: C_25  and  C_33
REMARK    9  A    between atoms: C_33  and  O_34
REMARK                            x       y       z     vdW  Elec       q    Type
REMARK                         _______ _______ _______ _____ _____    ______ ____
ROOT
ATOM      1  O   UNL     1      33.555 -22.854 -17.422  0.00  0.00    -0.450 OA
ATOM      2  O   UNL     1      37.503 -22.595 -16.427  0.00  0.00    -0.286 OA
ATOM      3  C   UNL     1      34.719 -20.789 -20.188  0.00  0.00    +0.144 C 
ATOM      4  C   UNL     1      33.889 -21.530 -19.349  0.00  0.00    +0.075 C 
ATOM      5  C   UNL     1      36.077 -20.656 -19.892  0.00  0.00    +0.037 C 
ATOM      6  C   UNL     1      34.419 -22.139 -18.210  0.00  0.00    +0.151 C 
ATOM      7  C   UNL     1      35.775 -22.006 -17.914  0.00  0.00    +0.074 C 
ATOM      8  C   UNL     1      36.609 -21.264 -18.754  0.00  0.00    +0.009 C 
ATOM      9  C   UNL     1      36.313 -22.662 -16.708  0.00  0.00    +0.202 C 
ATOM     10  C   UNL     1      35.337 -23.412 -15.870  0.00  0.00    +0.077 C 
ATOM     11  C   UNL     1      34.064 -23.444 -16.290  0.00  0.00    +0.183 C 
ENDROOT
BRANCH  10  12
ATOM     12  C   UNL     1      35.735 -24.081 -14.620  0.00  0.00    +0.006 C 
ATOM     13  C   UNL     1      36.472 -25.267 -14.663  0.00  0.00    +0.003 C 
ATOM     14  C   UNL     1      35.377 -23.531 -13.387  0.00  0.00    +0.003 C 
ATOM     15  C   UNL     1      36.849 -25.899 -13.478  0.00  0.00    +0.037 C 
ATOM     16  C   UNL     1      35.753 -24.164 -12.203  0.00  0.00    +0.037 C 
ATOM     17  C   UNL     1      36.489 -25.348 -12.248  0.00  0.00    +0.134 C 
BRANCH  17  18
ATOM     18  O   UNL     1      36.856 -25.966 -11.092  0.00  0.00    -0.506 OA
ATOM     19  H   UNL     1      36.554 -25.636 -10.269  0.00  0.00    +0.292 HD
ENDBRANCH  17  18
ENDBRANCH  10  12
BRANCH   3  20
ATOM     20  O   UNL     1      34.205 -20.191 -21.300  0.00  0.00    -0.450 OA
BRANCH  20  26
ATOM     21  O   UNL     1      34.399 -17.874 -21.104  0.00  0.00    -0.316 OA
ATOM     22  C   UNL     1      35.214 -17.623 -23.846  0.00  0.00    +0.173 C 
ATOM     23  C   UNL     1      34.794 -16.420 -23.003  0.00  0.00    +0.169 C 
ATOM     24  C   UNL     1      34.641 -18.922 -23.281  0.00  0.00    +0.210 C 
ATOM     25  C   UNL     1      35.061 -16.678 -21.517  0.00  0.00    +0.177 C 
ATOM     26  C   UNL     1      34.889 -19.031 -21.776  0.00  0.00    +0.318 C 
BRANCH  22  27
ATOM     27  O   UNL     1      34.724 -17.426 -25.173  0.00  0.00    -0.379 OA
ATOM     28  H   UNL     1      34.572 -18.286 -25.594  0.00  0.00    +0.211 HD
ENDBRANCH  22  27
BRANCH  23  29
ATOM     29  O   UNL     1      35.529 -15.272 -23.421  0.00  0.00    -0.379 OA
ATOM     30  H   UNL     1      36.385 -15.550 -23.781  0.00  0.00    +0.211 HD
ENDBRANCH  23  29
BRANCH  24  31
ATOM     31  O   UNL     1      35.268 -20.035 -23.919  0.00  0.00    -0.377 OA
ATOM     32  H   UNL     1      35.728 -19.732 -24.717  0.00  0.00    +0.211 HD
ENDBRANCH  24  31
BRANCH  25  33
ATOM     33  C   UNL     1      34.544 -15.539 -20.644  0.00  0.00    +0.169 C 
BRANCH  33  34
ATOM     34  O   UNL     1      33.504 -14.876 -21.340  0.00  0.00    -0.379 OA
ATOM     35  H   UNL     1      33.724 -14.831 -22.283  0.00  0.00    +0.211 HD
ENDBRANCH  33  34
ENDBRANCH  25  33
ENDBRANCH  20  26
ENDBRANCH   3  20
TORSDOF 9
ENDMDL
MODEL 3
REMARK VINA RESULT:     -10.8      2.125     10.470
REMARK  Name = 107971
REMARK  9 active torsions:
REMARK  status: ('A' for Active; 'I' for Inactive)
REMARK    1  A    between atoms: C_3  and  O_20
REMARK    2  A    between atoms: C_10  and  C_12
REMARK    3  A    between atoms: C_17  and  O_18
REMARK    4  A    between atoms: O_20  and  C_26
REMARK    5  A    between atoms: C_22  and  O_27
REMARK    6  A    between atoms: C_23  and  O_29
REMARK    7  A    between atoms: C_24  and  O_31
REMARK    8  A    between atoms: C_25  and  C_33
REMARK    9  A    between atoms: C_33  and  O_34
REMARK                            x       y       z     vdW  Elec       q    Type
REMARK                         _______ _______ _______ _____ _____    ______ ____
ROOT
ATOM      1  O   UNL     1      33.577 -20.914 -20.378  0.00  0.00    -0.450 OA
ATOM      2  O   UNL     1      37.099 -21.151 -18.330  0.00  0.00    -0.286 OA
ATOM      3  C   UNL     1      35.611 -18.721 -22.458  0.00  0.00    +0.144 C 
ATOM      4  C   UNL     1      34.529 -19.452 -21.969  0.00  0.00    +0.075 C 
ATOM      5  C   UNL     1      36.837 -18.755 -21.793  0.00  0.00    +0.037 C 
ATOM      6  C   UNL     1      34.675 -20.217 -20.812  0.00  0.00    +0.151 C 
ATOM      7  C   UNL     1      35.901 -20.251 -20.146  0.00  0.00    +0.074 C 
ATOM      8  C   UNL     1      36.986 -19.520 -20.635  0.00  0.00    +0.009 C 
ATOM      9  C   UNL     1      36.033 -21.070 -18.927  0.00  0.00    +0.202 C 
ATOM     10  C   UNL     1      34.812 -21.794 -18.480  0.00  0.00    +0.077 C 
ATOM     11  C   UNL     1      33.707 -21.657 -19.229  0.00  0.00    +0.183 C 
ENDROOT
BRANCH  10  12
ATOM     12  C   UNL     1      34.796 -22.616 -17.259  0.00  0.00    +0.006 C 
ATOM     13  C   UNL     1      35.948 -22.732 -16.477  0.00  0.00    +0.003 C 
ATOM     14  C   UNL     1      33.629 -23.283 -16.878  0.00  0.00    +0.003 C 
ATOM     15  C   UNL     1      35.932 -23.511 -15.320  0.00  0.00    +0.037 C 
ATOM     16  C   UNL     1      33.614 -24.062 -15.721  0.00  0.00    +0.037 C 
ATOM     17  C   UNL     1      34.766 -24.176 -14.942  0.00  0.00    +0.134 C 
BRANCH  17  18
ATOM     18  O   UNL     1      34.751 -24.936 -13.813  0.00  0.00    -0.506 OA
ATOM     19  H   UNL     1      35.523 -25.398 -13.550  0.00  0.00    +0.292 HD
ENDBRANCH  17  18
ENDBRANCH  10  12
BRANCH   3  20
ATOM     20  O   UNL     1      35.471 -17.971 -23.588  0.00  0.00    -0.450 OA
BRANCH  20  26
ATOM     21  O   UNL     1      34.670 -16.347 -22.117  0.00  0.00    -0.316 OA
ATOM     22  C   UNL     1      33.873 -14.648 -24.290  0.00  0.00    +0.173 C 
ATOM     23  C   UNL     1      33.414 -14.408 -22.852  0.00  0.00    +0.169 C 
ATOM     24  C   UNL     1      34.291 -16.102 -24.503  0.00  0.00    +0.210 C 
ATOM     25  C   UNL     1      34.438 -14.962 -21.857  0.00  0.00    +0.177 C 
ATOM     26  C   UNL     1      35.242 -16.574 -23.403  0.00  0.00    +0.318 C 
BRANCH  22  27
ATOM     27  O   UNL     1      32.782 -14.335 -25.159  0.00  0.00    -0.379 OA
ATOM     28  H   UNL     1      33.009 -14.591 -26.067  0.00  0.00    +0.211 HD
ENDBRANCH  22  27
BRANCH  23  29
ATOM     29  O   UNL     1      33.256 -13.008 -22.635  0.00  0.00    -0.379 OA
ATOM     30  H   UNL     1      32.700 -12.634 -23.336  0.00  0.00    +0.211 HD
ENDBRANCH  23  29
BRANCH  24  31
ATOM     31  O   UNL     1      34.962 -16.224 -25.756  0.00  0.00    -0.377 OA
ATOM     32  H   UNL     1      34.332 -16.519 -26.433  0.00  0.00    +0.211 HD
ENDBRANCH  24  31
BRANCH  25  33
ATOM     33  C   UNL     1      33.948 -14.839 -20.417  0.00  0.00    +0.169 C 
BRANCH  33  34
ATOM     34  O   UNL     1      32.533 -14.868 -20.419  0.00  0.00    -0.379 OA
ATOM     35  H   UNL     1      32.225 -15.548 -21.038  0.00  0.00    +0.211 HD
ENDBRANCH  33  34
ENDBRANCH  25  33
ENDBRANCH  20  26
ENDBRANCH   3  20
TORSDOF 9
ENDMDL
MODEL 4
REMARK VINA RESULT:     -10.6      1.580      3.197
REMARK  Name = 107971
REMARK  9 active torsions:
REMARK  status: ('A' for Active; 'I' for Inactive)
REMARK    1  A    between atoms: C_3  and  O_20
REMARK    2  A    between atoms: C_10  and  C_12
REMARK    3  A    between atoms: C_17  and  O_18
REMARK    4  A    between atoms: O_20  and  C_26
REMARK    5  A    between atoms: C_22  and  O_27
REMARK    6  A    between atoms: C_23  and  O_29
REMARK    7  A    between atoms: C_24  and  O_31
REMARK    8  A    between atoms: C_25  and  C_33
REMARK    9  A    between atoms: C_33  and  O_34
REMARK                            x       y       z     vdW  Elec       q    Type
REMARK                         _______ _______ _______ _____ _____    ______ ____
ROOT
ATOM      1  O   UNL     1      37.298 -19.742 -19.833  0.00  0.00    -0.450 OA
ATOM      2  O   UNL     1      33.526 -20.141 -21.334  0.00  0.00    -0.286 OA
ATOM      3  C   UNL     1      36.006 -22.232 -17.509  0.00  0.00    +0.144 C 
ATOM      4  C   UNL     1      36.863 -21.336 -18.146  0.00  0.00    +0.075 C 
ATOM      5  C   UNL     1      34.700 -22.402 -17.972  0.00  0.00    +0.037 C 
ATOM      6  C   UNL     1      36.411 -20.608 -19.248  0.00  0.00    +0.151 C 
ATOM      7  C   UNL     1      35.107 -20.777 -19.710  0.00  0.00    +0.074 C 
ATOM      8  C   UNL     1      34.246 -21.675 -19.073  0.00  0.00    +0.009 C 
ATOM      9  C   UNL     1      34.653 -20.000 -20.878  0.00  0.00    +0.202 C 
ATOM     10  C   UNL     1      35.641 -19.057 -21.471  0.00  0.00    +0.077 C 
ATOM     11  C   UNL     1      36.858 -19.009 -20.908  0.00  0.00    +0.183 C 
ENDROOT
BRANCH  10  12
ATOM     12  C   UNL     1      35.305 -18.195 -22.616  0.00  0.00    +0.006 C 
ATOM     13  C   UNL     1      35.334 -16.805 -22.479  0.00  0.00    +0.003 C 
ATOM     14  C   UNL     1      34.956 -18.764 -23.843  0.00  0.00    +0.003 C 
ATOM     15  C   UNL     1      35.015 -15.989 -23.564  0.00  0.00    +0.037 C 
ATOM     16  C   UNL     1      34.637 -17.947 -24.928  0.00  0.00    +0.037 C 
ATOM     17  C   UNL     1      34.667 -16.559 -24.788  0.00  0.00    +0.134 C 
BRANCH  17  18
ATOM     18  O   UNL     1      34.356 -15.762 -25.847  0.00  0.00    -0.506 OA
ATOM     19  H   UNL     1      35.038 -15.344 -26.334  0.00  0.00    +0.292 HD
ENDBRANCH  17  18
ENDBRANCH  10  12
BRANCH   3  20
ATOM     20  O   UNL     1      36.443 -22.944 -16.432  0.00  0.00    -0.450 OA
BRANCH  20  26
ATOM     21  O   UNL     1      34.402 -22.961 -15.301  0.00  0.00    -0.316 OA
ATOM     22  C   UNL     1      35.175 -25.260 -13.763  0.00  0.00    +0.173 C 
ATOM     23  C   UNL     1      33.958 -24.406 -13.406  0.00  0.00    +0.169 C 
ATOM     24  C   UNL     1      36.173 -24.472 -14.612  0.00  0.00    +0.210 C 
ATOM     25  C   UNL     1      33.386 -23.729 -14.654  0.00  0.00    +0.177 C 
ATOM     26  C   UNL     1      35.477 -23.767 -15.776  0.00  0.00    +0.318 C 
BRANCH  22  27
ATOM     27  O   UNL     1      35.803 -25.664 -12.545  0.00  0.00    -0.379 OA
ATOM     28  H   UNL     1      35.130 -25.987 -11.925  0.00  0.00    +0.211 HD
ENDBRANCH  22  27
BRANCH  23  29
ATOM     29  O   UNL     1      32.958 -25.235 -12.819  0.00  0.00    -0.379 OA
ATOM     30  H   UNL     1      32.539 -24.764 -12.082  0.00  0.00    +0.211 HD
ENDBRANCH  23  29
BRANCH  24  31
ATOM     31  O   UNL     1      37.147 -25.366 -15.149  0.00  0.00    -0.377 OA
ATOM     32  H   UNL     1      36.762 -26.252 -15.233  0.00  0.00    +0.211 HD
ENDBRANCH  24  31
BRANCH  25  33
ATOM     33  C   UNL     1      32.242 -22.781 -14.307  0.00  0.00    +0.169 C 
BRANCH  33  34
ATOM     34  O   UNL     1      32.179 -22.648 -12.899  0.00  0.00    -0.379 OA
ATOM     35  H   UNL     1      32.128 -21.709 -12.665  0.00  0.00    +0.211 HD
ENDBRANCH  33  34
ENDBRANCH  25  33
ENDBRANCH  20  26
ENDBRANCH   3  20
TORSDOF 9
ENDMDL
MODEL 5
REMARK VINA RESULT:     -10.6      1.186      2.605
REMARK  Name = 107971
REMARK  9 active torsions:
REMARK  status: ('A' for Active; 'I' for Inactive)
REMARK    1  A    between atoms: C_3  and  O_20
REMARK    2  A    between atoms: C_10  and  C_12
REMARK    3  A    between atoms: C_17  and  O_18
REMARK    4  A    between atoms: O_20  and  C_26
REMARK    5  A    between atoms: C_22  and  O_27
REMARK    6  A    between atoms: C_23  and  O_29
REMARK    7  A    between atoms: C_24  and  O_31
REMARK    8  A    between atoms: C_25  and  C_33
REMARK    9  A    between atoms: C_33  and  O_34
REMARK                            x       y       z     vdW  Elec       q    Type
REMARK                         _______ _______ _______ _____ _____    ______ ____
ROOT
ATOM      1  O   UNL     1      33.024 -21.840 -18.947  0.00  0.00    -0.450 OA
ATOM      2  O   UNL     1      36.794 -20.350 -19.409  0.00  0.00    -0.286 OA
ATOM      3  C   UNL     1      34.682 -23.588 -16.214  0.00  0.00    +0.144 C 
ATOM      4  C   UNL     1      33.700 -23.147 -17.100  0.00  0.00    +0.075 C 
ATOM      5  C   UNL     1      35.992 -23.121 -16.331  0.00  0.00    +0.037 C 
ATOM      6  C   UNL     1      34.031 -22.238 -18.105  0.00  0.00    +0.151 C 
ATOM      7  C   UNL     1      35.340 -21.771 -18.222  0.00  0.00    +0.074 C 
ATOM      8  C   UNL     1      36.325 -22.211 -17.335  0.00  0.00    +0.009 C 
ATOM      9  C   UNL     1      35.665 -20.807 -19.290  0.00  0.00    +0.202 C 
ATOM     10  C   UNL     1      34.548 -20.418 -20.193  0.00  0.00    +0.077 C 
ATOM     11  C   UNL     1      33.344 -20.958 -19.950  0.00  0.00    +0.183 C 
ENDROOT
BRANCH  10  12
ATOM     12  C   UNL     1      34.745 -19.494 -21.323  0.00  0.00    +0.006 C 
ATOM     13  C   UNL     1      34.637 -19.958 -22.636  0.00  0.00    +0.003 C 
ATOM     14  C   UNL     1      35.040 -18.149 -21.084  0.00  0.00    +0.003 C 
ATOM     15  C   UNL     1      34.824 -19.081 -23.704  0.00  0.00    +0.037 C 
ATOM     16  C   UNL     1      35.228 -17.274 -22.153  0.00  0.00    +0.037 C 
ATOM     17  C   UNL     1      35.120 -17.739 -23.464  0.00  0.00    +0.134 C 
BRANCH  17  18
ATOM     18  O   UNL     1      35.302 -16.885 -24.507  0.00  0.00    -0.506 OA
ATOM     19  H   UNL     1      35.227 -17.198 -25.387  0.00  0.00    +0.292 HD
ENDBRANCH  17  18
ENDBRANCH  10  12
BRANCH   3  20
ATOM     20  O   UNL     1      34.363 -24.477 -15.231  0.00  0.00    -0.450 OA
BRANCH  20  26
ATOM     21  O   UNL     1      35.905 -23.664 -13.681  0.00  0.00    -0.316 OA
ATOM     22  C   UNL     1      37.745 -25.790 -14.266  0.00  0.00    +0.173 C 
ATOM     23  C   UNL     1      38.151 -24.552 -13.466  0.00  0.00    +0.169 C 
ATOM     24  C   UNL     1      36.518 -25.511 -15.134  0.00  0.00    +0.210 C 
ATOM     25  C   UNL     1      36.942 -23.954 -12.742  0.00  0.00    +0.177 C 
ATOM     26  C   UNL     1      35.410 -24.834 -14.328  0.00  0.00    +0.318 C 
BRANCH  22  27
ATOM     27  O   UNL     1      38.845 -26.156 -15.102  0.00  0.00    -0.379 OA
ATOM     28  H   UNL     1      39.260 -25.355 -15.459  0.00  0.00    +0.211 HD
ENDBRANCH  22  27
BRANCH  23  29
ATOM     29  O   UNL     1      39.142 -24.915 -12.508  0.00  0.00    -0.379 OA
ATOM     30  H   UNL     1      38.769 -24.846 -11.616  0.00  0.00    +0.211 HD
ENDBRANCH  23  29
BRANCH  24  31
ATOM     31  O   UNL     1      36.010 -26.742 -15.646  0.00  0.00    -0.377 OA
ATOM     32  H   UNL     1      36.400 -26.915 -16.517  0.00  0.00    +0.211 HD
ENDBRANCH  24  31
BRANCH  25  33
ATOM     33  C   UNL     1      37.297 -22.652 -12.030  0.00  0.00    +0.169 C 
BRANCH  33  34
ATOM     34  O   UNL     1      37.664 -22.954 -10.696  0.00  0.00    -0.379 OA
ATOM     35  H   UNL     1      36.866 -23.119 -10.172  0.00  0.00    +0.211 HD
ENDBRANCH  33  34
ENDBRANCH  25  33
ENDBRANCH  20  26
ENDBRANCH   3  20
TORSDOF 9
ENDMDL
MODEL 6
REMARK VINA RESULT:     -10.1      5.458     13.141
REMARK  Name = 107971
REMARK  9 active torsions:
REMARK  status: ('A' for Active; 'I' for Inactive)
REMARK    1  A    between atoms: C_3  and  O_20
REMARK    2  A    between atoms: C_10  and  C_12
REMARK    3  A    between atoms: C_17  and  O_18
REMARK    4  A    between atoms: O_20  and  C_26
REMARK    5  A    between atoms: C_22  and  O_27
REMARK    6  A    between atoms: C_23  and  O_29
REMARK    7  A    between atoms: C_24  and  O_31
REMARK    8  A    between atoms: C_25  and  C_33
REMARK    9  A    between atoms: C_33  and  O_34
REMARK                            x       y       z     vdW  Elec       q    Type
REMARK                         _______ _______ _______ _____ _____    ______ ____
ROOT
ATOM      1  O   UNL     1      34.618 -14.994 -21.277  0.00  0.00    -0.450 OA
ATOM      2  O   UNL     1      34.729 -18.147 -23.864  0.00  0.00    -0.286 OA
ATOM      3  C   UNL     1      34.088 -13.202 -24.404  0.00  0.00    +0.144 C 
ATOM      4  C   UNL     1      34.255 -13.474 -23.047  0.00  0.00    +0.075 C 
ATOM      5  C   UNL     1      34.128 -14.240 -25.336  0.00  0.00    +0.037 C 
ATOM      6  C   UNL     1      34.461 -14.787 -22.623  0.00  0.00    +0.151 C 
ATOM      7  C   UNL     1      34.501 -15.824 -23.554  0.00  0.00    +0.074 C 
ATOM      8  C   UNL     1      34.335 -15.554 -24.915  0.00  0.00    +0.009 C 
ATOM      9  C   UNL     1      34.717 -17.205 -23.083  0.00  0.00    +0.202 C 
ATOM     10  C   UNL     1      34.902 -17.382 -21.616  0.00  0.00    +0.077 C 
ATOM     11  C   UNL     1      34.839 -16.282 -20.851  0.00  0.00    +0.183 C 
ENDROOT
BRANCH  10  12
ATOM     12  C   UNL     1      35.163 -18.702 -21.018  0.00  0.00    +0.006 C 
ATOM     13  C   UNL     1      34.100 -19.546 -20.690  0.00  0.00    +0.003 C 
ATOM     14  C   UNL     1      36.476 -19.114 -20.777  0.00  0.00    +0.003 C 
ATOM     15  C   UNL     1      34.348 -20.796 -20.123  0.00  0.00    +0.037 C 
ATOM     16  C   UNL     1      36.724 -20.364 -20.209  0.00  0.00    +0.037 C 
ATOM     17  C   UNL     1      35.660 -21.205 -19.882  0.00  0.00    +0.134 C 
BRANCH  17  18
ATOM     18  O   UNL     1      35.902 -22.425 -19.329  0.00  0.00    -0.506 OA
ATOM     19  H   UNL     1      36.386 -22.488 -18.529  0.00  0.00    +0.292 HD
ENDBRANCH  17  18
ENDBRANCH  10  12
BRANCH   3  20
ATOM     20  O   UNL     1      33.888 -11.920 -24.822  0.00  0.00    -0.450 OA
BRANCH  20  26
ATOM     21  O   UNL     1      32.857 -10.484 -23.300  0.00  0.00    -0.316 OA
ATOM     22  C   UNL     1      34.920  -8.513 -23.629  0.00  0.00    +0.173 C 
ATOM     23  C   UNL     1      33.596  -8.205 -22.931  0.00  0.00    +0.169 C 
ATOM     24  C   UNL     1      34.787  -9.719 -24.559  0.00  0.00    +0.210 C 
ATOM     25  C   UNL     1      33.005  -9.470 -22.304  0.00  0.00    +0.177 C 
ATOM     26  C   UNL     1      34.104 -10.892 -23.855  0.00  0.00    +0.318 C 
BRANCH  22  27
ATOM     27  O   UNL     1      35.296  -7.365 -24.391  0.00  0.00    -0.379 OA
ATOM     28  H   UNL     1      35.679  -7.648 -25.236  0.00  0.00    +0.211 HD
ENDBRANCH  22  27
BRANCH  23  29
ATOM     29  O   UNL     1      33.816  -7.233 -21.911  0.00  0.00    -0.379 OA
ATOM     30  H   UNL     1      34.186  -6.429 -22.306  0.00  0.00    +0.211 HD
ENDBRANCH  23  29
BRANCH  24  31
ATOM     31  O   UNL     1      36.085 -10.142 -24.976  0.00  0.00    -0.377 OA
ATOM     32  H   UNL     1      36.268  -9.796 -25.864  0.00  0.00    +0.211 HD
ENDBRANCH  24  31
BRANCH  25  33
ATOM     33  C   UNL     1      31.628  -9.212 -21.701  0.00  0.00    +0.169 C 
BRANCH  33  34
ATOM     34  O   UNL     1      31.797  -8.764 -20.368  0.00  0.00    -0.379 OA
ATOM     35  H   UNL     1      32.499  -9.279 -19.942  0.00  0.00    +0.211 HD
ENDBRANCH  33  34
ENDBRANCH  25  33
ENDBRANCH  20  26
ENDBRANCH   3  20
TORSDOF 9
ENDMDL
MODEL 7
REMARK VINA RESULT:      -9.8      2.093      3.971
REMARK  Name = 107971
REMARK  9 active torsions:
REMARK  status: ('A' for Active; 'I' for Inactive)
REMARK    1  A    between atoms: C_3  and  O_20
REMARK    2  A    between atoms: C_10  and  C_12
REMARK    3  A    between atoms: C_17  and  O_18
REMARK    4  A    between atoms: O_20  and  C_26
REMARK    5  A    between atoms: C_22  and  O_27
REMARK    6  A    between atoms: C_23  and  O_29
REMARK    7  A    between atoms: C_24  and  O_31
REMARK    8  A    between atoms: C_25  and  C_33
REMARK    9  A    between atoms: C_33  and  O_34
REMARK                            x       y       z     vdW  Elec       q    Type
REMARK                         _______ _______ _______ _____ _____    ______ ____
ROOT
ATOM      1  O   UNL     1      33.606 -21.233 -19.618  0.00  0.00    -0.450 OA
ATOM      2  O   UNL     1      37.162 -19.430 -20.483  0.00  0.00    -0.286 OA
ATOM      3  C   UNL     1      35.648 -22.666 -16.963  0.00  0.00    +0.144 C 
ATOM      4  C   UNL     1      34.558 -22.367 -17.778  0.00  0.00    +0.075 C 
ATOM      5  C   UNL     1      36.892 -22.087 -17.218  0.00  0.00    +0.037 C 
ATOM      6  C   UNL     1      34.713 -21.489 -18.851  0.00  0.00    +0.151 C 
ATOM      7  C   UNL     1      35.957 -20.911 -19.106  0.00  0.00    +0.074 C 
ATOM      8  C   UNL     1      37.051 -21.208 -18.290  0.00  0.00    +0.009 C 
ATOM      9  C   UNL     1      36.097 -19.982 -20.243  0.00  0.00    +0.202 C 
ATOM     10  C   UNL     1      34.875 -19.748 -21.061  0.00  0.00    +0.077 C 
ATOM     11  C   UNL     1      33.754 -20.382 -20.687  0.00  0.00    +0.183 C 
ENDROOT
BRANCH  10  12
ATOM     12  C   UNL     1      34.886 -18.874 -22.246  0.00  0.00    +0.006 C 
ATOM     13  C   UNL     1      35.095 -17.500 -22.102  0.00  0.00    +0.003 C 
ATOM     14  C   UNL     1      34.689 -19.416 -23.518  0.00  0.00    +0.003 C 
ATOM     15  C   UNL     1      35.105 -16.673 -23.225  0.00  0.00    +0.037 C 
ATOM     16  C   UNL     1      34.699 -18.588 -24.641  0.00  0.00    +0.037 C 
ATOM     17  C   UNL     1      34.907 -17.217 -24.494  0.00  0.00    +0.134 C 
BRANCH  17  18
ATOM     18  O   UNL     1      34.917 -16.409 -25.590  0.00  0.00    -0.506 OA
ATOM     19  H   UNL     1      35.678 -15.899 -25.788  0.00  0.00    +0.292 HD
ENDBRANCH  17  18
ENDBRANCH  10  12
BRANCH   3  20
ATOM     20  O   UNL     1      35.500 -23.525 -15.915  0.00  0.00    -0.450 OA
BRANCH  20  26
ATOM     21  O   UNL     1      33.213 -23.070 -15.968  0.00  0.00    -0.316 OA
ATOM     22  C   UNL     1      32.689 -25.022 -13.927  0.00  0.00    +0.173 C 
ATOM     23  C   UNL     1      31.649 -23.988 -14.359  0.00  0.00    +0.169 C 
ATOM     24  C   UNL     1      34.105 -24.558 -14.270  0.00  0.00    +0.210 C 
ATOM     25  C   UNL     1      31.879 -23.559 -15.810  0.00  0.00    +0.177 C 
ATOM     26  C   UNL     1      34.196 -24.071 -15.716  0.00  0.00    +0.318 C 
BRANCH  22  27
ATOM     27  O   UNL     1      32.576 -25.199 -12.514  0.00  0.00    -0.379 OA
ATOM     28  H   UNL     1      31.639 -25.246 -12.268  0.00  0.00    +0.211 HD
ENDBRANCH  22  27
BRANCH  23  29
ATOM     29  O   UNL     1      30.345 -24.551 -14.235  0.00  0.00    -0.379 OA
ATOM     30  H   UNL     1      29.979 -24.328 -13.366  0.00  0.00    +0.211 HD
ENDBRANCH  23  29
BRANCH  24  31
ATOM     31  O   UNL     1      35.012 -25.648 -14.108  0.00  0.00    -0.377 OA
ATOM     32  H   UNL     1      34.514 -26.458 -13.917  0.00  0.00    +0.211 HD
ENDBRANCH  24  31
BRANCH  25  33
ATOM     33  C   UNL     1      30.927 -22.443 -16.227  0.00  0.00    +0.169 C 
BRANCH  33  34
ATOM     34  O   UNL     1      29.695 -23.024 -16.615  0.00  0.00    -0.379 OA
ATOM     35  H   UNL     1      29.337 -22.543 -17.377  0.00  0.00    +0.211 HD
ENDBRANCH  33  34
ENDBRANCH  25  33
ENDBRANCH  20  26
ENDBRANCH   3  20
TORSDOF 9
ENDMDL
MODEL 8
REMARK VINA RESULT:      -9.7      6.012     13.592
REMARK  Name = 107971
REMARK  9 active torsions:
REMARK  status: ('A' for Active; 'I' for Inactive)
REMARK    1  A    between atoms: C_3  and  O_20
REMARK    2  A    between atoms: C_10  and  C_12
REMARK    3  A    between atoms: C_17  and  O_18
REMARK    4  A    between atoms: O_20  and  C_26
REMARK    5  A    between atoms: C_22  and  O_27
REMARK    6  A    between atoms: C_23  and  O_29
REMARK    7  A    between atoms: C_24  and  O_31
REMARK    8  A    between atoms: C_25  and  C_33
REMARK    9  A    between atoms: C_33  and  O_34
REMARK                            x       y       z     vdW  Elec       q    Type
REMARK                         _______ _______ _______ _____ _____    ______ ____
ROOT
ATOM      1  O   UNL     1      35.129 -15.989 -23.849  0.00  0.00    -0.450 OA
ATOM      2  O   UNL     1      34.319 -16.170 -19.854  0.00  0.00    -0.286 OA
ATOM      3  C   UNL     1      33.957 -12.578 -23.335  0.00  0.00    +0.144 C 
ATOM      4  C   UNL     1      34.452 -13.729 -23.947  0.00  0.00    +0.075 C 
ATOM      5  C   UNL     1      33.651 -12.585 -21.974  0.00  0.00    +0.037 C 
ATOM      6  C   UNL     1      34.641 -14.888 -23.194  0.00  0.00    +0.151 C 
ATOM      7  C   UNL     1      34.335 -14.895 -21.833  0.00  0.00    +0.074 C 
ATOM      8  C   UNL     1      33.839 -13.743 -21.218  0.00  0.00    +0.009 C 
ATOM      9  C   UNL     1      34.546 -16.131 -21.056  0.00  0.00    +0.202 C 
ATOM     10  C   UNL     1      35.059 -17.307 -21.810  0.00  0.00    +0.077 C 
ATOM     11  C   UNL     1      35.303 -17.140 -23.119  0.00  0.00    +0.183 C 
ENDROOT
BRANCH  10  12
ATOM     12  C   UNL     1      35.278 -18.612 -21.164  0.00  0.00    +0.006 C 
ATOM     13  C   UNL     1      36.573 -19.031 -20.850  0.00  0.00    +0.003 C 
ATOM     14  C   UNL     1      34.191 -19.435 -20.862  0.00  0.00    +0.003 C 
ATOM     15  C   UNL     1      36.779 -20.267 -20.238  0.00  0.00    +0.037 C 
ATOM     16  C   UNL     1      34.397 -20.671 -20.250  0.00  0.00    +0.037 C 
ATOM     17  C   UNL     1      35.692 -21.088 -19.938  0.00  0.00    +0.134 C 
BRANCH  17  18
ATOM     18  O   UNL     1      35.893 -22.294 -19.341  0.00  0.00    -0.506 OA
ATOM     19  H   UNL     1      35.827 -22.371 -18.409  0.00  0.00    +0.292 HD
ENDBRANCH  17  18
ENDBRANCH  10  12
BRANCH   3  20
ATOM     20  O   UNL     1      33.770 -11.444 -24.069  0.00  0.00    -0.450 OA
BRANCH  20  26
ATOM     21  O   UNL     1      32.502  -9.674 -23.231  0.00  0.00    -0.316 OA
ATOM     22  C   UNL     1      34.701  -7.848 -23.522  0.00  0.00    +0.173 C 
ATOM     23  C   UNL     1      33.272  -7.375 -23.257  0.00  0.00    +0.169 C 
ATOM     24  C   UNL     1      34.715  -9.247 -24.137  0.00  0.00    +0.210 C 
ATOM     25  C   UNL     1      32.476  -8.444 -22.504  0.00  0.00    +0.177 C 
ATOM     26  C   UNL     1      33.818 -10.208 -23.356  0.00  0.00    +0.318 C 
BRANCH  22  27
ATOM     27  O   UNL     1      35.312  -6.926 -24.425  0.00  0.00    -0.379 OA
ATOM     28  H   UNL     1      36.234  -7.184 -24.578  0.00  0.00    +0.211 HD
ENDBRANCH  22  27
BRANCH  23  29
ATOM     29  O   UNL     1      33.308  -6.180 -22.480  0.00  0.00    -0.379 OA
ATOM     30  H   UNL     1      32.492  -5.677 -22.623  0.00  0.00    +0.211 HD
ENDBRANCH  23  29
BRANCH  24  31
ATOM     31  O   UNL     1      36.046  -9.761 -24.116  0.00  0.00    -0.377 OA
ATOM     32  H   UNL     1      36.412  -9.748 -25.014  0.00  0.00    +0.211 HD
ENDBRANCH  24  31
BRANCH  25  33
ATOM     33  C   UNL     1      31.015  -8.043 -22.330  0.00  0.00    +0.169 C 
BRANCH  33  34
ATOM     34  O   UNL     1      30.742  -6.952 -23.191  0.00  0.00    -0.379 OA
ATOM     35  H   UNL     1      30.252  -6.271 -22.704  0.00  0.00    +0.211 HD
ENDBRANCH  33  34
ENDBRANCH  25  33
ENDBRANCH  20  26
ENDBRANCH   3  20
TORSDOF 9
ENDMDL
MODEL 9
REMARK VINA RESULT:      -9.5      1.509      2.262
REMARK  Name = 107971
REMARK  9 active torsions:
REMARK  status: ('A' for Active; 'I' for Inactive)
REMARK    1  A    between atoms: C_3  and  O_20
REMARK    2  A    between atoms: C_10  and  C_12
REMARK    3  A    between atoms: C_17  and  O_18
REMARK    4  A    between atoms: O_20  and  C_26
REMARK    5  A    between atoms: C_22  and  O_27
REMARK    6  A    between atoms: C_23  and  O_29
REMARK    7  A    between atoms: C_24  and  O_31
REMARK    8  A    between atoms: C_25  and  C_33
REMARK    9  A    between atoms: C_33  and  O_34
REMARK                            x       y       z     vdW  Elec       q    Type
REMARK                         _______ _______ _______ _____ _____    ______ ____
ROOT
ATOM      1  O   UNL     1      36.183 -21.465 -19.115  0.00  0.00    -0.450 OA
ATOM      2  O   UNL     1      32.544 -20.258 -20.509  0.00  0.00    -0.286 OA
ATOM      3  C   UNL     1      34.038 -23.302 -16.814  0.00  0.00    +0.144 C 
ATOM      4  C   UNL     1      35.172 -22.806 -17.455  0.00  0.00    +0.075 C 
ATOM      5  C   UNL     1      32.767 -22.915 -17.240  0.00  0.00    +0.037 C 
ATOM      6  C   UNL     1      35.033 -21.920 -18.524  0.00  0.00    +0.151 C 
ATOM      7  C   UNL     1      33.763 -21.533 -18.950  0.00  0.00    +0.074 C 
ATOM      8  C   UNL     1      32.625 -22.029 -18.309  0.00  0.00    +0.009 C 
ATOM      9  C   UNL     1      33.640 -20.599 -20.084  0.00  0.00    +0.202 C 
ATOM     10  C   UNL     1      34.914 -20.115 -20.685  0.00  0.00    +0.077 C 
ATOM     11  C   UNL     1      36.056 -20.580 -20.159  0.00  0.00    +0.183 C 
ENDROOT
BRANCH  10  12
ATOM     12  C   UNL     1      34.934 -19.151 -21.797  0.00  0.00    +0.006 C 
ATOM     13  C   UNL     1      35.161 -17.796 -21.547  0.00  0.00    +0.003 C 
ATOM     14  C   UNL     1      34.725 -19.589 -23.107  0.00  0.00    +0.003 C 
ATOM     15  C   UNL     1      35.180 -16.884 -22.602  0.00  0.00    +0.037 C 
ATOM     16  C   UNL     1      34.743 -18.676 -24.162  0.00  0.00    +0.037 C 
ATOM     17  C   UNL     1      34.971 -17.323 -23.909  0.00  0.00    +0.134 C 
BRANCH  17  18
ATOM     18  O   UNL     1      34.989 -16.433 -24.938  0.00  0.00    -0.506 OA
ATOM     19  H   UNL     1      35.535 -15.673 -24.889  0.00  0.00    +0.292 HD
ENDBRANCH  17  18
ENDBRANCH  10  12
BRANCH   3  20
ATOM     20  O   UNL     1      34.170 -24.166 -15.768  0.00  0.00    -0.450 OA
BRANCH  20  26
ATOM     21  O   UNL     1      36.309 -23.236 -15.715  0.00  0.00    -0.316 OA
ATOM     22  C   UNL     1      37.389 -25.575 -14.445  0.00  0.00    +0.173 C 
ATOM     23  C   UNL     1      38.276 -24.492 -15.060  0.00  0.00    +0.169 C 
ATOM     24  C   UNL     1      35.985 -25.549 -15.049  0.00  0.00    +0.210 C 
ATOM     25  C   UNL     1      37.567 -23.136 -15.045  0.00  0.00    +0.177 C 
ATOM     26  C   UNL     1      35.412 -24.132 -15.063  0.00  0.00    +0.318 C 
BRANCH  22  27
ATOM     27  O   UNL     1      37.994 -26.842 -14.704  0.00  0.00    -0.379 OA
ATOM     28  H   UNL     1      37.822 -27.102 -15.622  0.00  0.00    +0.211 HD
ENDBRANCH  22  27
BRANCH  23  29
ATOM     29  O   UNL     1      39.488 -24.398 -14.316  0.00  0.00    -0.379 OA
ATOM     30  H   UNL     1      40.153 -23.925 -14.840  0.00  0.00    +0.211 HD
ENDBRANCH  23  29
BRANCH  24  31
ATOM     31  O   UNL     1      35.119 -26.374 -14.271  0.00  0.00    -0.377 OA
ATOM     32  H   UNL     1      35.304 -26.238 -13.329  0.00  0.00    +0.211 HD
ENDBRANCH  24  31
BRANCH  25  33
ATOM     33  C   UNL     1      38.385 -22.063 -15.758  0.00  0.00    +0.169 C 
BRANCH  33  34
ATOM     34  O   UNL     1      37.518 -21.005 -16.123  0.00  0.00    -0.379 OA
ATOM     35  H   UNL     1      37.952 -20.447 -16.787  0.00  0.00    +0.211 HD
ENDBRANCH  33  34
ENDBRANCH  25  33
ENDBRANCH  20  26
ENDBRANCH   3  20
TORSDOF 9
ENDMDL
