MODEL 1
REMARK VINA RESULT:     -11.6      0.000      0.000
REMARK  Name = 46937052
REMARK  7 active torsions:
REMARK  status: ('A' for Active; 'I' for Inactive)
REMARK    1  A    between atoms: O_1  and  C_3
REMARK    2  A    between atoms: O_1  and  C_17
REMARK    3  A    between atoms: C_4  and  C_11
REMARK    4  A    between atoms: C_17  and  C_18
REMARK    5  A    between atoms: C_18  and  N_19
REMARK    6  A    between atoms: C_18  and  C_23
REMARK    7  A    between atoms: C_23  and  C_25
REMARK                            x       y       z     vdW  Elec       q    Type
REMARK                         _______ _______ _______ _____ _____    ______ ____
ROOT
ATOM      1  O   UNL     1      32.932 -22.327 -18.445  0.00  0.00    -0.476 OA
ENDROOT
BRANCH   1   3
ATOM      2  N   UNL     1      31.780 -23.597 -15.213  0.00  0.00    -0.239 NA
ATOM      3  C   UNL     1      32.973 -22.836 -17.173  0.00  0.00    +0.158 C 
ATOM      4  C   UNL     1      34.197 -23.628 -15.260  0.00  0.00    +0.039 C 
ATOM      5  C   UNL     1      34.185 -23.110 -16.550  0.00  0.00    +0.042 C 
ATOM      6  C   UNL     1      31.809 -23.095 -16.469  0.00  0.00    +0.136 C 
ATOM      7  C   UNL     1      32.977 -23.851 -14.640  0.00  0.00    +0.101 C 
BRANCH   4  11
ATOM      8  N   UNL     1      36.252 -24.825 -15.075  0.00  0.00    -0.264 NA
ATOM      9  N   UNL     1      38.853 -24.514 -12.452  0.00  0.00    -0.150 NA
ATOM     10  N   UNL     1      38.676 -23.573 -11.346  0.00  0.00    -0.147 NA
ATOM     11  C   UNL     1      35.477 -23.931 -14.565  0.00  0.00    +0.078 C 
ATOM     12  C   UNL     1      36.873 -23.439 -12.710  0.00  0.00    +0.040 C 
ATOM     13  C   UNL     1      37.801 -24.418 -13.221  0.00  0.00    +0.107 C 
ATOM     14  C   UNL     1      37.531 -25.186 -14.461  0.00  0.00    +0.173 C 
ATOM     15  C   UNL     1      35.729 -23.163 -13.313  0.00  0.00    +0.022 C 
ATOM     16  C   UNL     1      37.533 -22.971 -11.513  0.00  0.00    +0.123 C 
ENDBRANCH   4  11
ENDBRANCH   1   3
BRANCH   1  17
ATOM     17  C   UNL     1      34.176 -21.979 -19.037  0.00  0.00    +0.184 C 
BRANCH  17  18
ATOM     18  C   UNL     1      33.960 -21.019 -20.214  0.00  0.00    -0.017 C 
BRANCH  18  19
ATOM     19  N   UNL     1      32.688 -20.321 -20.010  0.00  0.00    +0.384 N 
ATOM     20  H   UNL     1      32.311 -20.032 -20.913  0.00  0.00    -0.089 HD
ATOM     21  H   UNL     1      32.841 -19.499 -19.426  0.00  0.00    -0.089 HD
ATOM     22  H   UNL     1      32.027 -20.948 -19.551  0.00  0.00    -0.089 HD
ENDBRANCH  18  19
BRANCH  18  23
ATOM     23  C   UNL     1      35.094 -19.974 -20.360  0.00  0.00    +0.010 C 
BRANCH  23  25
ATOM     24  N   UNL     1      34.984 -18.806 -23.910  0.00  0.00    -0.244 NA
ATOM     25  C   UNL     1      35.018 -19.149 -21.580  0.00  0.00    -0.004 C 
ATOM     26  C   UNL     1      34.898 -17.838 -21.818  0.00  0.00    +0.011 C 
ATOM     27  C   UNL     1      34.876 -17.613 -23.249  0.00  0.00    +0.080 C 
ATOM     28  C   UNL     1      35.064 -19.680 -22.952  0.00  0.00    +0.094 C 
ATOM     29  C   UNL     1      34.799 -16.751 -20.877  0.00  0.00    -0.020 C 
ATOM     30  C   UNL     1      34.762 -16.377 -23.748  0.00  0.00    +0.015 C 
ATOM     31  C   UNL     1      34.653 -15.170 -22.836  0.00  0.00    -0.020 C 
ATOM     32  C   UNL     1      34.684 -15.499 -21.354  0.00  0.00    +0.052 C 
ENDBRANCH  23  25
ENDBRANCH  18  23
ENDBRANCH  17  18
ENDBRANCH   1  17
TORSDOF 7
ENDMDL
MODEL 2
REMARK VINA RESULT:     -11.6      2.035      3.121
REMARK  Name = 46937052
REMARK  7 active torsions:
REMARK  status: ('A' for Active; 'I' for Inactive)
REMARK    1  A    between atoms: O_1  and  C_3
REMARK    2  A    between atoms: O_1  and  C_17
REMARK    3  A    between atoms: C_4  and  C_11
REMARK    4  A    between atoms: C_17  and  C_18
REMARK    5  A    between atoms: C_18  and  N_19
REMARK    6  A    between atoms: C_18  and  C_23
REMARK    7  A    between atoms: C_23  and  C_25
REMARK                            x       y       z     vdW  Elec       q    Type
REMARK                         _______ _______ _______ _____ _____    ______ ____
ROOT
ATOM      1  O   UNL     1      35.789 -20.877 -20.188  0.00  0.00    -0.476 OA
ENDROOT
BRANCH   1   3
ATOM      2  N   UNL     1      32.900 -22.299 -18.451  0.00  0.00    -0.239 NA
ATOM      3  C   UNL     1      35.052 -21.511 -19.222  0.00  0.00    +0.158 C 
ATOM      4  C   UNL     1      34.879 -22.638 -17.104  0.00  0.00    +0.039 C 
ATOM      5  C   UNL     1      35.652 -21.998 -18.066  0.00  0.00    +0.042 C 
ATOM      6  C   UNL     1      33.685 -21.685 -19.365  0.00  0.00    +0.136 C 
ATOM      7  C   UNL     1      33.519 -22.761 -17.342  0.00  0.00    +0.101 C 
BRANCH   4  11
ATOM      8  N   UNL     1      36.775 -23.243 -15.789  0.00  0.00    -0.264 NA
ATOM      9  N   UNL     1      36.827 -24.649 -12.360  0.00  0.00    -0.150 NA
ATOM     10  N   UNL     1      35.575 -24.910 -11.651  0.00  0.00    -0.147 NA
ATOM     11  C   UNL     1      35.491 -23.170 -15.856  0.00  0.00    +0.078 C 
ATOM     12  C   UNL     1      35.091 -24.056 -13.691  0.00  0.00    +0.040 C 
ATOM     13  C   UNL     1      36.520 -24.159 -13.531  0.00  0.00    +0.107 C 
ATOM     14  C   UNL     1      37.464 -23.752 -14.601  0.00  0.00    +0.173 C 
ATOM     15  C   UNL     1      34.532 -23.590 -14.796  0.00  0.00    +0.022 C 
ATOM     16  C   UNL     1      34.594 -24.566 -12.435  0.00  0.00    +0.123 C 
ENDBRANCH   4  11
ENDBRANCH   1   3
BRANCH   1  17
ATOM     17  C   UNL     1      35.109 -19.921 -20.990  0.00  0.00    +0.184 C 
BRANCH  17  18
ATOM     18  C   UNL     1      35.870 -18.590 -20.998  0.00  0.00    -0.017 C 
BRANCH  18  19
ATOM     19  N   UNL     1      37.250 -18.847 -20.577  0.00  0.00    +0.384 N 
ATOM     20  H   UNL     1      37.674 -17.977 -20.254  0.00  0.00    -0.089 HD
ATOM     21  H   UNL     1      37.784 -19.214 -21.365  0.00  0.00    -0.089 HD
ATOM     22  H   UNL     1      37.252 -19.528 -19.818  0.00  0.00    -0.089 HD
ENDBRANCH  18  19
BRANCH  18  23
ATOM     23  C   UNL     1      35.884 -17.907 -22.388  0.00  0.00    +0.010 C 
BRANCH  23  25
ATOM     24  N   UNL     1      33.960 -14.805 -21.585  0.00  0.00    -0.244 NA
ATOM     25  C   UNL     1      35.084 -16.672 -22.477  0.00  0.00    -0.004 C 
ATOM     26  C   UNL     1      34.552 -15.971 -23.485  0.00  0.00    +0.011 C 
ATOM     27  C   UNL     1      33.857 -14.819 -22.949  0.00  0.00    +0.080 C 
ATOM     28  C   UNL     1      34.662 -15.866 -21.321  0.00  0.00    +0.094 C 
ATOM     29  C   UNL     1      34.606 -16.235 -24.900  0.00  0.00    -0.020 C 
ATOM     30  C   UNL     1      33.235 -13.953 -23.759  0.00  0.00    +0.015 C 
ATOM     31  C   UNL     1      33.237 -14.148 -25.263  0.00  0.00    -0.020 C 
ATOM     32  C   UNL     1      33.990 -15.379 -25.736  0.00  0.00    +0.052 C 
ENDBRANCH  23  25
ENDBRANCH  18  23
ENDBRANCH  17  18
ENDBRANCH   1  17
TORSDOF 7
ENDMDL
MODEL 3
REMARK VINA RESULT:     -11.4      3.013      4.842
REMARK  Name = 46937052
REMARK  7 active torsions:
REMARK  status: ('A' for Active; 'I' for Inactive)
REMARK    1  A    between atoms: O_1  and  C_3
REMARK    2  A    between atoms: O_1  and  C_17
REMARK    3  A    between atoms: C_4  and  C_11
REMARK    4  A    between atoms: C_17  and  C_18
REMARK    5  A    between atoms: C_18  and  N_19
REMARK    6  A    between atoms: C_18  and  C_23
REMARK    7  A    between atoms: C_23  and  C_25
REMARK                            x       y       z     vdW  Elec       q    Type
REMARK                         _______ _______ _______ _____ _____    ______ ____
ROOT
ATOM      1  O   UNL     1      33.990 -19.983 -21.103  0.00  0.00    -0.476 OA
ENDROOT
BRANCH   1   3
ATOM      2  N   UNL     1      36.308 -21.818 -18.948  0.00  0.00    -0.239 NA
ATOM      3  C   UNL     1      34.445 -20.767 -20.075  0.00  0.00    +0.158 C 
ATOM      4  C   UNL     1      34.058 -22.092 -18.106  0.00  0.00    +0.039 C 
ATOM      5  C   UNL     1      33.568 -21.301 -19.138  0.00  0.00    +0.042 C 
ATOM      6  C   UNL     1      35.794 -21.053 -19.937  0.00  0.00    +0.136 C 
ATOM      7  C   UNL     1      35.425 -22.319 -18.056  0.00  0.00    +0.101 C 
BRANCH   4  11
ATOM      8  N   UNL     1      31.876 -22.617 -17.297  0.00  0.00    -0.264 NA
ATOM      9  N   UNL     1      30.957 -24.353 -14.153  0.00  0.00    -0.150 NA
ATOM     10  N   UNL     1      31.997 -24.796 -13.225  0.00  0.00    -0.147 NA
ATOM     11  C   UNL     1      33.146 -22.679 -17.087  0.00  0.00    +0.078 C 
ATOM     12  C   UNL     1      32.986 -23.799 -15.001  0.00  0.00    +0.040 C 
ATOM     13  C   UNL     1      31.553 -23.781 -15.166  0.00  0.00    +0.107 C 
ATOM     14  C   UNL     1      30.904 -23.169 -16.351  0.00  0.00    +0.173 C 
ATOM     15  C   UNL     1      33.810 -23.277 -15.895  0.00  0.00    +0.022 C 
ATOM     16  C   UNL     1      33.150 -24.466 -13.731  0.00  0.00    +0.123 C 
ENDBRANCH   4  11
ENDBRANCH   1   3
BRANCH   1  17
ATOM     17  C   UNL     1      34.848 -19.838 -22.227  0.00  0.00    +0.184 C 
BRANCH  17  18
ATOM     18  C   UNL     1      35.374 -18.400 -22.318  0.00  0.00    -0.017 C 
BRANCH  18  19
ATOM     19  N   UNL     1      36.839 -18.445 -22.294  0.00  0.00    +0.384 N 
ATOM     20  H   UNL     1      37.175 -19.001 -23.081  0.00  0.00    -0.089 HD
ATOM     21  H   UNL     1      37.152 -18.868 -21.420  0.00  0.00    -0.089 HD
ATOM     22  H   UNL     1      37.209 -17.497 -22.365  0.00  0.00    -0.089 HD
ENDBRANCH  18  19
BRANCH  18  23
ATOM     23  C   UNL     1      34.911 -17.663 -23.599  0.00  0.00    +0.010 C 
BRANCH  23  25
ATOM     24  N   UNL     1      34.531 -14.227 -22.178  0.00  0.00    -0.244 NA
ATOM     25  C   UNL     1      34.653 -16.223 -23.422  0.00  0.00    -0.004 C 
ATOM     26  C   UNL     1      34.255 -15.236 -24.234  0.00  0.00    +0.011 C 
ATOM     27  C   UNL     1      34.176 -14.002 -23.481  0.00  0.00    +0.080 C 
ATOM     28  C   UNL     1      34.802 -15.497 -22.151  0.00  0.00    +0.094 C 
ATOM     29  C   UNL     1      33.936 -15.291 -25.638  0.00  0.00    -0.020 C 
ATOM     30  C   UNL     1      33.799 -12.860 -24.070  0.00  0.00    +0.015 C 
ATOM     31  C   UNL     1      33.442 -12.820 -25.543  0.00  0.00    -0.020 C 
ATOM     32  C   UNL     1      33.554 -14.157 -26.253  0.00  0.00    +0.052 C 
ENDBRANCH  23  25
ENDBRANCH  18  23
ENDBRANCH  17  18
ENDBRANCH   1  17
TORSDOF 7
ENDMDL
MODEL 4
REMARK VINA RESULT:     -11.4      3.901     11.280
REMARK  Name = 46937052
REMARK  7 active torsions:
REMARK  status: ('A' for Active; 'I' for Inactive)
REMARK    1  A    between atoms: O_1  and  C_3
REMARK    2  A    between atoms: O_1  and  C_17
REMARK    3  A    between atoms: C_4  and  C_11
REMARK    4  A    between atoms: C_17  and  C_18
REMARK    5  A    between atoms: C_18  and  N_19
REMARK    6  A    between atoms: C_18  and  C_23
REMARK    7  A    between atoms: C_23  and  C_25
REMARK                            x       y       z     vdW  Elec       q    Type
REMARK                         _______ _______ _______ _____ _____    ______ ____
ROOT
ATOM      1  O   UNL     1      35.826 -17.443 -22.628  0.00  0.00    -0.476 OA
ENDROOT
BRANCH   1   3
ATOM      2  N   UNL     1      34.259 -15.910 -25.557  0.00  0.00    -0.239 NA
ATOM      3  C   UNL     1      35.146 -16.534 -23.396  0.00  0.00    +0.158 C 
ATOM      4  C   UNL     1      33.972 -14.450 -23.652  0.00  0.00    +0.039 C 
ATOM      5  C   UNL     1      34.659 -15.353 -22.848  0.00  0.00    +0.042 C 
ATOM      6  C   UNL     1      34.921 -16.764 -24.744  0.00  0.00    +0.136 C 
ATOM      7  C   UNL     1      33.801 -14.773 -24.989  0.00  0.00    +0.101 C 
BRANCH   4  11
ATOM      8  N   UNL     1      33.782 -12.073 -23.664  0.00  0.00    -0.264 NA
ATOM      9  N   UNL     1      31.834  -9.921 -21.358  0.00  0.00    -0.150 NA
ATOM     10  N   UNL     1      31.066 -10.517 -20.266  0.00  0.00    -0.147 NA
ATOM     11  C   UNL     1      33.440 -13.177 -23.096  0.00  0.00    +0.078 C 
ATOM     12  C   UNL     1      32.089 -12.173 -21.423  0.00  0.00    +0.040 C 
ATOM     13  C   UNL     1      32.414 -10.895 -22.007  0.00  0.00    +0.107 C 
ATOM     14  C   UNL     1      33.304 -10.773 -23.188  0.00  0.00    +0.173 C 
ATOM     15  C   UNL     1      32.559 -13.313 -21.902  0.00  0.00    +0.022 C 
ATOM     16  C   UNL     1      31.229 -11.808 -20.321  0.00  0.00    +0.123 C 
ENDBRANCH   4  11
ENDBRANCH   1   3
BRANCH   1  17
ATOM     17  C   UNL     1      35.200 -17.856 -21.420  0.00  0.00    +0.184 C 
BRANCH  17  18
ATOM     18  C   UNL     1      34.804 -19.336 -21.501  0.00  0.00    -0.017 C 
BRANCH  18  19
ATOM     19  N   UNL     1      34.901 -19.762 -22.899  0.00  0.00    +0.384 N 
ATOM     20  H   UNL     1      34.580 -20.726 -22.984  0.00  0.00    -0.089 HD
ATOM     21  H   UNL     1      35.871 -19.698 -23.208  0.00  0.00    -0.089 HD
ATOM     22  H   UNL     1      34.319 -19.158 -23.480  0.00  0.00    -0.089 HD
ENDBRANCH  18  19
BRANCH  18  23
ATOM     23  C   UNL     1      35.698 -20.252 -20.629  0.00  0.00    +0.010 C 
BRANCH  23  25
ATOM     24  N   UNL     1      33.063 -22.182 -18.811  0.00  0.00    -0.244 NA
ATOM     25  C   UNL     1      34.966 -21.079 -19.652  0.00  0.00    -0.004 C 
ATOM     26  C   UNL     1      35.295 -21.685 -18.505  0.00  0.00    +0.011 C 
ATOM     27  C   UNL     1      34.132 -22.368 -17.977  0.00  0.00    +0.080 C 
ATOM     28  C   UNL     1      33.546 -21.445 -19.766  0.00  0.00    +0.094 C 
ATOM     29  C   UNL     1      36.566 -21.713 -17.827  0.00  0.00    -0.020 C 
ATOM     30  C   UNL     1      34.201 -23.054 -16.830  0.00  0.00    +0.015 C 
ATOM     31  C   UNL     1      35.495 -23.140 -16.045  0.00  0.00    -0.020 C 
ATOM     32  C   UNL     1      36.661 -22.397 -16.672  0.00  0.00    +0.052 C 
ENDBRANCH  23  25
ENDBRANCH  18  23
ENDBRANCH  17  18
ENDBRANCH   1  17
TORSDOF 7
ENDMDL
MODEL 5
REMARK VINA RESULT:     -11.4      3.138      4.450
REMARK  Name = 46937052
REMARK  7 active torsions:
REMARK  status: ('A' for Active; 'I' for Inactive)
REMARK    1  A    between atoms: O_1  and  C_3
REMARK    2  A    between atoms: O_1  and  C_17
REMARK    3  A    between atoms: C_4  and  C_11
REMARK    4  A    between atoms: C_17  and  C_18
REMARK    5  A    between atoms: C_18  and  N_19
REMARK    6  A    between atoms: C_18  and  C_23
REMARK    7  A    between atoms: C_23  and  C_25
REMARK                            x       y       z     vdW  Elec       q    Type
REMARK                         _______ _______ _______ _____ _____    ______ ____
ROOT
ATOM      1  O   UNL     1      33.921 -20.411 -20.839  0.00  0.00    -0.476 OA
ENDROOT
BRANCH   1   3
ATOM      2  N   UNL     1      36.082 -22.055 -18.387  0.00  0.00    -0.239 NA
ATOM      3  C   UNL     1      34.302 -21.122 -19.731  0.00  0.00    +0.158 C 
ATOM      4  C   UNL     1      33.774 -22.341 -17.726  0.00  0.00    +0.039 C 
ATOM      5  C   UNL     1      33.358 -21.624 -18.843  0.00  0.00    +0.042 C 
ATOM      6  C   UNL     1      35.639 -21.362 -19.461  0.00  0.00    +0.136 C 
ATOM      7  C   UNL     1      35.136 -22.528 -17.546  0.00  0.00    +0.101 C 
BRANCH   4  11
ATOM      8  N   UNL     1      31.535 -22.772 -17.025  0.00  0.00    -0.264 NA
ATOM      9  N   UNL     1      30.392 -24.486 -13.943  0.00  0.00    -0.150 NA
ATOM     10  N   UNL     1      31.366 -24.982 -12.971  0.00  0.00    -0.147 NA
ATOM     11  C   UNL     1      32.789 -22.893 -16.757  0.00  0.00    +0.078 C 
ATOM     12  C   UNL     1      32.481 -24.018 -14.690  0.00  0.00    +0.040 C 
ATOM     13  C   UNL     1      31.060 -23.935 -14.921  0.00  0.00    +0.107 C 
ATOM     14  C   UNL     1      30.496 -23.287 -16.131  0.00  0.00    +0.173 C 
ATOM     15  C   UNL     1      33.369 -23.528 -15.540  0.00  0.00    +0.022 C 
ATOM     16  C   UNL     1      32.556 -24.700 -13.419  0.00  0.00    +0.123 C 
ENDBRANCH   4  11
ENDBRANCH   1   3
BRANCH   1  17
ATOM     17  C   UNL     1      34.550 -19.152 -21.041  0.00  0.00    +0.184 C 
BRANCH  17  18
ATOM     18  C   UNL     1      35.302 -19.137 -22.378  0.00  0.00    -0.017 C 
BRANCH  18  19
ATOM     19  N   UNL     1      34.331 -19.351 -23.454  0.00  0.00    +0.384 N 
ATOM     20  H   UNL     1      34.657 -20.103 -24.061  0.00  0.00    -0.089 HD
ATOM     21  H   UNL     1      34.231 -18.494 -23.998  0.00  0.00    -0.089 HD
ATOM     22  H   UNL     1      33.429 -19.606 -23.051  0.00  0.00    -0.089 HD
ENDBRANCH  18  19
BRANCH  18  23
ATOM     23  C   UNL     1      36.058 -17.809 -22.635  0.00  0.00    +0.010 C 
BRANCH  23  25
ATOM     24  N   UNL     1      34.125 -15.311 -24.634  0.00  0.00    -0.244 NA
ATOM     25  C   UNL     1      35.202 -16.684 -23.052  0.00  0.00    -0.004 C 
ATOM     26  C   UNL     1      34.512 -15.740 -22.400  0.00  0.00    +0.011 C 
ATOM     27  C   UNL     1      33.845 -14.888 -23.363  0.00  0.00    +0.080 C 
ATOM     28  C   UNL     1      34.900 -16.337 -24.450  0.00  0.00    +0.094 C 
ATOM     29  C   UNL     1      34.390 -15.523 -20.981  0.00  0.00    -0.020 C 
ATOM     30  C   UNL     1      33.086 -13.861 -22.961  0.00  0.00    +0.015 C 
ATOM     31  C   UNL     1      32.899 -13.554 -21.488  0.00  0.00    -0.020 C 
ATOM     32  C   UNL     1      33.633 -14.498 -20.552  0.00  0.00    +0.052 C 
ENDBRANCH  23  25
ENDBRANCH  18  23
ENDBRANCH  17  18
ENDBRANCH   1  17
TORSDOF 7
ENDMDL
MODEL 6
REMARK VINA RESULT:     -11.3      5.082      8.899
REMARK  Name = 46937052
REMARK  7 active torsions:
REMARK  status: ('A' for Active; 'I' for Inactive)
REMARK    1  A    between atoms: O_1  and  C_3
REMARK    2  A    between atoms: O_1  and  C_17
REMARK    3  A    between atoms: C_4  and  C_11
REMARK    4  A    between atoms: C_17  and  C_18
REMARK    5  A    between atoms: C_18  and  N_19
REMARK    6  A    between atoms: C_18  and  C_23
REMARK    7  A    between atoms: C_23  and  C_25
REMARK                            x       y       z     vdW  Elec       q    Type
REMARK                         _______ _______ _______ _____ _____    ______ ____
ROOT
ATOM      1  O   UNL     1      34.590 -14.312 -21.628  0.00  0.00    -0.476 OA
ENDROOT
BRANCH   1   3
ATOM      2  N   UNL     1      34.987 -17.005 -24.073  0.00  0.00    -0.239 NA
ATOM      3  C   UNL     1      34.773 -15.571 -22.138  0.00  0.00    +0.158 C 
ATOM      4  C   UNL     1      35.111 -17.934 -21.844  0.00  0.00    +0.039 C 
ATOM      5  C   UNL     1      34.926 -16.669 -21.299  0.00  0.00    +0.042 C 
ATOM      6  C   UNL     1      34.811 -15.790 -23.505  0.00  0.00    +0.136 C 
ATOM      7  C   UNL     1      35.133 -18.047 -23.226  0.00  0.00    +0.101 C 
BRANCH   4  11
ATOM      8  N   UNL     1      36.469 -19.463 -20.617  0.00  0.00    -0.264 NA
ATOM      9  N   UNL     1      35.387 -22.398 -18.627  0.00  0.00    -0.150 NA
ATOM     10  N   UNL     1      33.969 -22.745 -18.538  0.00  0.00    -0.147 NA
ATOM     11  C   UNL     1      35.277 -19.129 -20.974  0.00  0.00    +0.078 C 
ATOM     12  C   UNL     1      34.184 -20.900 -19.833  0.00  0.00    +0.040 C 
ATOM     13  C   UNL     1      35.483 -21.333 -19.379  0.00  0.00    +0.107 C 
ATOM     14  C   UNL     1      36.728 -20.622 -19.760  0.00  0.00    +0.173 C 
ATOM     15  C   UNL     1      34.021 -19.843 -20.611  0.00  0.00    +0.022 C 
ATOM     16  C   UNL     1      33.300 -21.875 -19.239  0.00  0.00    +0.123 C 
ENDBRANCH   4  11
ENDBRANCH   1   3
BRANCH   1  17
ATOM     17  C   UNL     1      33.337 -14.046 -21.011  0.00  0.00    +0.184 C 
BRANCH  17  18
ATOM     18  C   UNL     1      32.682 -12.809 -21.638  0.00  0.00    -0.017 C 
BRANCH  18  19
ATOM     19  N   UNL     1      32.106 -13.199 -22.928  0.00  0.00    +0.384 N 
ATOM     20  H   UNL     1      31.404 -13.924 -22.781  0.00  0.00    -0.089 HD
ATOM     21  H   UNL     1      32.843 -13.556 -23.536  0.00  0.00    -0.089 HD
ATOM     22  H   UNL     1      31.669 -12.387 -23.364  0.00  0.00    -0.089 HD
ENDBRANCH  18  19
BRANCH  18  23
ATOM     23  C   UNL     1      31.570 -12.195 -20.752  0.00  0.00    +0.010 C 
BRANCH  23  25
ATOM     24  N   UNL     1      32.191  -9.043 -18.840  0.00  0.00    -0.244 NA
ATOM     25  C   UNL     1      31.793 -10.789 -20.371  0.00  0.00    -0.004 C 
ATOM     26  C   UNL     1      31.861  -9.635 -21.045  0.00  0.00    +0.011 C 
ATOM     27  C   UNL     1      32.106  -8.552 -20.115  0.00  0.00    +0.080 C 
ATOM     28  C   UNL     1      32.012 -10.321 -18.993  0.00  0.00    +0.094 C 
ATOM     29  C   UNL     1      31.727  -9.404 -22.461  0.00  0.00    -0.020 C 
ATOM     30  C   UNL     1      32.217  -7.289 -20.544  0.00  0.00    +0.015 C 
ATOM     31  C   UNL     1      32.090  -6.948 -22.016  0.00  0.00    -0.020 C 
ATOM     32  C   UNL     1      31.835  -8.143 -22.918  0.00  0.00    +0.052 C 
ENDBRANCH  23  25
ENDBRANCH  18  23
ENDBRANCH  17  18
ENDBRANCH   1  17
TORSDOF 7
ENDMDL
MODEL 7
REMARK VINA RESULT:     -11.2      1.869      9.904
REMARK  Name = 46937052
REMARK  7 active torsions:
REMARK  status: ('A' for Active; 'I' for Inactive)
REMARK    1  A    between atoms: O_1  and  C_3
REMARK    2  A    between atoms: O_1  and  C_17
REMARK    3  A    between atoms: C_4  and  C_11
REMARK    4  A    between atoms: C_17  and  C_18
REMARK    5  A    between atoms: C_18  and  N_19
REMARK    6  A    between atoms: C_18  and  C_23
REMARK    7  A    between atoms: C_23  and  C_25
REMARK                            x       y       z     vdW  Elec       q    Type
REMARK                         _______ _______ _______ _____ _____    ______ ____
ROOT
ATOM      1  O   UNL     1      33.176 -22.322 -18.969  0.00  0.00    -0.476 OA
ENDROOT
BRANCH   1   3
ATOM      2  N   UNL     1      36.665 -21.323 -19.434  0.00  0.00    -0.239 NA
ATOM      3  C   UNL     1      34.264 -21.605 -19.395  0.00  0.00    +0.158 C 
ATOM      4  C   UNL     1      35.233 -19.768 -20.608  0.00  0.00    +0.039 C 
ATOM      5  C   UNL     1      34.111 -20.475 -20.190  0.00  0.00    +0.042 C 
ATOM      6  C   UNL     1      35.551 -21.984 -19.048  0.00  0.00    +0.136 C 
ATOM      7  C   UNL     1      36.477 -20.229 -20.206  0.00  0.00    +0.101 C 
BRANCH   4  11
ATOM      8  N   UNL     1      35.050 -17.405 -20.878  0.00  0.00    -0.264 NA
ATOM      9  N   UNL     1      34.755 -15.477 -24.031  0.00  0.00    -0.150 NA
ATOM     10  N   UNL     1      34.727 -16.171 -25.318  0.00  0.00    -0.147 NA
ATOM     11  C   UNL     1      35.104 -18.554 -21.459  0.00  0.00    +0.078 C 
ATOM     12  C   UNL     1      34.921 -17.710 -23.669  0.00  0.00    +0.040 C 
ATOM     13  C   UNL     1      34.867 -16.386 -23.099  0.00  0.00    +0.107 C 
ATOM     14  C   UNL     1      34.926 -16.157 -21.634  0.00  0.00    +0.173 C 
ATOM     15  C   UNL     1      35.031 -18.799 -22.926  0.00  0.00    +0.022 C 
ATOM     16  C   UNL     1      34.820 -17.448 -25.086  0.00  0.00    +0.123 C 
ENDBRANCH   4  11
ENDBRANCH   1   3
BRANCH   1  17
ATOM     17  C   UNL     1      33.417 -23.344 -18.012  0.00  0.00    +0.184 C 
BRANCH  17  18
ATOM     18  C   UNL     1      33.041 -22.861 -16.606  0.00  0.00    -0.017 C 
BRANCH  18  19
ATOM     19  N   UNL     1      31.579 -22.810 -16.514  0.00  0.00    +0.384 N 
ATOM     20  H   UNL     1      31.229 -22.040 -17.084  0.00  0.00    -0.089 HD
ATOM     21  H   UNL     1      31.304 -22.666 -15.542  0.00  0.00    -0.089 HD
ATOM     22  H   UNL     1      31.186 -23.689 -16.852  0.00  0.00    -0.089 HD
ENDBRANCH  18  19
BRANCH  18  23
ATOM     23  C   UNL     1      33.587 -23.777 -15.482  0.00  0.00    +0.010 C 
BRANCH  23  25
ATOM     24  N   UNL     1      37.092 -22.535 -15.099  0.00  0.00    -0.244 NA
ATOM     25  C   UNL     1      35.041 -23.682 -15.263  0.00  0.00    -0.004 C 
ATOM     26  C   UNL     1      36.006 -24.567 -14.981  0.00  0.00    +0.011 C 
ATOM     27  C   UNL     1      37.273 -23.873 -14.877  0.00  0.00    +0.080 C 
ATOM     28  C   UNL     1      35.816 -22.432 -15.319  0.00  0.00    +0.094 C 
ATOM     29  C   UNL     1      35.902 -25.991 -14.791  0.00  0.00    -0.020 C 
ATOM     30  C   UNL     1      38.400 -24.540 -14.600  0.00  0.00    +0.015 C 
ATOM     31  C   UNL     1      38.390 -26.041 -14.386  0.00  0.00    -0.020 C 
ATOM     32  C   UNL     1      37.020 -26.684 -14.511  0.00  0.00    +0.052 C 
ENDBRANCH  23  25
ENDBRANCH  18  23
ENDBRANCH  17  18
ENDBRANCH   1  17
TORSDOF 7
ENDMDL
MODEL 8
REMARK VINA RESULT:     -11.2      4.161     11.614
REMARK  Name = 46937052
REMARK  7 active torsions:
REMARK  status: ('A' for Active; 'I' for Inactive)
REMARK    1  A    between atoms: O_1  and  C_3
REMARK    2  A    between atoms: O_1  and  C_17
REMARK    3  A    between atoms: C_4  and  C_11
REMARK    4  A    between atoms: C_17  and  C_18
REMARK    5  A    between atoms: C_18  and  N_19
REMARK    6  A    between atoms: C_18  and  C_23
REMARK    7  A    between atoms: C_23  and  C_25
REMARK                            x       y       z     vdW  Elec       q    Type
REMARK                         _______ _______ _______ _____ _____    ______ ____
ROOT
ATOM      1  O   UNL     1      35.762 -17.296 -23.202  0.00  0.00    -0.476 OA
ENDROOT
BRANCH   1   3
ATOM      2  N   UNL     1      33.993 -15.516 -25.863  0.00  0.00    -0.239 NA
ATOM      3  C   UNL     1      35.009 -16.339 -23.830  0.00  0.00    +0.158 C 
ATOM      4  C   UNL     1      33.740 -14.296 -23.792  0.00  0.00    +0.039 C 
ATOM      5  C   UNL     1      34.502 -15.251 -23.128  0.00  0.00    +0.042 C 
ATOM      6  C   UNL     1      34.728 -16.425 -25.184  0.00  0.00    +0.136 C 
ATOM      7  C   UNL     1      33.517 -14.473 -25.148  0.00  0.00    +0.101 C 
BRANCH   4  11
ATOM      8  N   UNL     1      32.391 -13.331 -22.077  0.00  0.00    -0.264 NA
ATOM      9  N   UNL     1      31.857  -9.739 -21.334  0.00  0.00    -0.150 NA
ATOM     10  N   UNL     1      32.505  -8.713 -22.151  0.00  0.00    -0.147 NA
ATOM     11  C   UNL     1      33.185 -13.119 -23.070  0.00  0.00    +0.078 C 
ATOM     12  C   UNL     1      33.101 -10.751 -22.937  0.00  0.00    +0.040 C 
ATOM     13  C   UNL     1      32.216 -10.902 -21.809  0.00  0.00    +0.107 C 
ATOM     14  C   UNL     1      31.799 -12.235 -21.307  0.00  0.00    +0.173 C 
ATOM     15  C   UNL     1      33.599 -11.787 -23.593  0.00  0.00    +0.022 C 
ATOM     16  C   UNL     1      33.210  -9.317 -23.065  0.00  0.00    +0.123 C 
ENDBRANCH   4  11
ENDBRANCH   1   3
BRANCH   1  17
ATOM     17  C   UNL     1      35.134 -18.547 -22.955  0.00  0.00    +0.184 C 
BRANCH  17  18
ATOM     18  C   UNL     1      35.611 -19.133 -21.621  0.00  0.00    -0.017 C 
BRANCH  18  19
ATOM     19  N   UNL     1      35.744 -18.036 -20.658  0.00  0.00    +0.384 N 
ATOM     20  H   UNL     1      35.042 -18.140 -19.926  0.00  0.00    -0.089 HD
ATOM     21  H   UNL     1      35.608 -17.146 -21.137  0.00  0.00    -0.089 HD
ATOM     22  H   UNL     1      36.675 -18.060 -20.243  0.00  0.00    -0.089 HD
ENDBRANCH  18  19
BRANCH  18  23
ATOM     23  C   UNL     1      34.645 -20.198 -21.044  0.00  0.00    +0.010 C 
BRANCH  23  25
ATOM     24  N   UNL     1      36.842 -21.684 -18.411  0.00  0.00    -0.244 NA
ATOM     25  C   UNL     1      35.154 -20.917 -19.863  0.00  0.00    -0.004 C 
ATOM     26  C   UNL     1      34.584 -21.622 -18.878  0.00  0.00    +0.011 C 
ATOM     27  C   UNL     1      35.613 -22.100 -17.978  0.00  0.00    +0.080 C 
ATOM     28  C   UNL     1      36.574 -21.008 -19.487  0.00  0.00    +0.094 C 
ATOM     29  C   UNL     1      33.190 -21.914 -18.662  0.00  0.00    -0.020 C 
ATOM     30  C   UNL     1      35.298 -22.836 -16.905  0.00  0.00    +0.015 C 
ATOM     31  C   UNL     1      33.858 -23.195 -16.596  0.00  0.00    -0.020 C 
ATOM     32  C   UNL     1      32.848 -22.652 -17.590  0.00  0.00    +0.052 C 
ENDBRANCH  23  25
ENDBRANCH  18  23
ENDBRANCH  17  18
ENDBRANCH   1  17
TORSDOF 7
ENDMDL
MODEL 9
REMARK VINA RESULT:     -11.2      7.432     12.450
REMARK  Name = 46937052
REMARK  7 active torsions:
REMARK  status: ('A' for Active; 'I' for Inactive)
REMARK    1  A    between atoms: O_1  and  C_3
REMARK    2  A    between atoms: O_1  and  C_17
REMARK    3  A    between atoms: C_4  and  C_11
REMARK    4  A    between atoms: C_17  and  C_18
REMARK    5  A    between atoms: C_18  and  N_19
REMARK    6  A    between atoms: C_18  and  C_23
REMARK    7  A    between atoms: C_23  and  C_25
REMARK                            x       y       z     vdW  Elec       q    Type
REMARK                         _______ _______ _______ _____ _____    ______ ____
ROOT
ATOM      1  O   UNL     1      31.926 -10.938 -21.109  0.00  0.00    -0.476 OA
ENDROOT
BRANCH   1   3
ATOM      2  N   UNL     1      33.939 -11.001 -24.163  0.00  0.00    -0.239 NA
ATOM      3  C   UNL     1      32.708 -11.421 -22.125  0.00  0.00    +0.158 C 
ATOM      4  C   UNL     1      33.862 -13.226 -23.220  0.00  0.00    +0.039 C 
ATOM      5  C   UNL     1      33.067 -12.763 -22.177  0.00  0.00    +0.042 C 
ATOM      6  C   UNL     1      33.166 -10.589 -23.133  0.00  0.00    +0.136 C 
ATOM      7  C   UNL     1      34.268 -12.312 -24.179  0.00  0.00    +0.101 C 
BRANCH   4  11
ATOM      8  N   UNL     1      34.309 -15.209 -24.467  0.00  0.00    -0.264 NA
ATOM      9  N   UNL     1      35.381 -18.521 -23.193  0.00  0.00    -0.150 NA
ATOM     10  N   UNL     1      35.567 -18.734 -21.758  0.00  0.00    -0.147 NA
ATOM     11  C   UNL     1      34.263 -14.656 -23.304  0.00  0.00    +0.078 C 
ATOM     12  C   UNL     1      34.922 -16.590 -22.097  0.00  0.00    +0.040 C 
ATOM     13  C   UNL     1      35.009 -17.280 -23.360  0.00  0.00    +0.107 C 
ATOM     14  C   UNL     1      34.695 -16.611 -24.646  0.00  0.00    +0.173 C 
ATOM     15  C   UNL     1      34.562 -15.320 -22.005  0.00  0.00    +0.022 C 
ATOM     16  C   UNL     1      35.295 -17.615 -21.150  0.00  0.00    +0.123 C 
ENDBRANCH   4  11
ENDBRANCH   1   3
BRANCH   1  17
ATOM     17  C   UNL     1      31.511  -9.582 -21.208  0.00  0.00    +0.184 C 
BRANCH  17  18
ATOM     18  C   UNL     1      31.885  -8.812 -19.935  0.00  0.00    -0.017 C 
BRANCH  18  19
ATOM     19  N   UNL     1      32.382  -9.773 -18.947  0.00  0.00    +0.384 N 
ATOM     20  H   UNL     1      32.875 -10.527 -19.424  0.00  0.00    -0.089 HD
ATOM     21  H   UNL     1      31.596 -10.159 -18.422  0.00  0.00    -0.089 HD
ATOM     22  H   UNL     1      33.020  -9.301 -18.306  0.00  0.00    -0.089 HD
ENDBRANCH  18  19
BRANCH  18  23
ATOM     23  C   UNL     1      32.965  -7.728 -20.175  0.00  0.00    +0.010 C 
BRANCH  23  25
ATOM     24  N   UNL     1      31.506  -5.316 -22.631  0.00  0.00    -0.244 NA
ATOM     25  C   UNL     1      32.727  -6.872 -21.351  0.00  0.00    -0.004 C 
ATOM     26  C   UNL     1      33.398  -6.627 -22.483  0.00  0.00    +0.011 C 
ATOM     27  C   UNL     1      32.657  -5.671 -23.280  0.00  0.00    +0.080 C 
ATOM     28  C   UNL     1      31.551  -6.005 -21.530  0.00  0.00    +0.094 C 
ATOM     29  C   UNL     1      34.656  -7.172 -22.926  0.00  0.00    -0.020 C 
ATOM     30  C   UNL     1      33.121  -5.260 -24.466  0.00  0.00    +0.015 C 
ATOM     31  C   UNL     1      34.435  -5.779 -25.016  0.00  0.00    -0.020 C 
ATOM     32  C   UNL     1      35.144  -6.775 -24.115  0.00  0.00    +0.052 C 
ENDBRANCH  23  25
ENDBRANCH  18  23
ENDBRANCH  17  18
ENDBRANCH   1  17
TORSDOF 7
ENDMDL
