MODEL 1
REMARK VINA RESULT:     -11.1      0.000      0.000
REMARK  Name = 21302490
REMARK  5 active torsions:
REMARK  status: ('A' for Active; 'I' for Inactive)
REMARK    1  A    between atoms: N_2  and  C_19
REMARK    2  A    between atoms: C_19  and  C_20
REMARK    3  A    between atoms: C_20  and  C_21
REMARK    4  A    between atoms: C_21  and  C_23
REMARK    5  A    between atoms: C_23  and  C_25
REMARK                            x       y       z     vdW  Elec       q    Type
REMARK                         _______ _______ _______ _____ _____    ______ ____
ROOT
ATOM      1  N   UNL     1      33.765 -12.275 -23.619  0.00  0.00    -0.307 N 
ATOM      2  N   UNL     1      34.083 -15.733 -22.021  0.00  0.00    +0.387 N 
ATOM      3  N   UNL     1      33.831  -9.434 -23.295  0.00  0.00    -0.303 N 
ATOM      4  C   UNL     1      33.092 -13.573 -23.748  0.00  0.00    +0.073 C 
ATOM      5  C   UNL     1      32.472 -13.863 -22.342  0.00  0.00    +0.021 C 
ATOM      6  C   UNL     1      34.016 -14.682 -24.240  0.00  0.00    -0.003 C 
ATOM      7  C   UNL     1      33.420 -14.593 -21.379  0.00  0.00    -0.071 C 
ATOM      8  C   UNL     1      32.239 -12.458 -21.867  0.00  0.00    -0.008 C 
ATOM      9  C   UNL     1      33.024 -11.592 -22.633  0.00  0.00    +0.057 C 
ATOM     10  C   UNL     1      34.904 -15.267 -23.146  0.00  0.00    -0.076 C 
ATOM     11  C   UNL     1      34.189 -11.441 -24.725  0.00  0.00    +0.112 C 
ATOM     12  C   UNL     1      33.053 -10.212 -22.446  0.00  0.00    +0.061 C 
ATOM     13  C   UNL     1      34.779 -10.131 -24.178  0.00  0.00    +0.112 C 
ATOM     14  C   UNL     1      31.448 -11.972 -20.847  0.00  0.00    -0.003 C 
ATOM     15  C   UNL     1      32.239  -9.726 -21.414  0.00  0.00    +0.016 C 
ATOM     16  C   UNL     1      31.452 -10.593 -20.625  0.00  0.00    +0.001 C 
ATOM     17  C   UNL     1      34.003  -8.011 -23.067  0.00  0.00    +0.112 C 
ATOM     18  H   UNL     1      33.371 -16.373 -22.374  0.00  0.00    -0.080 HD
ENDROOT
BRANCH   2  19
ATOM     19  C   UNL     1      34.912 -16.451 -21.051  0.00  0.00    -0.077 C 
BRANCH  19  20
ATOM     20  C   UNL     1      35.975 -17.279 -21.775  0.00  0.00    -0.015 C 
BRANCH  20  21
ATOM     21  C   UNL     1      36.223 -18.629 -21.096  0.00  0.00    +0.067 C 
BRANCH  21  23
ATOM     22  O   UNL     1      34.511 -19.709 -22.410  0.00  0.00    -0.291 OA
ATOM     23  C   UNL     1      35.113 -19.641 -21.342  0.00  0.00    +0.173 C 
BRANCH  23  25
ATOM     24  F   UNL     1      33.799 -23.238 -17.228  0.00  0.00    -0.204 F 
ATOM     25  C   UNL     1      34.764 -20.597 -20.251  0.00  0.00    +0.035 C 
ATOM     26  C   UNL     1      35.774 -21.282 -19.575  0.00  0.00    +0.005 C 
ATOM     27  C   UNL     1      33.429 -20.804 -19.905  0.00  0.00    +0.005 C 
ATOM     28  C   UNL     1      35.448 -22.175 -18.553  0.00  0.00    +0.030 C 
ATOM     29  C   UNL     1      33.103 -21.697 -18.884  0.00  0.00    +0.030 C 
ATOM     30  C   UNL     1      34.112 -22.381 -18.208  0.00  0.00    +0.140 C 
ENDBRANCH  23  25
ENDBRANCH  21  23
ENDBRANCH  20  21
ENDBRANCH  19  20
ENDBRANCH   2  19
TORSDOF 5
ENDMDL
MODEL 2
REMARK VINA RESULT:     -11.1      1.130      1.686
REMARK  Name = 21302490
REMARK  5 active torsions:
REMARK  status: ('A' for Active; 'I' for Inactive)
REMARK    1  A    between atoms: N_2  and  C_19
REMARK    2  A    between atoms: C_19  and  C_20
REMARK    3  A    between atoms: C_20  and  C_21
REMARK    4  A    between atoms: C_21  and  C_23
REMARK    5  A    between atoms: C_23  and  C_25
REMARK                            x       y       z     vdW  Elec       q    Type
REMARK                         _______ _______ _______ _____ _____    ______ ____
ROOT
ATOM      1  N   UNL     1      32.856 -11.163 -22.500  0.00  0.00    -0.307 N 
ATOM      2  N   UNL     1      33.684 -14.805 -21.682  0.00  0.00    +0.387 N 
ATOM      3  N   UNL     1      32.880  -8.424 -21.679  0.00  0.00    -0.303 N 
ATOM      4  C   UNL     1      32.226 -12.472 -22.712  0.00  0.00    +0.073 C 
ATOM      5  C   UNL     1      31.968 -13.048 -21.281  0.00  0.00    +0.021 C 
ATOM      6  C   UNL     1      33.051 -13.401 -23.596  0.00  0.00    -0.003 C 
ATOM      7  C   UNL     1      33.146 -13.850 -20.708  0.00  0.00    -0.071 C 
ATOM      8  C   UNL     1      31.796 -11.768 -20.514  0.00  0.00    -0.008 C 
ATOM      9  C   UNL     1      32.342 -10.723 -21.264  0.00  0.00    +0.057 C 
ATOM     10  C   UNL     1      34.196 -14.087 -22.858  0.00  0.00    -0.076 C 
ATOM     11  C   UNL     1      32.972 -10.121 -23.499  0.00  0.00    +0.112 C 
ATOM     12  C   UNL     1      32.358  -9.397 -20.835  0.00  0.00    +0.061 C 
ATOM     13  C   UNL     1      33.621  -8.879 -22.866  0.00  0.00    +0.112 C 
ATOM     14  C   UNL     1      31.250 -11.530 -19.271  0.00  0.00    -0.003 C 
ATOM     15  C   UNL     1      31.792  -9.164 -19.575  0.00  0.00    +0.016 C 
ATOM     16  C   UNL     1      31.250 -10.214 -18.804  0.00  0.00    +0.001 C 
ATOM     17  C   UNL     1      33.043  -7.051 -21.236  0.00  0.00    +0.112 C 
ATOM     18  H   UNL     1      32.936 -15.432 -21.979  0.00  0.00    -0.080 HD
ENDROOT
BRANCH   2  19
ATOM     19  C   UNL     1      34.747 -15.606 -21.075  0.00  0.00    -0.077 C 
BRANCH  19  20
ATOM     20  C   UNL     1      35.219 -16.688 -22.049  0.00  0.00    -0.015 C 
BRANCH  20  21
ATOM     21  C   UNL     1      35.742 -17.933 -21.328  0.00  0.00    +0.067 C 
BRANCH  21  23
ATOM     22  O   UNL     1      34.579 -19.429 -22.822  0.00  0.00    -0.291 OA
ATOM     23  C   UNL     1      34.980 -19.202 -21.684  0.00  0.00    +0.173 C 
BRANCH  23  25
ATOM     24  F   UNL     1      34.051 -23.005 -17.652  0.00  0.00    -0.204 F 
ATOM     25  C   UNL     1      34.733 -20.210 -20.613  0.00  0.00    +0.035 C 
ATOM     26  C   UNL     1      33.430 -20.479 -20.195  0.00  0.00    +0.005 C 
ATOM     27  C   UNL     1      35.806 -20.886 -20.031  0.00  0.00    +0.005 C 
ATOM     28  C   UNL     1      33.199 -21.423 -19.194  0.00  0.00    +0.030 C 
ATOM     29  C   UNL     1      35.576 -21.830 -19.031  0.00  0.00    +0.030 C 
ATOM     30  C   UNL     1      34.273 -22.099 -18.613  0.00  0.00    +0.140 C 
ENDBRANCH  23  25
ENDBRANCH  21  23
ENDBRANCH  20  21
ENDBRANCH  19  20
ENDBRANCH   2  19
TORSDOF 5
ENDMDL
MODEL 3
REMARK VINA RESULT:     -10.8      3.102      6.287
REMARK  Name = 21302490
REMARK  5 active torsions:
REMARK  status: ('A' for Active; 'I' for Inactive)
REMARK    1  A    between atoms: N_2  and  C_19
REMARK    2  A    between atoms: C_19  and  C_20
REMARK    3  A    between atoms: C_20  and  C_21
REMARK    4  A    between atoms: C_21  and  C_23
REMARK    5  A    between atoms: C_23  and  C_25
REMARK                            x       y       z     vdW  Elec       q    Type
REMARK                         _______ _______ _______ _____ _____    ______ ____
ROOT
ATOM      1  N   UNL     1      32.156  -6.349 -22.149  0.00  0.00    -0.307 N 
ATOM      2  N   UNL     1      33.008 -10.076 -22.137  0.00  0.00    +0.387 N 
ATOM      3  N   UNL     1      31.419  -4.031 -23.652  0.00  0.00    -0.303 N 
ATOM      4  C   UNL     1      33.109  -7.221 -21.450  0.00  0.00    +0.073 C 
ATOM      5  C   UNL     1      34.009  -7.838 -22.571  0.00  0.00    +0.021 C 
ATOM      6  C   UNL     1      32.432  -8.270 -20.574  0.00  0.00    -0.003 C 
ATOM      7  C   UNL     1      33.453  -9.139 -23.173  0.00  0.00    -0.071 C 
ATOM      8  C   UNL     1      33.949  -6.735 -23.588  0.00  0.00    -0.008 C 
ATOM      9  C   UNL     1      32.851  -5.920 -23.298  0.00  0.00    +0.057 C 
ATOM     10  C   UNL     1      31.919  -9.477 -21.354  0.00  0.00    -0.076 C 
ATOM     11  C   UNL     1      31.354  -5.318 -21.522  0.00  0.00    +0.112 C 
ATOM     12  C   UNL     1      32.500  -4.805 -24.055  0.00  0.00    +0.061 C 
ATOM     13  C   UNL     1      30.547  -4.576 -22.599  0.00  0.00    +0.112 C 
ATOM     14  C   UNL     1      34.747  -6.475 -24.682  0.00  0.00    -0.003 C 
ATOM     15  C   UNL     1      33.322  -4.543 -25.159  0.00  0.00    +0.016 C 
ATOM     16  C   UNL     1      34.426  -5.367 -25.469  0.00  0.00    +0.001 C 
ATOM     17  C   UNL     1      30.928  -2.938 -24.471  0.00  0.00    +0.112 C 
ATOM     18  H   UNL     1      33.791 -10.277 -21.514  0.00  0.00    -0.080 HD
ENDROOT
BRANCH   2  19
ATOM     19  C   UNL     1      32.565 -11.331 -22.744  0.00  0.00    -0.077 C 
BRANCH  19  20
ATOM     20  C   UNL     1      33.709 -11.969 -23.537  0.00  0.00    -0.015 C 
BRANCH  20  21
ATOM     21  C   UNL     1      34.272 -13.214 -22.846  0.00  0.00    +0.067 C 
BRANCH  21  23
ATOM     22  O   UNL     1      33.440 -14.511 -24.703  0.00  0.00    -0.291 OA
ATOM     23  C   UNL     1      34.017 -14.500 -23.619  0.00  0.00    +0.173 C 
BRANCH  23  25
ATOM     24  F   UNL     1      35.860 -19.349 -21.456  0.00  0.00    -0.204 F 
ATOM     25  C   UNL     1      34.508 -15.787 -23.045  0.00  0.00    +0.035 C 
ATOM     26  C   UNL     1      34.656 -15.922 -21.665  0.00  0.00    +0.005 C 
ATOM     27  C   UNL     1      34.815 -16.854 -23.888  0.00  0.00    +0.005 C 
ATOM     28  C   UNL     1      35.113 -17.126 -21.128  0.00  0.00    +0.030 C 
ATOM     29  C   UNL     1      35.273 -18.057 -23.352  0.00  0.00    +0.030 C 
ATOM     30  C   UNL     1      35.421 -18.193 -21.972  0.00  0.00    +0.140 C 
ENDBRANCH  23  25
ENDBRANCH  21  23
ENDBRANCH  20  21
ENDBRANCH  19  20
ENDBRANCH   2  19
TORSDOF 5
ENDMDL
MODEL 4
REMARK VINA RESULT:     -10.4      4.134      7.006
REMARK  Name = 21302490
REMARK  5 active torsions:
REMARK  status: ('A' for Active; 'I' for Inactive)
REMARK    1  A    between atoms: N_2  and  C_19
REMARK    2  A    between atoms: C_19  and  C_20
REMARK    3  A    between atoms: C_20  and  C_21
REMARK    4  A    between atoms: C_21  and  C_23
REMARK    5  A    between atoms: C_23  and  C_25
REMARK                            x       y       z     vdW  Elec       q    Type
REMARK                         _______ _______ _______ _____ _____    ______ ____
ROOT
ATOM      1  N   UNL     1      32.161  -6.002 -22.386  0.00  0.00    -0.307 N 
ATOM      2  N   UNL     1      32.612  -9.753 -21.804  0.00  0.00    +0.387 N 
ATOM      3  N   UNL     1      31.794  -3.860 -24.244  0.00  0.00    -0.303 N 
ATOM      4  C   UNL     1      32.957  -6.853 -21.492  0.00  0.00    +0.073 C 
ATOM      5  C   UNL     1      33.873  -7.702 -22.433  0.00  0.00    +0.021 C 
ATOM      6  C   UNL     1      32.105  -7.700 -20.553  0.00  0.00    -0.003 C 
ATOM      7  C   UNL     1      33.234  -9.017 -22.908  0.00  0.00    -0.071 C 
ATOM      8  C   UNL     1      34.012  -6.752 -23.588  0.00  0.00    -0.008 C 
ATOM      9  C   UNL     1      32.986  -5.806 -23.511  0.00  0.00    +0.057 C 
ATOM     10  C   UNL     1      31.532  -8.952 -21.212  0.00  0.00    -0.076 C 
ATOM     11  C   UNL     1      31.424  -4.823 -21.978  0.00  0.00    +0.112 C 
ATOM     12  C   UNL     1      32.817  -4.780 -24.438  0.00  0.00    +0.061 C 
ATOM     13  C   UNL     1      30.788  -4.167 -23.215  0.00  0.00    +0.112 C 
ATOM     14  C   UNL     1      34.918  -6.723 -24.626  0.00  0.00    -0.003 C 
ATOM     15  C   UNL     1      33.748  -4.753 -25.485  0.00  0.00    +0.016 C 
ATOM     16  C   UNL     1      34.780  -5.712 -25.579  0.00  0.00    +0.001 C 
ATOM     17  C   UNL     1      31.488  -2.851 -25.242  0.00  0.00    +0.112 C 
ATOM     18  H   UNL     1      33.316  -9.937 -21.089  0.00  0.00    -0.080 HD
ENDROOT
BRANCH   2  19
ATOM     19  C   UNL     1      32.089 -11.035 -22.279  0.00  0.00    -0.077 C 
BRANCH  19  20
ATOM     20  C   UNL     1      31.745 -11.940 -21.094  0.00  0.00    -0.015 C 
BRANCH  20  21
ATOM     21  C   UNL     1      32.969 -12.690 -20.561  0.00  0.00    +0.067 C 
BRANCH  21  23
ATOM     22  O   UNL     1      32.274 -14.931 -19.999  0.00  0.00    -0.291 OA
ATOM     23  C   UNL     1      32.891 -14.196 -20.766  0.00  0.00    +0.173 C 
BRANCH  23  25
ATOM     24  F   UNL     1      35.445 -16.440 -25.241  0.00  0.00    -0.204 F 
ATOM     25  C   UNL     1      33.570 -14.791 -21.953  0.00  0.00    +0.035 C 
ATOM     26  C   UNL     1      34.486 -15.828 -21.785  0.00  0.00    +0.005 C 
ATOM     27  C   UNL     1      33.286 -14.311 -23.232  0.00  0.00    +0.005 C 
ATOM     28  C   UNL     1      35.120 -16.386 -22.896  0.00  0.00    +0.030 C 
ATOM     29  C   UNL     1      33.920 -14.867 -24.342  0.00  0.00    +0.030 C 
ATOM     30  C   UNL     1      34.836 -15.905 -24.174  0.00  0.00    +0.140 C 
ENDBRANCH  23  25
ENDBRANCH  21  23
ENDBRANCH  20  21
ENDBRANCH  19  20
ENDBRANCH   2  19
TORSDOF 5
ENDMDL
MODEL 5
REMARK VINA RESULT:     -10.1      5.499     10.646
REMARK  Name = 21302490
REMARK  5 active torsions:
REMARK  status: ('A' for Active; 'I' for Inactive)
REMARK    1  A    between atoms: N_2  and  C_19
REMARK    2  A    between atoms: C_19  and  C_20
REMARK    3  A    between atoms: C_20  and  C_21
REMARK    4  A    between atoms: C_21  and  C_23
REMARK    5  A    between atoms: C_23  and  C_25
REMARK                            x       y       z     vdW  Elec       q    Type
REMARK                         _______ _______ _______ _____ _____    ______ ____
ROOT
ATOM      1  N   UNL     1      32.348 -12.903 -20.835  0.00  0.00    -0.307 N 
ATOM      2  N   UNL     1      31.970  -9.127 -20.372  0.00  0.00    +0.387 N 
ATOM      3  N   UNL     1      34.000 -15.099 -21.624  0.00  0.00    -0.303 N 
ATOM      4  C   UNL     1      31.291 -11.905 -21.042  0.00  0.00    +0.073 C 
ATOM      5  C   UNL     1      31.860 -10.909 -22.105  0.00  0.00    +0.021 C 
ATOM      6  C   UNL     1      30.848 -11.223 -19.753  0.00  0.00    -0.003 C 
ATOM      7  C   UNL     1      32.664  -9.746 -21.505  0.00  0.00    -0.071 C 
ATOM      8  C   UNL     1      32.774 -11.831 -22.861  0.00  0.00    -0.008 C 
ATOM      9  C   UNL     1      33.029 -12.953 -22.068  0.00  0.00    +0.057 C 
ATOM     10  C   UNL     1      31.788 -10.112 -19.296  0.00  0.00    -0.076 C 
ATOM     11  C   UNL     1      32.165 -14.195 -20.206  0.00  0.00    +0.112 C 
ATOM     12  C   UNL     1      33.852 -14.004 -22.467  0.00  0.00    +0.061 C 
ATOM     13  C   UNL     1      33.489 -14.975 -20.251  0.00  0.00    +0.112 C 
ATOM     14  C   UNL     1      33.359 -11.700 -24.102  0.00  0.00    -0.003 C 
ATOM     15  C   UNL     1      34.435 -13.867 -23.734  0.00  0.00    +0.016 C 
ATOM     16  C   UNL     1      34.194 -12.731 -24.537  0.00  0.00    +0.001 C 
ATOM     17  C   UNL     1      34.944 -16.160 -21.927  0.00  0.00    +0.112 C 
ATOM     18  H   UNL     1      31.053  -8.804 -20.682  0.00  0.00    -0.080 HD
ENDROOT
BRANCH   2  19
ATOM     19  C   UNL     1      32.726  -7.974 -19.881  0.00  0.00    -0.077 C 
BRANCH  19  20
ATOM     20  C   UNL     1      31.860  -6.713 -19.930  0.00  0.00    -0.015 C 
BRANCH  20  21
ATOM     21  C   UNL     1      32.284  -5.760 -21.052  0.00  0.00    +0.067 C 
BRANCH  21  23
ATOM     22  O   UNL     1      31.006  -6.938 -22.726  0.00  0.00    -0.291 OA
ATOM     23  C   UNL     1      32.027  -6.315 -22.445  0.00  0.00    +0.173 C 
BRANCH  23  25
ATOM     24  F   UNL     1      35.857  -5.403 -26.456  0.00  0.00    -0.204 F 
ATOM     25  C   UNL     1      33.044  -6.072 -23.509  0.00  0.00    +0.035 C 
ATOM     26  C   UNL     1      34.305  -6.660 -23.416  0.00  0.00    +0.005 C 
ATOM     27  C   UNL     1      32.733  -5.258 -24.598  0.00  0.00    +0.005 C 
ATOM     28  C   UNL     1      35.256  -6.434 -24.411  0.00  0.00    +0.030 C 
ATOM     29  C   UNL     1      33.683  -5.032 -25.594  0.00  0.00    +0.030 C 
ATOM     30  C   UNL     1      34.944  -5.620 -25.500  0.00  0.00    +0.140 C 
ENDBRANCH  23  25
ENDBRANCH  21  23
ENDBRANCH  20  21
ENDBRANCH  19  20
ENDBRANCH   2  19
TORSDOF 5
ENDMDL
MODEL 6
REMARK VINA RESULT:      -9.9      4.966     10.553
REMARK  Name = 21302490
REMARK  5 active torsions:
REMARK  status: ('A' for Active; 'I' for Inactive)
REMARK    1  A    between atoms: N_2  and  C_19
REMARK    2  A    between atoms: C_19  and  C_20
REMARK    3  A    between atoms: C_20  and  C_21
REMARK    4  A    between atoms: C_21  and  C_23
REMARK    5  A    between atoms: C_23  and  C_25
REMARK                            x       y       z     vdW  Elec       q    Type
REMARK                         _______ _______ _______ _____ _____    ______ ____
ROOT
ATOM      1  N   UNL     1      33.539 -14.346 -21.955  0.00  0.00    -0.307 N 
ATOM      2  N   UNL     1      33.644 -11.010 -23.820  0.00  0.00    +0.387 N 
ATOM      3  N   UNL     1      34.818 -16.831 -21.351  0.00  0.00    -0.303 N 
ATOM      4  C   UNL     1      32.580 -13.494 -22.669  0.00  0.00    +0.073 C 
ATOM      5  C   UNL     1      33.104 -13.418 -24.141  0.00  0.00    +0.021 C 
ATOM      6  C   UNL     1      32.394 -12.126 -22.024  0.00  0.00    -0.003 C 
ATOM      7  C   UNL     1      34.106 -12.280 -24.389  0.00  0.00    -0.071 C 
ATOM      8  C   UNL     1      33.801 -14.746 -24.237  0.00  0.00    -0.008 C 
ATOM      9  C   UNL     1      34.037 -15.219 -22.943  0.00  0.00    +0.057 C 
ATOM     10  C   UNL     1      33.504 -11.136 -22.362  0.00  0.00    -0.076 C 
ATOM     11  C   UNL     1      33.303 -14.975 -20.672  0.00  0.00    +0.112 C 
ATOM     12  C   UNL     1      34.678 -16.426 -22.672  0.00  0.00    +0.061 C 
ATOM     13  C   UNL     1      34.515 -15.846 -20.301  0.00  0.00    +0.112 C 
ATOM     14  C   UNL     1      34.222 -15.463 -25.336  0.00  0.00    -0.003 C 
ATOM     15  C   UNL     1      35.093 -17.154 -23.795  0.00  0.00    +0.016 C 
ATOM     16  C   UNL     1      34.872 -16.678 -25.106  0.00  0.00    +0.001 C 
ATOM     17  C   UNL     1      35.589 -18.010 -21.002  0.00  0.00    +0.112 C 
ATOM     18  H   UNL     1      32.735 -10.779 -24.220  0.00  0.00    -0.080 HD
ENDROOT
BRANCH   2  19
ATOM     19  C   UNL     1      34.583  -9.935 -24.148  0.00  0.00    -0.077 C 
BRANCH  19  20
ATOM     20  C   UNL     1      34.342  -8.727 -23.240  0.00  0.00    -0.015 C 
BRANCH  20  21
ATOM     21  C   UNL     1      35.257  -7.549 -23.586  0.00  0.00    +0.067 C 
BRANCH  21  23
ATOM     22  O   UNL     1      34.866  -5.614 -24.975  0.00  0.00    -0.291 OA
ATOM     23  C   UNL     1      34.498  -6.306 -24.029  0.00  0.00    +0.173 C 
BRANCH  23  25
ATOM     24  F   UNL     1      29.807  -4.894 -21.275  0.00  0.00    -0.204 F 
ATOM     25  C   UNL     1      33.252  -5.932 -23.298  0.00  0.00    +0.035 C 
ATOM     26  C   UNL     1      33.062  -6.356 -21.983  0.00  0.00    +0.005 C 
ATOM     27  C   UNL     1      32.280  -5.157 -23.929  0.00  0.00    +0.005 C 
ATOM     28  C   UNL     1      31.898  -6.005 -21.299  0.00  0.00    +0.030 C 
ATOM     29  C   UNL     1      31.115  -4.807 -23.246  0.00  0.00    +0.030 C 
ATOM     30  C   UNL     1      30.925  -5.230 -21.931  0.00  0.00    +0.140 C 
ENDBRANCH  23  25
ENDBRANCH  21  23
ENDBRANCH  20  21
ENDBRANCH  19  20
ENDBRANCH   2  19
TORSDOF 5
ENDMDL
MODEL 7
REMARK VINA RESULT:      -9.8      3.400      6.777
REMARK  Name = 21302490
REMARK  5 active torsions:
REMARK  status: ('A' for Active; 'I' for Inactive)
REMARK    1  A    between atoms: N_2  and  C_19
REMARK    2  A    between atoms: C_19  and  C_20
REMARK    3  A    between atoms: C_20  and  C_21
REMARK    4  A    between atoms: C_21  and  C_23
REMARK    5  A    between atoms: C_23  and  C_25
REMARK                            x       y       z     vdW  Elec       q    Type
REMARK                         _______ _______ _______ _____ _____    ______ ____
ROOT
ATOM      1  N   UNL     1      33.023  -6.006 -23.544  0.00  0.00    -0.307 N 
ATOM      2  N   UNL     1      34.594  -9.490 -23.633  0.00  0.00    +0.387 N 
ATOM      3  N   UNL     1      31.941  -3.792 -24.995  0.00  0.00    -0.303 N 
ATOM      4  C   UNL     1      34.082  -6.715 -22.815  0.00  0.00    +0.073 C 
ATOM      5  C   UNL     1      35.157  -7.079 -23.891  0.00  0.00    +0.021 C 
ATOM      6  C   UNL     1      33.571  -7.925 -22.040  0.00  0.00    -0.003 C 
ATOM      7  C   UNL     1      34.911  -8.426 -24.591  0.00  0.00    -0.071 C 
ATOM      8  C   UNL     1      34.946  -5.951 -24.861  0.00  0.00    -0.008 C 
ATOM      9  C   UNL     1      33.692  -5.384 -24.618  0.00  0.00    +0.057 C 
ATOM     10  C   UNL     1      33.359  -9.161 -22.909  0.00  0.00    -0.076 C 
ATOM     11  C   UNL     1      31.994  -5.189 -22.935  0.00  0.00    +0.112 C 
ATOM     12  C   UNL     1      33.178  -4.316 -25.350  0.00  0.00    +0.061 C 
ATOM     13  C   UNL     1      31.128  -4.556 -24.036  0.00  0.00    +0.112 C 
ATOM     14  C   UNL     1      35.747  -5.478 -25.878  0.00  0.00    -0.003 C 
ATOM     15  C   UNL     1      34.002  -3.835 -26.376  0.00  0.00    +0.016 C 
ATOM     16  C   UNL     1      35.265  -4.409 -26.637  0.00  0.00    +0.001 C 
ATOM     17  C   UNL     1      31.297  -2.769 -25.800  0.00  0.00    +0.112 C 
ATOM     18  H   UNL     1      35.359  -9.571 -22.963  0.00  0.00    -0.080 HD
ENDROOT
BRANCH   2  19
ATOM     19  C   UNL     1      34.449 -10.770 -24.328  0.00  0.00    -0.077 C 
BRANCH  19  20
ATOM     20  C   UNL     1      33.537 -11.705 -23.530  0.00  0.00    -0.015 C 
BRANCH  20  21
ATOM     21  C   UNL     1      34.292 -12.913 -22.967  0.00  0.00    +0.067 C 
BRANCH  21  23
ATOM     22  O   UNL     1      33.208 -14.276 -24.637  0.00  0.00    -0.291 OA
ATOM     23  C   UNL     1      33.900 -14.229 -23.624  0.00  0.00    +0.173 C 
BRANCH  23  25
ATOM     24  F   UNL     1      35.778 -19.020 -21.365  0.00  0.00    -0.204 F 
ATOM     25  C   UNL     1      34.398 -15.501 -23.024  0.00  0.00    +0.035 C 
ATOM     26  C   UNL     1      34.729 -16.577 -23.848  0.00  0.00    +0.005 C 
ATOM     27  C   UNL     1      34.533 -15.614 -21.641  0.00  0.00    +0.005 C 
ATOM     28  C   UNL     1      35.196 -17.766 -23.287  0.00  0.00    +0.030 C 
ATOM     29  C   UNL     1      34.999 -16.803 -21.080  0.00  0.00    +0.030 C 
ATOM     30  C   UNL     1      35.331 -17.878 -21.903  0.00  0.00    +0.140 C 
ENDBRANCH  23  25
ENDBRANCH  21  23
ENDBRANCH  20  21
ENDBRANCH  19  20
ENDBRANCH   2  19
TORSDOF 5
ENDMDL
MODEL 8
REMARK VINA RESULT:      -9.7      6.905     12.610
REMARK  Name = 21302490
REMARK  5 active torsions:
REMARK  status: ('A' for Active; 'I' for Inactive)
REMARK    1  A    between atoms: N_2  and  C_19
REMARK    2  A    between atoms: C_19  and  C_20
REMARK    3  A    between atoms: C_20  and  C_21
REMARK    4  A    between atoms: C_21  and  C_23
REMARK    5  A    between atoms: C_23  and  C_25
REMARK                            x       y       z     vdW  Elec       q    Type
REMARK                         _______ _______ _______ _____ _____    ______ ____
ROOT
ATOM      1  N   UNL     1      38.088 -23.751 -15.025  0.00  0.00    -0.307 N 
ATOM      2  N   UNL     1      34.539 -22.869 -16.142  0.00  0.00    +0.387 N 
ATOM      3  N   UNL     1      39.898 -25.724 -14.021  0.00  0.00    -0.303 N 
ATOM      4  C   UNL     1      37.186 -22.600 -14.895  0.00  0.00    +0.073 C 
ATOM      5  C   UNL     1      35.945 -23.129 -14.104  0.00  0.00    +0.021 C 
ATOM      6  C   UNL     1      36.823 -21.968 -16.234  0.00  0.00    -0.003 C 
ATOM      7  C   UNL     1      34.845 -23.729 -14.994  0.00  0.00    -0.071 C 
ATOM      8  C   UNL     1      36.597 -24.212 -13.293  0.00  0.00    -0.008 C 
ATOM      9  C   UNL     1      37.821 -24.535 -13.885  0.00  0.00    +0.057 C 
ATOM     10  C   UNL     1      35.731 -22.721 -16.989  0.00  0.00    -0.076 C 
ATOM     11  C   UNL     1      39.490 -23.677 -15.379  0.00  0.00    +0.112 C 
ATOM     12  C   UNL     1      38.680 -25.514 -13.387  0.00  0.00    +0.061 C 
ATOM     13  C   UNL     1      40.103 -25.086 -15.331  0.00  0.00    +0.112 C 
ATOM     14  C   UNL     1      36.162 -24.879 -12.167  0.00  0.00    -0.003 C 
ATOM     15  C   UNL     1      38.234 -26.180 -12.238  0.00  0.00    +0.016 C 
ATOM     16  C   UNL     1      36.993 -25.869 -11.640  0.00  0.00    +0.001 C 
ATOM     17  C   UNL     1      40.772 -26.815 -13.629  0.00  0.00    +0.112 C 
ATOM     18  H   UNL     1      34.260 -21.949 -15.801  0.00  0.00    -0.080 HD
ENDROOT
BRANCH   2  19
ATOM     19  C   UNL     1      33.433 -23.432 -16.917  0.00  0.00    -0.077 C 
BRANCH  19  20
ATOM     20  C   UNL     1      32.851 -22.373 -17.855  0.00  0.00    -0.015 C 
BRANCH  20  21
ATOM     21  C   UNL     1      33.628 -22.271 -19.171  0.00  0.00    +0.067 C 
BRANCH  21  23
ATOM     22  O   UNL     1      32.376 -20.374 -19.983  0.00  0.00    -0.291 OA
ATOM     23  C   UNL     1      33.467 -20.926 -19.865  0.00  0.00    +0.173 C 
BRANCH  23  25
ATOM     24  F   UNL     1      38.053 -18.377 -21.878  0.00  0.00    -0.204 F 
ATOM     25  C   UNL     1      34.684 -20.248 -20.398  0.00  0.00    +0.035 C 
ATOM     26  C   UNL     1      35.947 -20.621 -19.939  0.00  0.00    +0.005 C 
ATOM     27  C   UNL     1      34.559 -19.245 -21.358  0.00  0.00    +0.005 C 
ATOM     28  C   UNL     1      37.086 -19.989 -20.438  0.00  0.00    +0.030 C 
ATOM     29  C   UNL     1      35.697 -18.612 -21.858  0.00  0.00    +0.030 C 
ATOM     30  C   UNL     1      36.960 -18.984 -21.398  0.00  0.00    +0.140 C 
ENDBRANCH  23  25
ENDBRANCH  21  23
ENDBRANCH  20  21
ENDBRANCH  19  20
ENDBRANCH   2  19
TORSDOF 5
ENDMDL
MODEL 9
REMARK VINA RESULT:      -9.6      5.062     11.846
REMARK  Name = 21302490
REMARK  5 active torsions:
REMARK  status: ('A' for Active; 'I' for Inactive)
REMARK    1  A    between atoms: N_2  and  C_19
REMARK    2  A    between atoms: C_19  and  C_20
REMARK    3  A    between atoms: C_20  and  C_21
REMARK    4  A    between atoms: C_21  and  C_23
REMARK    5  A    between atoms: C_23  and  C_25
REMARK                            x       y       z     vdW  Elec       q    Type
REMARK                         _______ _______ _______ _____ _____    ______ ____
ROOT
ATOM      1  N   UNL     1      37.136 -23.332 -15.466  0.00  0.00    -0.307 N 
ATOM      2  N   UNL     1      35.638 -21.442 -18.433  0.00  0.00    +0.387 N 
ATOM      3  N   UNL     1      37.151 -25.688 -13.845  0.00  0.00    -0.303 N 
ATOM      4  C   UNL     1      36.776 -21.941 -15.771  0.00  0.00    +0.073 C 
ATOM      5  C   UNL     1      35.234 -21.957 -16.031  0.00  0.00    +0.021 C 
ATOM      6  C   UNL     1      37.577 -21.353 -16.927  0.00  0.00    -0.003 C 
ATOM      7  C   UNL     1      34.850 -22.243 -17.492  0.00  0.00    -0.071 C 
ATOM      8  C   UNL     1      34.835 -23.114 -15.159  0.00  0.00    -0.008 C 
ATOM      9  C   UNL     1      35.974 -23.875 -14.882  0.00  0.00    +0.057 C 
ATOM     10  C   UNL     1      37.064 -21.773 -18.301  0.00  0.00    -0.076 C 
ATOM     11  C   UNL     1      38.370 -23.756 -14.837  0.00  0.00    +0.112 C 
ATOM     12  C   UNL     1      35.954 -25.030 -14.103  0.00  0.00    +0.061 C 
ATOM     13  C   UNL     1      38.333 -25.278 -14.618  0.00  0.00    +0.112 C 
ATOM     14  C   UNL     1      33.601 -23.493 -14.676  0.00  0.00    -0.003 C 
ATOM     15  C   UNL     1      34.697 -25.403 -13.608  0.00  0.00    +0.016 C 
ATOM     16  C   UNL     1      33.539 -24.648 -13.894  0.00  0.00    +0.001 C 
ATOM     17  C   UNL     1      37.175 -26.963 -13.152  0.00  0.00    +0.112 C 
ATOM     18  H   UNL     1      35.507 -20.453 -18.216  0.00  0.00    -0.080 HD
ENDROOT
BRANCH   2  19
ATOM     19  C   UNL     1      35.187 -21.680 -19.805  0.00  0.00    -0.077 C 
BRANCH  19  20
ATOM     20  C   UNL     1      34.317 -20.517 -20.285  0.00  0.00    -0.015 C 
BRANCH  20  21
ATOM     21  C   UNL     1      34.886 -19.843 -21.537  0.00  0.00    +0.067 C 
BRANCH  21  23
ATOM     22  O   UNL     1      36.649 -18.534 -20.536  0.00  0.00    -0.291 OA
ATOM     23  C   UNL     1      35.643 -18.557 -21.239  0.00  0.00    +0.173 C 
BRANCH  23  25
ATOM     24  F   UNL     1      33.791 -13.765 -23.520  0.00  0.00    -0.204 F 
ATOM     25  C   UNL     1      35.153 -17.284 -21.845  0.00  0.00    +0.035 C 
ATOM     26  C   UNL     1      35.163 -17.122 -23.230  0.00  0.00    +0.005 C 
ATOM     27  C   UNL     1      34.681 -16.259 -21.026  0.00  0.00    +0.005 C 
ATOM     28  C   UNL     1      34.704 -15.933 -23.796  0.00  0.00    +0.030 C 
ATOM     29  C   UNL     1      34.222 -15.069 -21.591  0.00  0.00    +0.030 C 
ATOM     30  C   UNL     1      34.232 -14.907 -22.976  0.00  0.00    +0.140 C 
ENDBRANCH  23  25
ENDBRANCH  21  23
ENDBRANCH  20  21
ENDBRANCH  19  20
ENDBRANCH   2  19
TORSDOF 5
ENDMDL
