MODEL 1
REMARK VINA RESULT:     -13.0      0.000      0.000
REMARK  Name = 5073
REMARK  4 active torsions:
REMARK  status: ('A' for Active; 'I' for Inactive)
REMARK    1  A    between atoms: N_1  and  C_18
REMARK    2  A    between atoms: C_2  and  C_11
REMARK    3  A    between atoms: C_18  and  C_19
REMARK    4  A    between atoms: C_19  and  C_23
REMARK                            x       y       z     vdW  Elec       q    Type
REMARK                         _______ _______ _______ _____ _____    ______ ____
ROOT
ATOM      1  N   UNL     1      36.115 -19.793 -20.135  0.00  0.00    +0.387 N 
ATOM      2  C   UNL     1      35.558 -18.591 -22.753  0.00  0.00    +0.039 C 
ATOM      3  C   UNL     1      34.449 -19.166 -21.855  0.00  0.00    -0.017 C 
ATOM      4  C   UNL     1      36.762 -18.174 -21.892  0.00  0.00    -0.017 C 
ATOM      5  C   UNL     1      34.989 -20.274 -20.948  0.00  0.00    -0.077 C 
ATOM      6  C   UNL     1      37.217 -19.318 -20.983  0.00  0.00    -0.077 C 
ATOM      7  H   UNL     1      35.785 -19.006 -19.576  0.00  0.00    -0.080 HD
ENDROOT
BRANCH   2  11
ATOM      8  F   UNL     1      33.445 -12.247 -23.468  0.00  0.00    -0.204 F 
ATOM      9  O   UNL     1      34.468 -16.497 -25.474  0.00  0.00    -0.354 OA
ATOM     10  N   UNL     1      34.930 -17.698 -24.953  0.00  0.00    -0.081 NA
ATOM     11  C   UNL     1      35.065 -17.475 -23.647  0.00  0.00    +0.100 A 
ATOM     12  C   UNL     1      34.712 -16.171 -23.272  0.00  0.00    +0.054 A 
ATOM     13  C   UNL     1      34.339 -15.587 -24.470  0.00  0.00    +0.179 A 
ATOM     14  C   UNL     1      34.656 -15.408 -22.096  0.00  0.00    +0.007 C 
ATOM     15  C   UNL     1      33.905 -14.271 -24.600  0.00  0.00    +0.070 C 
ATOM     16  C   UNL     1      34.222 -14.078 -22.189  0.00  0.00    +0.030 C 
ATOM     17  C   UNL     1      33.854 -13.522 -23.419  0.00  0.00    +0.143 C 
ENDBRANCH   2  11
BRANCH   1  18
ATOM     18  C   UNL     1      36.580 -20.846 -19.233  0.00  0.00    -0.076 C 
BRANCH  18  19
ATOM     19  C   UNL     1      35.655 -22.051 -19.323  0.00  0.00    -0.007 C 
BRANCH  19  23
ATOM     20  O   UNL     1      32.942 -22.526 -18.927  0.00  0.00    -0.274 OA
ATOM     21  N   UNL     1      33.128 -22.959 -16.646  0.00  0.00    -0.237 N 
ATOM     22  N   UNL     1      35.245 -22.794 -15.603  0.00  0.00    -0.399 NA
ATOM     23  C   UNL     1      35.104 -22.405 -17.973  0.00  0.00    +0.123 C 
ATOM     24  C   UNL     1      31.673 -23.108 -16.526  0.00  0.00    +0.100 C 
ATOM     25  C   UNL     1      31.209 -23.803 -15.260  0.00  0.00    +0.022 C 
ATOM     26  C   UNL     1      33.968 -23.003 -15.548  0.00  0.00    +0.165 C 
ATOM     27  C   UNL     1      31.899 -23.175 -14.067  0.00  0.00    +0.011 C 
ATOM     28  C   UNL     1      33.394 -23.385 -14.196  0.00  0.00    +0.075 C 
ATOM     29  C   UNL     1      33.626 -22.636 -17.910  0.00  0.00    +0.237 C 
ATOM     30  C   UNL     1      35.802 -22.499 -16.824  0.00  0.00    +0.096 C 
ATOM     31  C   UNL     1      37.296 -22.318 -16.758  0.00  0.00    +0.062 C 
ENDBRANCH  19  23
ENDBRANCH  18  19
ENDBRANCH   1  18
TORSDOF 4
ENDMDL
MODEL 2
REMARK VINA RESULT:     -12.5      3.506      9.560
REMARK  Name = 5073
REMARK  4 active torsions:
REMARK  status: ('A' for Active; 'I' for Inactive)
REMARK    1  A    between atoms: N_1  and  C_18
REMARK    2  A    between atoms: C_2  and  C_11
REMARK    3  A    between atoms: C_18  and  C_19
REMARK    4  A    between atoms: C_19  and  C_23
REMARK                            x       y       z     vdW  Elec       q    Type
REMARK                         _______ _______ _______ _____ _____    ______ ____
ROOT
ATOM      1  N   UNL     1      34.860 -19.718 -21.053  0.00  0.00    +0.387 N 
ATOM      2  C   UNL     1      34.877 -21.860 -19.047  0.00  0.00    +0.039 C 
ATOM      3  C   UNL     1      36.144 -21.077 -19.431  0.00  0.00    -0.017 C 
ATOM      4  C   UNL     1      33.630 -21.006 -19.333  0.00  0.00    -0.017 C 
ATOM      5  C   UNL     1      36.057 -20.550 -20.865  0.00  0.00    -0.077 C 
ATOM      6  C   UNL     1      33.636 -20.481 -20.771  0.00  0.00    -0.077 C 
ATOM      7  H   UNL     1      34.908 -18.944 -20.392  0.00  0.00    -0.080 HD
ENDROOT
BRANCH   2  11
ATOM      8  F   UNL     1      31.654 -24.329 -13.687  0.00  0.00    -0.204 F 
ATOM      9  O   UNL     1      35.779 -22.941 -15.732  0.00  0.00    -0.354 OA
ATOM     10  N   UNL     1      36.084 -22.433 -16.987  0.00  0.00    -0.081 NA
ATOM     11  C   UNL     1      34.918 -22.376 -17.627  0.00  0.00    +0.100 A 
ATOM     12  C   UNL     1      33.842 -22.827 -16.849  0.00  0.00    +0.054 A 
ATOM     13  C   UNL     1      34.441 -23.176 -15.651  0.00  0.00    +0.179 A 
ATOM     14  C   UNL     1      32.456 -22.989 -16.989  0.00  0.00    +0.007 C 
ATOM     15  C   UNL     1      33.758 -23.687 -14.551  0.00  0.00    +0.070 C 
ATOM     16  C   UNL     1      31.735 -23.500 -15.900  0.00  0.00    +0.030 C 
ATOM     17  C   UNL     1      32.376 -23.843 -14.705  0.00  0.00    +0.143 C 
ENDBRANCH   2  11
BRANCH   1  18
ATOM     18  C   UNL     1      34.823 -19.176 -22.411  0.00  0.00    -0.076 C 
BRANCH  18  19
ATOM     19  C   UNL     1      35.748 -17.971 -22.512  0.00  0.00    -0.007 C 
BRANCH  19  23
ATOM     20  O   UNL     1      34.785 -16.674 -20.246  0.00  0.00    -0.274 OA
ATOM     21  N   UNL     1      33.772 -14.928 -21.410  0.00  0.00    -0.237 N 
ATOM     22  N   UNL     1      33.845 -14.915 -23.775  0.00  0.00    -0.399 NA
ATOM     23  C   UNL     1      34.959 -16.698 -22.607  0.00  0.00    +0.123 C 
ATOM     24  C   UNL     1      33.239 -14.368 -20.164  0.00  0.00    +0.100 C 
ATOM     25  C   UNL     1      32.772 -12.928 -20.263  0.00  0.00    +0.022 C 
ATOM     26  C   UNL     1      33.461 -14.400 -22.650  0.00  0.00    +0.165 C 
ATOM     27  C   UNL     1      31.880 -12.779 -21.478  0.00  0.00    +0.011 C 
ATOM     28  C   UNL     1      32.683 -13.099 -22.722  0.00  0.00    +0.075 C 
ATOM     29  C   UNL     1      34.509 -16.110 -21.306  0.00  0.00    +0.237 C 
ATOM     30  C   UNL     1      34.598 -16.063 -23.739  0.00  0.00    +0.096 C 
ATOM     31  C   UNL     1      35.012 -16.536 -25.108  0.00  0.00    +0.062 C 
ENDBRANCH  19  23
ENDBRANCH  18  19
ENDBRANCH   1  18
TORSDOF 4
ENDMDL
MODEL 3
REMARK VINA RESULT:     -12.5      1.649      2.371
REMARK  Name = 5073
REMARK  4 active torsions:
REMARK  status: ('A' for Active; 'I' for Inactive)
REMARK    1  A    between atoms: N_1  and  C_18
REMARK    2  A    between atoms: C_2  and  C_11
REMARK    3  A    between atoms: C_18  and  C_19
REMARK    4  A    between atoms: C_19  and  C_23
REMARK                            x       y       z     vdW  Elec       q    Type
REMARK                         _______ _______ _______ _____ _____    ______ ____
ROOT
ATOM      1  N   UNL     1      34.645 -22.080 -19.648  0.00  0.00    +0.387 N 
ATOM      2  C   UNL     1      34.887 -19.357 -20.714  0.00  0.00    +0.039 C 
ATOM      3  C   UNL     1      36.062 -20.349 -20.708  0.00  0.00    -0.017 C 
ATOM      4  C   UNL     1      33.555 -20.126 -20.707  0.00  0.00    -0.017 C 
ATOM      5  C   UNL     1      35.927 -21.364 -19.571  0.00  0.00    -0.077 C 
ATOM      6  C   UNL     1      33.512 -21.149 -19.569  0.00  0.00    -0.077 C 
ATOM      7  H   UNL     1      34.603 -22.552 -20.552  0.00  0.00    -0.080 HD
ENDROOT
BRANCH   2  11
ATOM      8  F   UNL     1      34.503 -12.990 -22.843  0.00  0.00    -0.204 F 
ATOM      9  O   UNL     1      35.269 -17.630 -23.852  0.00  0.00    -0.354 OA
ATOM     10  N   UNL     1      35.264 -18.777 -23.070  0.00  0.00    -0.081 NA
ATOM     11  C   UNL     1      34.976 -18.353 -21.841  0.00  0.00    +0.100 A 
ATOM     12  C   UNL     1      34.790 -16.966 -21.768  0.00  0.00    +0.054 A 
ATOM     13  C   UNL     1      34.987 -16.549 -23.074  0.00  0.00    +0.179 A 
ATOM     14  C   UNL     1      34.485 -16.010 -20.787  0.00  0.00    +0.007 C 
ATOM     15  C   UNL     1      34.904 -15.226 -23.496  0.00  0.00    +0.070 C 
ATOM     16  C   UNL     1      34.392 -14.666 -21.178  0.00  0.00    +0.030 C 
ATOM     17  C   UNL     1      34.599 -14.284 -22.508  0.00  0.00    +0.143 C 
ENDBRANCH   2  11
BRANCH   1  18
ATOM     18  C   UNL     1      34.557 -23.085 -18.589  0.00  0.00    -0.076 C 
BRANCH  18  19
ATOM     19  C   UNL     1      34.723 -22.421 -17.230  0.00  0.00    -0.007 C 
BRANCH  19  23
ATOM     20  O   UNL     1      31.944 -22.484 -17.114  0.00  0.00    -0.274 OA
ATOM     21  N   UNL     1      31.836 -23.851 -15.231  0.00  0.00    -0.237 N 
ATOM     22  N   UNL     1      33.842 -24.545 -14.185  0.00  0.00    -0.399 NA
ATOM     23  C   UNL     1      33.995 -23.189 -16.166  0.00  0.00    +0.123 C 
ATOM     24  C   UNL     1      30.373 -23.753 -15.207  0.00  0.00    +0.100 C 
ATOM     25  C   UNL     1      29.680 -24.807 -14.364  0.00  0.00    +0.022 C 
ATOM     26  C   UNL     1      32.549 -24.507 -14.243  0.00  0.00    +0.165 C 
ATOM     27  C   UNL     1      30.349 -24.876 -13.008  0.00  0.00    +0.011 C 
ATOM     28  C   UNL     1      31.792 -25.297 -13.191  0.00  0.00    +0.075 C 
ATOM     29  C   UNL     1      32.500 -23.136 -16.231  0.00  0.00    +0.237 C 
ATOM     30  C   UNL     1      34.555 -23.884 -15.157  0.00  0.00    +0.096 C 
ATOM     31  C   UNL     1      36.044 -24.038 -14.998  0.00  0.00    +0.062 C 
ENDBRANCH  19  23
ENDBRANCH  18  19
ENDBRANCH   1  18
TORSDOF 4
ENDMDL
MODEL 4
REMARK VINA RESULT:     -12.4      3.497      9.504
REMARK  Name = 5073
REMARK  4 active torsions:
REMARK  status: ('A' for Active; 'I' for Inactive)
REMARK    1  A    between atoms: N_1  and  C_18
REMARK    2  A    between atoms: C_2  and  C_11
REMARK    3  A    between atoms: C_18  and  C_19
REMARK    4  A    between atoms: C_19  and  C_23
REMARK                            x       y       z     vdW  Elec       q    Type
REMARK                         _______ _______ _______ _____ _____    ______ ____
ROOT
ATOM      1  N   UNL     1      34.797 -19.691 -21.126  0.00  0.00    +0.387 N 
ATOM      2  C   UNL     1      34.538 -21.879 -19.188  0.00  0.00    +0.039 C 
ATOM      3  C   UNL     1      35.886 -21.209 -19.502  0.00  0.00    -0.017 C 
ATOM      4  C   UNL     1      33.388 -20.904 -19.492  0.00  0.00    -0.017 C 
ATOM      5  C   UNL     1      35.905 -20.636 -20.921  0.00  0.00    -0.077 C 
ATOM      6  C   UNL     1      33.498 -20.342 -20.912  0.00  0.00    -0.077 C 
ATOM      7  H   UNL     1      34.892 -18.943 -20.440  0.00  0.00    -0.080 HD
ENDROOT
BRANCH   2  11
ATOM      8  F   UNL     1      37.617 -23.307 -13.384  0.00  0.00    -0.204 F 
ATOM      9  O   UNL     1      33.602 -23.338 -16.031  0.00  0.00    -0.354 OA
ATOM     10  N   UNL     1      33.322 -22.913 -17.323  0.00  0.00    -0.081 NA
ATOM     11  C   UNL     1      34.476 -22.436 -17.784  0.00  0.00    +0.100 A 
ATOM     12  C   UNL     1      35.519 -22.523 -16.852  0.00  0.00    +0.054 A 
ATOM     13  C   UNL     1      34.913 -23.104 -15.751  0.00  0.00    +0.179 A 
ATOM     14  C   UNL     1      36.881 -22.194 -16.784  0.00  0.00    +0.007 C 
ATOM     15  C   UNL     1      35.566 -23.392 -14.556  0.00  0.00    +0.070 C 
ATOM     16  C   UNL     1      37.571 -22.471 -15.595  0.00  0.00    +0.030 C 
ATOM     17  C   UNL     1      36.924 -23.058 -14.503  0.00  0.00    +0.143 C 
ENDBRANCH   2  11
BRANCH   1  18
ATOM     18  C   UNL     1      34.864 -19.109 -22.467  0.00  0.00    -0.076 C 
BRANCH  18  19
ATOM     19  C   UNL     1      35.767 -17.885 -22.455  0.00  0.00    -0.007 C 
BRANCH  19  23
ATOM     20  O   UNL     1      34.755 -16.604 -20.201  0.00  0.00    -0.274 OA
ATOM     21  N   UNL     1      33.729 -14.874 -21.376  0.00  0.00    -0.237 N 
ATOM     22  N   UNL     1      33.832 -14.858 -23.740  0.00  0.00    -0.399 NA
ATOM     23  C   UNL     1      34.960 -16.624 -22.559  0.00  0.00    +0.123 C 
ATOM     24  C   UNL     1      33.171 -14.324 -20.137  0.00  0.00    +0.100 C 
ATOM     25  C   UNL     1      32.683 -12.891 -20.242  0.00  0.00    +0.022 C 
ATOM     26  C   UNL     1      33.426 -14.350 -22.620  0.00  0.00    +0.165 C 
ATOM     27  C   UNL     1      31.804 -12.755 -21.467  0.00  0.00    +0.011 C 
ATOM     28  C   UNL     1      32.628 -13.061 -22.701  0.00  0.00    +0.075 C 
ATOM     29  C   UNL     1      34.484 -16.044 -21.263  0.00  0.00    +0.237 C 
ATOM     30  C   UNL     1      34.603 -15.994 -23.696  0.00  0.00    +0.096 C 
ATOM     31  C   UNL     1      35.041 -16.459 -25.060  0.00  0.00    +0.062 C 
ENDBRANCH  19  23
ENDBRANCH  18  19
ENDBRANCH   1  18
TORSDOF 4
ENDMDL
MODEL 5
REMARK VINA RESULT:     -12.3      2.260      3.809
REMARK  Name = 5073
REMARK  4 active torsions:
REMARK  status: ('A' for Active; 'I' for Inactive)
REMARK    1  A    between atoms: N_1  and  C_18
REMARK    2  A    between atoms: C_2  and  C_11
REMARK    3  A    between atoms: C_18  and  C_19
REMARK    4  A    between atoms: C_19  and  C_23
REMARK                            x       y       z     vdW  Elec       q    Type
REMARK                         _______ _______ _______ _____ _____    ______ ____
ROOT
ATOM      1  N   UNL     1      34.116 -22.585 -18.962  0.00  0.00    +0.387 N 
ATOM      2  C   UNL     1      34.625 -20.023 -20.299  0.00  0.00    +0.039 C 
ATOM      3  C   UNL     1      35.695 -21.122 -20.184  0.00  0.00    -0.017 C 
ATOM      4  C   UNL     1      33.223 -20.650 -20.222  0.00  0.00    -0.017 C 
ATOM      5  C   UNL     1      35.462 -21.996 -18.949  0.00  0.00    -0.077 C 
ATOM      6  C   UNL     1      33.081 -21.541 -18.986  0.00  0.00    -0.077 C 
ATOM      7  H   UNL     1      34.023 -23.140 -19.812  0.00  0.00    -0.080 HD
ENDROOT
BRANCH   2  11
ATOM      8  F   UNL     1      34.903 -13.901 -23.066  0.00  0.00    -0.204 F 
ATOM      9  O   UNL     1      35.159 -18.674 -23.596  0.00  0.00    -0.354 OA
ATOM     10  N   UNL     1      35.039 -19.729 -22.702  0.00  0.00    -0.081 NA
ATOM     11  C   UNL     1      34.810 -19.154 -21.523  0.00  0.00    +0.100 A 
ATOM     12  C   UNL     1      34.774 -17.754 -21.591  0.00  0.00    +0.054 A 
ATOM     13  C   UNL     1      35.002 -17.496 -22.932  0.00  0.00    +0.179 A 
ATOM     14  C   UNL     1      34.582 -16.677 -20.714  0.00  0.00    +0.007 C 
ATOM     15  C   UNL     1      35.057 -16.221 -23.488  0.00  0.00    +0.070 C 
ATOM     16  C   UNL     1      34.630 -15.377 -21.240  0.00  0.00    +0.030 C 
ATOM     17  C   UNL     1      34.864 -15.157 -22.601  0.00  0.00    +0.143 C 
ENDBRANCH   2  11
BRANCH   1  18
ATOM     18  C   UNL     1      33.931 -23.462 -17.806  0.00  0.00    -0.076 C 
BRANCH  18  19
ATOM     19  C   UNL     1      33.308 -22.681 -16.658  0.00  0.00    -0.007 C 
BRANCH  19  23
ATOM     20  O   UNL     1      35.931 -22.311 -15.808  0.00  0.00    -0.274 OA
ATOM     21  N   UNL     1      35.659 -23.416 -13.776  0.00  0.00    -0.237 N 
ATOM     22  N   UNL     1      33.566 -24.390 -13.256  0.00  0.00    -0.399 NA
ATOM     23  C   UNL     1      33.789 -23.199 -15.335  0.00  0.00    +0.123 C 
ATOM     24  C   UNL     1      37.080 -23.243 -13.457  0.00  0.00    +0.100 C 
ATOM     25  C   UNL     1      37.434 -23.452 -11.997  0.00  0.00    +0.022 C 
ATOM     26  C   UNL     1      34.805 -24.145 -12.968  0.00  0.00    +0.165 C 
ATOM     27  C   UNL     1      36.813 -24.747 -11.516  0.00  0.00    +0.011 C 
ATOM     28  C   UNL     1      35.306 -24.640 -11.623  0.00  0.00    +0.075 C 
ATOM     29  C   UNL     1      35.224 -22.923 -15.008  0.00  0.00    +0.237 C 
ATOM     30  C   UNL     1      33.068 -23.907 -14.443  0.00  0.00    +0.096 C 
ATOM     31  C   UNL     1      31.610 -24.225 -14.639  0.00  0.00    +0.062 C 
ENDBRANCH  19  23
ENDBRANCH  18  19
ENDBRANCH   1  18
TORSDOF 4
ENDMDL
MODEL 6
REMARK VINA RESULT:     -12.3      3.469     10.203
REMARK  Name = 5073
REMARK  4 active torsions:
REMARK  status: ('A' for Active; 'I' for Inactive)
REMARK    1  A    between atoms: N_1  and  C_18
REMARK    2  A    between atoms: C_2  and  C_11
REMARK    3  A    between atoms: C_18  and  C_19
REMARK    4  A    between atoms: C_19  and  C_23
REMARK                            x       y       z     vdW  Elec       q    Type
REMARK                         _______ _______ _______ _____ _____    ______ ____
ROOT
ATOM      1  N   UNL     1      34.556 -20.574 -19.845  0.00  0.00    +0.387 N 
ATOM      2  C   UNL     1      34.320 -22.713 -17.850  0.00  0.00    +0.039 C 
ATOM      3  C   UNL     1      35.642 -21.973 -18.115  0.00  0.00    -0.017 C 
ATOM      4  C   UNL     1      33.133 -21.819 -18.247  0.00  0.00    -0.017 C 
ATOM      5  C   UNL     1      35.704 -21.443 -19.550  0.00  0.00    -0.077 C 
ATOM      6  C   UNL     1      33.287 -21.295 -19.677  0.00  0.00    -0.077 C 
ATOM      7  H   UNL     1      34.569 -19.800 -19.180  0.00  0.00    -0.080 HD
ENDROOT
BRANCH   2  11
ATOM      8  F   UNL     1      30.511 -24.452 -12.589  0.00  0.00    -0.204 F 
ATOM      9  O   UNL     1      34.888 -23.970 -14.522  0.00  0.00    -0.354 OA
ATOM     10  N   UNL     1      35.326 -23.535 -15.767  0.00  0.00    -0.081 NA
ATOM     11  C   UNL     1      34.215 -23.229 -16.433  0.00  0.00    +0.100 A 
ATOM     12  C   UNL     1      33.048 -23.443 -15.685  0.00  0.00    +0.054 A 
ATOM     13  C   UNL     1      33.529 -23.915 -14.475  0.00  0.00    +0.179 A 
ATOM     14  C   UNL     1      31.663 -23.305 -15.860  0.00  0.00    +0.007 C 
ATOM     15  C   UNL     1      32.725 -24.271 -13.397  0.00  0.00    +0.070 C 
ATOM     16  C   UNL     1      30.823 -23.654 -14.793  0.00  0.00    +0.030 C 
ATOM     17  C   UNL     1      31.346 -24.128 -13.586  0.00  0.00    +0.143 C 
ENDBRANCH   2  11
BRANCH   1  18
ATOM     18  C   UNL     1      34.661 -20.031 -21.199  0.00  0.00    -0.076 C 
BRANCH  18  19
ATOM     19  C   UNL     1      35.537 -18.786 -21.191  0.00  0.00    -0.007 C 
BRANCH  19  23
ATOM     20  O   UNL     1      34.934 -16.113 -20.703  0.00  0.00    -0.274 OA
ATOM     21  N   UNL     1      34.486 -15.583 -22.927  0.00  0.00    -0.237 N 
ATOM     22  N   UNL     1      34.611 -17.279 -24.572  0.00  0.00    -0.399 NA
ATOM     23  C   UNL     1      35.146 -17.850 -22.297  0.00  0.00    +0.123 C 
ATOM     24  C   UNL     1      34.107 -14.216 -22.554  0.00  0.00    +0.100 C 
ATOM     25  C   UNL     1      34.072 -13.230 -23.708  0.00  0.00    +0.022 C 
ATOM     26  C   UNL     1      34.366 -16.056 -24.221  0.00  0.00    +0.165 C 
ATOM     27  C   UNL     1      33.286 -13.834 -24.852  0.00  0.00    +0.011 C 
ATOM     28  C   UNL     1      33.992 -15.087 -25.328  0.00  0.00    +0.075 C 
ATOM     29  C   UNL     1      34.853 -16.440 -21.887  0.00  0.00    +0.237 C 
ATOM     30  C   UNL     1      35.005 -18.166 -23.599  0.00  0.00    +0.096 C 
ATOM     31  C   UNL     1      35.297 -19.540 -24.144  0.00  0.00    +0.062 C 
ENDBRANCH  19  23
ENDBRANCH  18  19
ENDBRANCH   1  18
TORSDOF 4
ENDMDL
MODEL 7
REMARK VINA RESULT:     -12.3      3.248     10.012
REMARK  Name = 5073
REMARK  4 active torsions:
REMARK  status: ('A' for Active; 'I' for Inactive)
REMARK    1  A    between atoms: N_1  and  C_18
REMARK    2  A    between atoms: C_2  and  C_11
REMARK    3  A    between atoms: C_18  and  C_19
REMARK    4  A    between atoms: C_19  and  C_23
REMARK                            x       y       z     vdW  Elec       q    Type
REMARK                         _______ _______ _______ _____ _____    ______ ____
ROOT
ATOM      1  N   UNL     1      35.745 -19.169 -20.864  0.00  0.00    +0.387 N 
ATOM      2  C   UNL     1      34.890 -21.615 -19.486  0.00  0.00    +0.039 C 
ATOM      3  C   UNL     1      36.262 -20.965 -19.241  0.00  0.00    -0.017 C 
ATOM      4  C   UNL     1      33.893 -20.555 -19.983  0.00  0.00    -0.017 C 
ATOM      5  C   UNL     1      36.734 -20.183 -20.469  0.00  0.00    -0.077 C 
ATOM      6  C   UNL     1      34.451 -19.788 -21.184  0.00  0.00    -0.077 C 
ATOM      7  H   UNL     1      35.607 -18.540 -20.074  0.00  0.00    -0.080 HD
ENDROOT
BRANCH   2  11
ATOM      8  F   UNL     1      35.945 -24.060 -13.312  0.00  0.00    -0.204 F 
ATOM      9  O   UNL     1      32.995 -23.497 -17.068  0.00  0.00    -0.354 OA
ATOM     10  N   UNL     1      33.144 -22.866 -18.297  0.00  0.00    -0.081 NA
ATOM     11  C   UNL     1      34.382 -22.378 -18.284  0.00  0.00    +0.100 A 
ATOM     12  C   UNL     1      35.071 -22.656 -17.094  0.00  0.00    +0.054 A 
ATOM     13  C   UNL     1      34.145 -23.370 -16.352  0.00  0.00    +0.179 A 
ATOM     14  C   UNL     1      36.336 -22.404 -16.544  0.00  0.00    +0.007 C 
ATOM     15  C   UNL     1      34.381 -23.868 -15.074  0.00  0.00    +0.070 C 
ATOM     16  C   UNL     1      36.609 -22.893 -15.258  0.00  0.00    +0.030 C 
ATOM     17  C   UNL     1      35.648 -23.610 -14.539  0.00  0.00    +0.143 C 
ENDBRANCH   2  11
BRANCH   1  18
ATOM     18  C   UNL     1      36.236 -18.393 -22.003  0.00  0.00    -0.076 C 
BRANCH  18  19
ATOM     19  C   UNL     1      35.130 -18.236 -23.037  0.00  0.00    -0.007 C 
BRANCH  19  23
ATOM     20  O   UNL     1      34.703 -17.124 -25.552  0.00  0.00    -0.274 OA
ATOM     21  N   UNL     1      34.221 -14.986 -24.765  0.00  0.00    -0.237 N 
ATOM     22  N   UNL     1      34.321 -14.555 -22.441  0.00  0.00    -0.399 NA
ATOM     23  C   UNL     1      34.761 -16.791 -23.210  0.00  0.00    +0.123 C 
ATOM     24  C   UNL     1      34.100 -14.477 -26.135  0.00  0.00    +0.100 C 
ATOM     25  C   UNL     1      33.389 -13.142 -26.257  0.00  0.00    +0.022 C 
ATOM     26  C   UNL     1      34.138 -14.158 -23.660  0.00  0.00    +0.165 C 
ATOM     27  C   UNL     1      33.978 -12.173 -25.253  0.00  0.00    +0.011 C 
ATOM     28  C   UNL     1      33.740 -12.706 -23.855  0.00  0.00    +0.075 C 
ATOM     29  C   UNL     1      34.559 -16.333 -24.620  0.00  0.00    +0.237 C 
ATOM     30  C   UNL     1      34.629 -15.877 -22.228  0.00  0.00    +0.096 C 
ATOM     31  C   UNL     1      34.778 -16.217 -20.769  0.00  0.00    +0.062 C 
ENDBRANCH  19  23
ENDBRANCH  18  19
ENDBRANCH   1  18
TORSDOF 4
ENDMDL
MODEL 8
REMARK VINA RESULT:     -12.2      2.496      3.606
REMARK  Name = 5073
REMARK  4 active torsions:
REMARK  status: ('A' for Active; 'I' for Inactive)
REMARK    1  A    between atoms: N_1  and  C_18
REMARK    2  A    between atoms: C_2  and  C_11
REMARK    3  A    between atoms: C_18  and  C_19
REMARK    4  A    between atoms: C_19  and  C_23
REMARK                            x       y       z     vdW  Elec       q    Type
REMARK                         _______ _______ _______ _____ _____    ______ ____
ROOT
ATOM      1  N   UNL     1      34.497 -22.306 -19.192  0.00  0.00    +0.387 N 
ATOM      2  C   UNL     1      34.780 -19.730 -20.568  0.00  0.00    +0.039 C 
ATOM      3  C   UNL     1      35.916 -20.765 -20.510  0.00  0.00    -0.017 C 
ATOM      4  C   UNL     1      33.423 -20.436 -20.408  0.00  0.00    -0.017 C 
ATOM      5  C   UNL     1      35.806 -21.640 -19.260  0.00  0.00    -0.077 C 
ATOM      6  C   UNL     1      33.404 -21.324 -19.161  0.00  0.00    -0.077 C 
ATOM      7  H   UNL     1      34.388 -22.872 -20.033  0.00  0.00    -0.080 HD
ENDROOT
BRANCH   2  11
ATOM      8  F   UNL     1      34.731 -13.612 -23.359  0.00  0.00    -0.204 F 
ATOM      9  O   UNL     1      35.002 -18.383 -23.902  0.00  0.00    -0.354 OA
ATOM     10  N   UNL     1      34.975 -19.437 -22.999  0.00  0.00    -0.081 NA
ATOM     11  C   UNL     1      34.845 -18.862 -21.805  0.00  0.00    +0.100 A 
ATOM     12  C   UNL     1      34.783 -17.463 -21.872  0.00  0.00    +0.054 A 
ATOM     13  C   UNL     1      34.888 -17.206 -23.229  0.00  0.00    +0.179 A 
ATOM     14  C   UNL     1      34.656 -16.386 -20.983  0.00  0.00    +0.007 C 
ATOM     15  C   UNL     1      34.877 -15.932 -23.789  0.00  0.00    +0.070 C 
ATOM     16  C   UNL     1      34.640 -15.087 -21.513  0.00  0.00    +0.030 C 
ATOM     17  C   UNL     1      34.749 -14.867 -22.890  0.00  0.00    +0.143 C 
ENDBRANCH   2  11
BRANCH   1  18
ATOM     18  C   UNL     1      34.429 -23.183 -18.023  0.00  0.00    -0.076 C 
BRANCH  18  19
ATOM     19  C   UNL     1      34.716 -22.383 -16.759  0.00  0.00    -0.007 C 
BRANCH  19  23
ATOM     20  O   UNL     1      34.330 -24.658 -15.203  0.00  0.00    -0.274 OA
ATOM     21  N   UNL     1      36.534 -24.790 -14.461  0.00  0.00    -0.237 N 
ATOM     22  N   UNL     1      38.086 -23.137 -15.136  0.00  0.00    -0.399 NA
ATOM     23  C   UNL     1      35.836 -23.005 -15.977  0.00  0.00    +0.123 C 
ATOM     24  C   UNL     1      36.208 -25.937 -13.606  0.00  0.00    +0.100 C 
ATOM     25  C   UNL     1      37.407 -26.735 -13.130  0.00  0.00    +0.022 C 
ATOM     26  C   UNL     1      37.785 -24.200 -14.460  0.00  0.00    +0.165 C 
ATOM     27  C   UNL     1      38.446 -25.784 -12.574  0.00  0.00    +0.011 C 
ATOM     28  C   UNL     1      38.909 -24.858 -13.680  0.00  0.00    +0.075 C 
ATOM     29  C   UNL     1      35.482 -24.227 -15.188  0.00  0.00    +0.237 C 
ATOM     30  C   UNL     1      37.102 -22.551 -15.896  0.00  0.00    +0.096 C 
ATOM     31  C   UNL     1      37.592 -21.350 -16.662  0.00  0.00    +0.062 C 
ENDBRANCH  19  23
ENDBRANCH  18  19
ENDBRANCH   1  18
TORSDOF 4
ENDMDL
MODEL 9
REMARK VINA RESULT:     -12.2      3.360     10.056
REMARK  Name = 5073
REMARK  4 active torsions:
REMARK  status: ('A' for Active; 'I' for Inactive)
REMARK    1  A    between atoms: N_1  and  C_18
REMARK    2  A    between atoms: C_2  and  C_11
REMARK    3  A    between atoms: C_18  and  C_19
REMARK    4  A    between atoms: C_19  and  C_23
REMARK                            x       y       z     vdW  Elec       q    Type
REMARK                         _______ _______ _______ _____ _____    ______ ____
ROOT
ATOM      1  N   UNL     1      34.600 -20.037 -20.312  0.00  0.00    +0.387 N 
ATOM      2  C   UNL     1      34.229 -22.303 -18.485  0.00  0.00    +0.039 C 
ATOM      3  C   UNL     1      35.595 -21.632 -18.702  0.00  0.00    -0.017 C 
ATOM      4  C   UNL     1      33.102 -21.306 -18.804  0.00  0.00    -0.017 C 
ATOM      5  C   UNL     1      35.689 -20.999 -20.092  0.00  0.00    -0.077 C 
ATOM      6  C   UNL     1      33.287 -20.685 -20.191  0.00  0.00    -0.077 C 
ATOM      7  H   UNL     1      34.665 -19.319 -19.590  0.00  0.00    -0.080 HD
ENDROOT
BRANCH   2  11
ATOM      8  F   UNL     1      30.311 -24.325 -13.407  0.00  0.00    -0.204 F 
ATOM      9  O   UNL     1      34.723 -23.813 -15.252  0.00  0.00    -0.354 OA
ATOM     10  N   UNL     1      35.187 -23.300 -16.456  0.00  0.00    -0.081 NA
ATOM     11  C   UNL     1      34.092 -22.919 -17.111  0.00  0.00    +0.100 A 
ATOM     12  C   UNL     1      32.912 -23.157 -16.393  0.00  0.00    +0.054 A 
ATOM     13  C   UNL     1      33.365 -23.728 -15.216  0.00  0.00    +0.179 A 
ATOM     14  C   UNL     1      31.533 -22.972 -16.572  0.00  0.00    +0.007 C 
ATOM     15  C   UNL     1      32.539 -24.141 -14.175  0.00  0.00    +0.070 C 
ATOM     16  C   UNL     1      30.670 -23.376 -15.543  0.00  0.00    +0.030 C 
ATOM     17  C   UNL     1      31.167 -23.950 -14.368  0.00  0.00    +0.143 C 
ENDBRANCH   2  11
BRANCH   1  18
ATOM     18  C   UNL     1      34.737 -19.400 -21.621  0.00  0.00    -0.076 C 
BRANCH  18  19
ATOM     19  C   UNL     1      35.640 -18.179 -21.510  0.00  0.00    -0.007 C 
BRANCH  19  23
ATOM     20  O   UNL     1      35.325 -17.896 -24.261  0.00  0.00    -0.274 OA
ATOM     21  N   UNL     1      34.267 -15.824 -24.146  0.00  0.00    -0.237 N 
ATOM     22  N   UNL     1      33.944 -14.801 -22.036  0.00  0.00    -0.399 NA
ATOM     23  C   UNL     1      34.981 -16.971 -22.109  0.00  0.00    +0.123 C 
ATOM     24  C   UNL     1      34.224 -15.731 -25.609  0.00  0.00    +0.100 C 
ATOM     25  C   UNL     1      33.253 -14.699 -26.152  0.00  0.00    +0.022 C 
ATOM     26  C   UNL     1      33.846 -14.790 -23.328  0.00  0.00    +0.165 C 
ATOM     27  C   UNL     1      33.464 -13.389 -25.423  0.00  0.00    +0.011 C 
ATOM     28  C   UNL     1      33.161 -13.589 -23.952  0.00  0.00    +0.075 C 
ATOM     29  C   UNL     1      34.877 -16.957 -23.603  0.00  0.00    +0.237 C 
ATOM     30  C   UNL     1      34.511 -15.901 -21.438  0.00  0.00    +0.096 C 
ATOM     31  C   UNL     1      34.529 -15.806 -19.935  0.00  0.00    +0.062 C 
ENDBRANCH  19  23
ENDBRANCH  18  19
ENDBRANCH   1  18
TORSDOF 4
ENDMDL
