MODEL 1
REMARK VINA RESULT:     -12.2      0.000      0.000
REMARK  Name = 49866474
REMARK  7 active torsions:
REMARK  status: ('A' for Active; 'I' for Inactive)
REMARK    1  A    between atoms: O_1  and  C_3
REMARK    2  A    between atoms: O_1  and  C_18
REMARK    3  A    between atoms: C_4  and  C_10
REMARK    4  A    between atoms: C_18  and  C_19
REMARK    5  A    between atoms: C_19  and  N_20
REMARK    6  A    between atoms: C_19  and  C_24
REMARK    7  A    between atoms: C_24  and  C_26
REMARK                            x       y       z     vdW  Elec       q    Type
REMARK                         _______ _______ _______ _____ _____    ______ ____
ROOT
ATOM      1  O   UNL     1      35.456 -17.315 -24.044  0.00  0.00    -0.476 OA
ENDROOT
BRANCH   1   3
ATOM      2  N   UNL     1      33.571 -14.627 -25.659  0.00  0.00    -0.239 NA
ATOM      3  C   UNL     1      34.674 -16.199 -24.189  0.00  0.00    +0.158 C 
ATOM      4  C   UNL     1      33.397 -14.385 -23.259  0.00  0.00    +0.022 C 
ATOM      5  C   UNL     1      34.190 -15.513 -23.081  0.00  0.00    +0.040 C 
ATOM      6  C   UNL     1      34.339 -15.719 -25.445  0.00  0.00    +0.136 C 
ATOM      7  C   UNL     1      33.119 -13.986 -24.557  0.00  0.00    +0.099 C 
BRANCH   4  10
ATOM      8  N   UNL     1      31.405 -11.337 -19.086  0.00  0.00    -0.236 N 
ATOM      9  N   UNL     1      31.248 -10.115 -19.622  0.00  0.00    -0.180 NA
ATOM     10  C   UNL     1      32.880 -13.652 -22.128  0.00  0.00    +0.002 C 
ATOM     11  C   UNL     1      32.073 -11.597 -21.158  0.00  0.00    +0.035 C 
ATOM     12  C   UNL     1      32.573 -12.292 -22.271  0.00  0.00    +0.003 C 
ATOM     13  C   UNL     1      31.896 -12.272 -19.955  0.00  0.00    +0.067 C 
ATOM     14  C   UNL     1      32.692 -14.305 -20.910  0.00  0.00    +0.001 C 
ATOM     15  C   UNL     1      32.195 -13.627 -19.792  0.00  0.00    +0.016 C 
ATOM     16  C   UNL     1      31.655 -10.277 -20.882  0.00  0.00    +0.119 C 
ATOM     17  H   UNL     1      31.184 -11.542 -18.148  0.00  0.00    +0.174 HD
ENDBRANCH   4  10
ENDBRANCH   1   3
BRANCH   1  18
ATOM     18  C   UNL     1      34.802 -18.508 -23.634  0.00  0.00    +0.184 C 
BRANCH  18  19
ATOM     19  C   UNL     1      35.525 -19.130 -22.434  0.00  0.00    -0.017 C 
BRANCH  19  20
ATOM     20  N   UNL     1      36.846 -18.506 -22.319  0.00  0.00    +0.384 N 
ATOM     21  H   UNL     1      37.099 -18.079 -23.211  0.00  0.00    -0.089 HD
ATOM     22  H   UNL     1      37.537 -19.214 -22.073  0.00  0.00    -0.089 HD
ATOM     23  H   UNL     1      36.821 -17.789 -21.594  0.00  0.00    -0.089 HD
ENDBRANCH  19  20
BRANCH  19  24
ATOM     24  C   UNL     1      34.761 -18.944 -21.100  0.00  0.00    +0.006 C 
BRANCH  24  26
ATOM     25  N   UNL     1      32.847 -21.658 -19.345  0.00  0.00    -0.234 NA
ATOM     26  C   UNL     1      34.405 -20.200 -20.414  0.00  0.00    -0.024 C 
ATOM     27  C   UNL     1      35.102 -21.103 -19.725  0.00  0.00    +0.065 C 
ATOM     28  C   UNL     1      34.217 -22.179 -19.161  0.00  0.00    +0.122 C 
ATOM     29  C   UNL     1      33.031 -20.619 -20.106  0.00  0.00    +0.072 C 
ATOM     30  C   UNL     1      36.488 -21.091 -19.332  0.00  0.00    -0.020 C 
ATOM     31  C   UNL     1      34.577 -22.507 -17.740  0.00  0.00    -0.004 C 
ATOM     32  C   UNL     1      36.831 -21.678 -18.170  0.00  0.00    -0.004 C 
ATOM     33  C   UNL     1      35.829 -22.279 -17.300  0.00  0.00    -0.003 C 
ENDBRANCH  24  26
ENDBRANCH  19  24
ENDBRANCH  18  19
ENDBRANCH   1  18
TORSDOF 7
ENDMDL
MODEL 2
REMARK VINA RESULT:     -11.6      1.803      9.254
REMARK  Name = 49866474
REMARK  7 active torsions:
REMARK  status: ('A' for Active; 'I' for Inactive)
REMARK    1  A    between atoms: O_1  and  C_3
REMARK    2  A    between atoms: O_1  and  C_18
REMARK    3  A    between atoms: C_4  and  C_10
REMARK    4  A    between atoms: C_18  and  C_19
REMARK    5  A    between atoms: C_19  and  N_20
REMARK    6  A    between atoms: C_19  and  C_24
REMARK    7  A    between atoms: C_24  and  C_26
REMARK                            x       y       z     vdW  Elec       q    Type
REMARK                         _______ _______ _______ _____ _____    ______ ____
ROOT
ATOM      1  O   UNL     1      35.421 -15.741 -22.282  0.00  0.00    -0.476 OA
ENDROOT
BRANCH   1   3
ATOM      2  N   UNL     1      34.676 -18.913 -23.946  0.00  0.00    -0.239 NA
ATOM      3  C   UNL     1      35.204 -17.083 -22.456  0.00  0.00    +0.158 C 
ATOM      4  C   UNL     1      35.057 -19.324 -21.593  0.00  0.00    +0.022 C 
ATOM      5  C   UNL     1      35.281 -17.967 -21.386  0.00  0.00    +0.040 C 
ATOM      6  C   UNL     1      34.900 -17.602 -23.705  0.00  0.00    +0.136 C 
ATOM      7  C   UNL     1      34.761 -19.742 -22.880  0.00  0.00    +0.099 C 
BRANCH   4  10
ATOM      8  N   UNL     1      35.052 -22.948 -17.405  0.00  0.00    -0.236 N 
ATOM      9  N   UNL     1      33.749 -23.192 -17.188  0.00  0.00    -0.180 NA
ATOM     10  C   UNL     1      35.131 -20.266 -20.502  0.00  0.00    +0.002 C 
ATOM     11  C   UNL     1      34.042 -21.701 -18.898  0.00  0.00    +0.035 C 
ATOM     12  C   UNL     1      33.948 -20.787 -19.960  0.00  0.00    +0.003 C 
ATOM     13  C   UNL     1      35.296 -22.061 -18.418  0.00  0.00    +0.067 C 
ATOM     14  C   UNL     1      36.377 -20.645 -20.000  0.00  0.00    +0.001 C 
ATOM     15  C   UNL     1      36.487 -21.554 -18.943  0.00  0.00    +0.016 C 
ATOM     16  C   UNL     1      33.138 -22.432 -18.098  0.00  0.00    +0.119 C 
ATOM     17  H   UNL     1      35.770 -23.370 -16.880  0.00  0.00    +0.174 HD
ENDBRANCH   4  10
ENDBRANCH   1   3
BRANCH   1  18
ATOM     18  C   UNL     1      34.453 -15.027 -21.525  0.00  0.00    +0.184 C 
BRANCH  18  19
ATOM     19  C   UNL     1      34.082 -13.717 -22.228  0.00  0.00    -0.017 C 
BRANCH  19  20
ATOM     20  N   UNL     1      34.459 -13.832 -23.641  0.00  0.00    +0.384 N 
ATOM     21  H   UNL     1      35.452 -13.623 -23.747  0.00  0.00    -0.089 HD
ATOM     22  H   UNL     1      33.911 -13.173 -24.193  0.00  0.00    -0.089 HD
ATOM     23  H   UNL     1      34.275 -14.782 -23.965  0.00  0.00    -0.089 HD
ENDBRANCH  19  20
BRANCH  19  24
ATOM     24  C   UNL     1      32.574 -13.381 -22.133  0.00  0.00    +0.006 C 
BRANCH  24  26
ATOM     25  N   UNL     1      32.619  -9.660 -22.651  0.00  0.00    -0.234 NA
ATOM     26  C   UNL     1      32.270 -11.941 -22.038  0.00  0.00    -0.024 C 
ATOM     27  C   UNL     1      31.701 -11.179 -21.104  0.00  0.00    +0.065 C 
ATOM     28  C   UNL     1      31.706  -9.726 -21.491  0.00  0.00    +0.122 C 
ATOM     29  C   UNL     1      32.816 -10.915 -22.936  0.00  0.00    +0.072 C 
ATOM     30  C   UNL     1      31.260 -11.525 -19.777  0.00  0.00    -0.020 C 
ATOM     31  C   UNL     1      32.096  -8.845 -20.337  0.00  0.00    -0.004 C 
ATOM     32  C   UNL     1      31.337 -10.591 -18.811  0.00  0.00    -0.004 C 
ATOM     33  C   UNL     1      31.891  -9.270 -19.077  0.00  0.00    -0.003 C 
ENDBRANCH  24  26
ENDBRANCH  19  24
ENDBRANCH  18  19
ENDBRANCH   1  18
TORSDOF 7
ENDMDL
MODEL 3
REMARK VINA RESULT:     -11.6      3.314     10.378
REMARK  Name = 49866474
REMARK  7 active torsions:
REMARK  status: ('A' for Active; 'I' for Inactive)
REMARK    1  A    between atoms: O_1  and  C_3
REMARK    2  A    between atoms: O_1  and  C_18
REMARK    3  A    between atoms: C_4  and  C_10
REMARK    4  A    between atoms: C_18  and  C_19
REMARK    5  A    between atoms: C_19  and  N_20
REMARK    6  A    between atoms: C_19  and  C_24
REMARK    7  A    between atoms: C_24  and  C_26
REMARK                            x       y       z     vdW  Elec       q    Type
REMARK                         _______ _______ _______ _____ _____    ______ ____
ROOT
ATOM      1  O   UNL     1      35.554 -20.949 -20.119  0.00  0.00    -0.476 OA
ENDROOT
BRANCH   1   3
ATOM      2  N   UNL     1      32.761 -22.484 -18.320  0.00  0.00    -0.239 NA
ATOM      3  C   UNL     1      34.862 -21.603 -19.133  0.00  0.00    +0.158 C 
ATOM      4  C   UNL     1      34.773 -22.707 -16.997  0.00  0.00    +0.022 C 
ATOM      5  C   UNL     1      35.501 -22.045 -17.980  0.00  0.00    +0.040 C 
ATOM      6  C   UNL     1      33.502 -21.845 -19.253  0.00  0.00    +0.136 C 
ATOM      7  C   UNL     1      33.418 -22.900 -17.213  0.00  0.00    +0.099 C 
BRANCH   4  10
ATOM      8  N   UNL     1      36.951 -24.575 -12.260  0.00  0.00    -0.236 N 
ATOM      9  N   UNL     1      35.884 -24.968 -11.544  0.00  0.00    -0.180 NA
ATOM     10  C   UNL     1      35.409 -23.178 -15.789  0.00  0.00    +0.002 C 
ATOM     11  C   UNL     1      35.259 -24.140 -13.583  0.00  0.00    +0.035 C 
ATOM     12  C   UNL     1      34.620 -23.688 -14.750  0.00  0.00    +0.003 C 
ATOM     13  C   UNL     1      36.644 -24.068 -13.493  0.00  0.00    +0.067 C 
ATOM     14  C   UNL     1      36.798 -23.117 -15.672  0.00  0.00    +0.001 C 
ATOM     15  C   UNL     1      37.448 -23.563 -14.517  0.00  0.00    +0.016 C 
ATOM     16  C   UNL     1      34.857 -24.702 -12.353  0.00  0.00    +0.119 C 
ATOM     17  H   UNL     1      37.875 -24.646 -11.926  0.00  0.00    +0.174 HD
ENDBRANCH   4  10
ENDBRANCH   1   3
BRANCH   1  18
ATOM     18  C   UNL     1      34.796 -20.132 -21.001  0.00  0.00    +0.184 C 
BRANCH  18  19
ATOM     19  C   UNL     1      35.430 -18.741 -21.121  0.00  0.00    -0.017 C 
BRANCH  19  20
ATOM     20  N   UNL     1      36.833 -18.839 -20.707  0.00  0.00    +0.384 N 
ATOM     21  H   UNL     1      37.332 -17.998 -20.996  0.00  0.00    -0.089 HD
ATOM     22  H   UNL     1      37.260 -19.655 -21.144  0.00  0.00    -0.089 HD
ATOM     23  H   UNL     1      36.882 -18.932 -19.693  0.00  0.00    -0.089 HD
ENDBRANCH  19  20
BRANCH  19  24
ATOM     24  C   UNL     1      35.366 -18.166 -22.557  0.00  0.00    +0.006 C 
BRANCH  24  26
ATOM     25  N   UNL     1      34.404 -14.643 -21.672  0.00  0.00    -0.234 NA
ATOM     26  C   UNL     1      35.109 -16.715 -22.627  0.00  0.00    -0.024 C 
ATOM     27  C   UNL     1      34.868 -15.869 -23.628  0.00  0.00    +0.065 C 
ATOM     28  C   UNL     1      34.593 -14.478 -23.128  0.00  0.00    +0.122 C 
ATOM     29  C   UNL     1      34.782 -15.872 -21.469  0.00  0.00    +0.072 C 
ATOM     30  C   UNL     1      34.682 -16.133 -25.032  0.00  0.00    -0.020 C 
ATOM     31  C   UNL     1      33.430 -13.850 -23.843  0.00  0.00    -0.004 C 
ATOM     32  C   UNL     1      33.847 -15.341 -25.729  0.00  0.00    -0.004 C 
ATOM     33  C   UNL     1      33.110 -14.263 -25.084  0.00  0.00    -0.003 C 
ENDBRANCH  24  26
ENDBRANCH  19  24
ENDBRANCH  18  19
ENDBRANCH   1  18
TORSDOF 7
ENDMDL
MODEL 4
REMARK VINA RESULT:     -11.4      1.958      9.757
REMARK  Name = 49866474
REMARK  7 active torsions:
REMARK  status: ('A' for Active; 'I' for Inactive)
REMARK    1  A    between atoms: O_1  and  C_3
REMARK    2  A    between atoms: O_1  and  C_18
REMARK    3  A    between atoms: C_4  and  C_10
REMARK    4  A    between atoms: C_18  and  C_19
REMARK    5  A    between atoms: C_19  and  N_20
REMARK    6  A    between atoms: C_19  and  C_24
REMARK    7  A    between atoms: C_24  and  C_26
REMARK                            x       y       z     vdW  Elec       q    Type
REMARK                         _______ _______ _______ _____ _____    ______ ____
ROOT
ATOM      1  O   UNL     1      34.591 -14.282 -21.564  0.00  0.00    -0.476 OA
ENDROOT
BRANCH   1   3
ATOM      2  N   UNL     1      34.994 -16.915 -24.072  0.00  0.00    -0.239 NA
ATOM      3  C   UNL     1      34.765 -15.530 -22.104  0.00  0.00    +0.158 C 
ATOM      4  C   UNL     1      35.065 -17.905 -21.867  0.00  0.00    +0.022 C 
ATOM      5  C   UNL     1      34.888 -16.651 -21.291  0.00  0.00    +0.040 C 
ATOM      6  C   UNL     1      34.824 -15.714 -23.476  0.00  0.00    +0.136 C 
ATOM      7  C   UNL     1      35.111 -17.982 -23.250  0.00  0.00    +0.099 C 
BRANCH   4  10
ATOM      8  N   UNL     1      35.282 -22.458 -18.722  0.00  0.00    -0.236 N 
ATOM      9  N   UNL     1      33.992 -22.778 -18.523  0.00  0.00    -0.180 NA
ATOM     10  C   UNL     1      35.197 -19.088 -21.050  0.00  0.00    +0.002 C 
ATOM     11  C   UNL     1      34.194 -20.901 -19.816  0.00  0.00    +0.035 C 
ATOM     12  C   UNL     1      34.044 -19.753 -20.611  0.00  0.00    +0.003 C 
ATOM     13  C   UNL     1      35.472 -21.341 -19.489  0.00  0.00    +0.067 C 
ATOM     14  C   UNL     1      36.467 -19.552 -20.708  0.00  0.00    +0.001 C 
ATOM     15  C   UNL     1      36.632 -20.694 -19.916  0.00  0.00    +0.016 C 
ATOM     16  C   UNL     1      33.334 -21.828 -19.190  0.00  0.00    +0.119 C 
ATOM     17  H   UNL     1      36.026 -22.983 -18.347  0.00  0.00    +0.174 HD
ENDBRANCH   4  10
ENDBRANCH   1   3
BRANCH   1  18
ATOM     18  C   UNL     1      33.311 -13.991 -21.019  0.00  0.00    +0.184 C 
BRANCH  18  19
ATOM     19  C   UNL     1      32.700 -12.766 -21.709  0.00  0.00    -0.017 C 
BRANCH  19  20
ATOM     20  N   UNL     1      32.075 -13.208 -22.959  0.00  0.00    +0.384 N 
ATOM     21  H   UNL     1      32.356 -12.585 -23.718  0.00  0.00    -0.089 HD
ATOM     22  H   UNL     1      31.061 -13.187 -22.859  0.00  0.00    -0.089 HD
ATOM     23  H   UNL     1      32.376 -14.159 -23.172  0.00  0.00    -0.089 HD
ENDBRANCH  19  20
BRANCH  19  24
ATOM     24  C   UNL     1      31.639 -12.046 -20.841  0.00  0.00    +0.006 C 
BRANCH  24  26
ATOM     25  N   UNL     1      32.078  -8.823 -18.962  0.00  0.00    -0.234 NA
ATOM     26  C   UNL     1      31.973 -10.653 -20.491  0.00  0.00    -0.024 C 
ATOM     27  C   UNL     1      32.142  -9.539 -21.203  0.00  0.00    +0.065 C 
ATOM     28  C   UNL     1      32.403  -8.349 -20.323  0.00  0.00    +0.122 C 
ATOM     29  C   UNL     1      31.934 -10.106 -19.129  0.00  0.00    +0.072 C 
ATOM     30  C   UNL     1      31.952  -9.310 -22.613  0.00  0.00    -0.020 C 
ATOM     31  C   UNL     1      31.623  -7.145 -20.769  0.00  0.00    -0.004 C 
ATOM     32  C   UNL     1      31.536  -8.094 -23.015  0.00  0.00    -0.004 C 
ATOM     33  C   UNL     1      31.241  -7.038 -22.056  0.00  0.00    -0.003 C 
ENDBRANCH  24  26
ENDBRANCH  19  24
ENDBRANCH  18  19
ENDBRANCH   1  18
TORSDOF 7
ENDMDL
MODEL 5
REMARK VINA RESULT:     -11.4      3.098      9.935
REMARK  Name = 49866474
REMARK  7 active torsions:
REMARK  status: ('A' for Active; 'I' for Inactive)
REMARK    1  A    between atoms: O_1  and  C_3
REMARK    2  A    between atoms: O_1  and  C_18
REMARK    3  A    between atoms: C_4  and  C_10
REMARK    4  A    between atoms: C_18  and  C_19
REMARK    5  A    between atoms: C_19  and  N_20
REMARK    6  A    between atoms: C_19  and  C_24
REMARK    7  A    between atoms: C_24  and  C_26
REMARK                            x       y       z     vdW  Elec       q    Type
REMARK                         _______ _______ _______ _____ _____    ______ ____
ROOT
ATOM      1  O   UNL     1      35.359 -21.075 -20.477  0.00  0.00    -0.476 OA
ENDROOT
BRANCH   1   3
ATOM      2  N   UNL     1      36.990 -22.044 -17.348  0.00  0.00    -0.239 NA
ATOM      3  C   UNL     1      35.517 -21.555 -19.203  0.00  0.00    +0.158 C 
ATOM      4  C   UNL     1      34.622 -22.506 -17.183  0.00  0.00    +0.022 C 
ATOM      5  C   UNL     1      34.431 -22.026 -18.474  0.00  0.00    +0.040 C 
ATOM      6  C   UNL     1      36.765 -21.586 -18.600  0.00  0.00    +0.136 C 
ATOM      7  C   UNL     1      35.909 -22.494 -16.671  0.00  0.00    +0.099 C 
BRANCH   4  10
ATOM      8  N   UNL     1      30.560 -24.507 -13.993  0.00  0.00    -0.236 N 
ATOM      9  N   UNL     1      31.206 -25.055 -12.950  0.00  0.00    -0.180 NA
ATOM     10  C   UNL     1      33.513 -23.001 -16.401  0.00  0.00    +0.002 C 
ATOM     11  C   UNL     1      32.673 -24.138 -14.448  0.00  0.00    +0.035 C 
ATOM     12  C   UNL     1      33.765 -23.663 -15.192  0.00  0.00    +0.003 C 
ATOM     13  C   UNL     1      31.383 -23.940 -14.928  0.00  0.00    +0.067 C 
ATOM     14  C   UNL     1      32.208 -22.817 -16.860  0.00  0.00    +0.001 C 
ATOM     15  C   UNL     1      31.111 -23.284 -16.130  0.00  0.00    +0.016 C 
ATOM     16  C   UNL     1      32.491 -24.828 -13.230  0.00  0.00    +0.119 C 
ATOM     17  H   UNL     1      29.579 -24.513 -14.078  0.00  0.00    +0.174 HD
ENDBRANCH   4  10
ENDBRANCH   1   3
BRANCH   1  18
ATOM     18  C   UNL     1      34.547 -19.919 -20.631  0.00  0.00    +0.184 C 
BRANCH  18  19
ATOM     19  C   UNL     1      35.411 -18.697 -20.964  0.00  0.00    -0.017 C 
BRANCH  19  20
ATOM     20  N   UNL     1      36.818 -19.062 -20.767  0.00  0.00    +0.384 N 
ATOM     21  H   UNL     1      37.117 -19.683 -21.519  0.00  0.00    -0.089 HD
ATOM     22  H   UNL     1      36.923 -19.537 -19.871  0.00  0.00    -0.089 HD
ATOM     23  H   UNL     1      37.392 -18.219 -20.775  0.00  0.00    -0.089 HD
ENDBRANCH  19  20
BRANCH  19  24
ATOM     24  C   UNL     1      35.219 -18.194 -22.416  0.00  0.00    +0.006 C 
BRANCH  24  26
ATOM     25  N   UNL     1      34.385 -14.607 -21.672  0.00  0.00    -0.234 NA
ATOM     26  C   UNL     1      35.023 -16.737 -22.540  0.00  0.00    -0.024 C 
ATOM     27  C   UNL     1      34.836 -15.917 -23.575  0.00  0.00    +0.065 C 
ATOM     28  C   UNL     1      34.609 -14.500 -23.128  0.00  0.00    +0.122 C 
ATOM     29  C   UNL     1      34.709 -15.842 -21.419  0.00  0.00    +0.072 C 
ATOM     30  C   UNL     1      34.667 -16.223 -24.972  0.00  0.00    -0.020 C 
ATOM     31  C   UNL     1      33.486 -13.852 -23.888  0.00  0.00    -0.004 C 
ATOM     32  C   UNL     1      33.878 -15.423 -25.713  0.00  0.00    -0.004 C 
ATOM     33  C   UNL     1      33.173 -14.294 -25.120  0.00  0.00    -0.003 C 
ENDBRANCH  24  26
ENDBRANCH  19  24
ENDBRANCH  18  19
ENDBRANCH   1  18
TORSDOF 7
ENDMDL
MODEL 6
REMARK VINA RESULT:     -11.4      3.493      6.451
REMARK  Name = 49866474
REMARK  7 active torsions:
REMARK  status: ('A' for Active; 'I' for Inactive)
REMARK    1  A    between atoms: O_1  and  C_3
REMARK    2  A    between atoms: O_1  and  C_18
REMARK    3  A    between atoms: C_4  and  C_10
REMARK    4  A    between atoms: C_18  and  C_19
REMARK    5  A    between atoms: C_19  and  N_20
REMARK    6  A    between atoms: C_19  and  C_24
REMARK    7  A    between atoms: C_24  and  C_26
REMARK                            x       y       z     vdW  Elec       q    Type
REMARK                         _______ _______ _______ _____ _____    ______ ____
ROOT
ATOM      1  O   UNL     1      33.501 -21.846 -19.644  0.00  0.00    -0.476 OA
ENDROOT
BRANCH   1   3
ATOM      2  N   UNL     1      36.874 -20.451 -19.893  0.00  0.00    -0.239 NA
ATOM      3  C   UNL     1      34.520 -20.997 -19.986  0.00  0.00    +0.158 C 
ATOM      4  C   UNL     1      35.333 -19.013 -21.078  0.00  0.00    +0.022 C 
ATOM      5  C   UNL     1      34.278 -19.856 -20.744  0.00  0.00    +0.040 C 
ATOM      6  C   UNL     1      35.824 -21.246 -19.589  0.00  0.00    +0.136 C 
ATOM      7  C   UNL     1      36.600 -19.352 -20.632  0.00  0.00    +0.099 C 
BRANCH   4  10
ATOM      8  N   UNL     1      34.450 -14.298 -23.847  0.00  0.00    -0.236 N 
ATOM      9  N   UNL     1      34.231 -13.390 -22.881  0.00  0.00    -0.180 NA
ATOM     10  C   UNL     1      35.114 -17.821 -21.864  0.00  0.00    +0.002 C 
ATOM     11  C   UNL     1      34.631 -15.463 -21.998  0.00  0.00    +0.035 C 
ATOM     12  C   UNL     1      34.842 -16.609 -21.215  0.00  0.00    +0.003 C 
ATOM     13  C   UNL     1      34.696 -15.562 -23.384  0.00  0.00    +0.067 C 
ATOM     14  C   UNL     1      35.174 -17.892 -23.256  0.00  0.00    +0.001 C 
ATOM     15  C   UNL     1      34.966 -16.760 -24.049  0.00  0.00    +0.016 C 
ATOM     16  C   UNL     1      34.342 -14.102 -21.759  0.00  0.00    +0.119 C 
ATOM     17  H   UNL     1      34.436 -14.073 -24.806  0.00  0.00    +0.174 HD
ENDBRANCH   4  10
ENDBRANCH   1   3
BRANCH   1  18
ATOM     18  C   UNL     1      33.052 -21.800 -18.296  0.00  0.00    +0.184 C 
BRANCH  18  19
ATOM     19  C   UNL     1      33.194 -23.176 -17.636  0.00  0.00    -0.017 C 
BRANCH  19  20
ATOM     20  N   UNL     1      33.813 -24.087 -18.604  0.00  0.00    +0.384 N 
ATOM     21  H   UNL     1      34.812 -24.163 -18.409  0.00  0.00    -0.089 HD
ATOM     22  H   UNL     1      33.676 -23.726 -19.547  0.00  0.00    -0.089 HD
ATOM     23  H   UNL     1      33.382 -25.009 -18.527  0.00  0.00    -0.089 HD
ENDBRANCH  19  20
BRANCH  19  24
ATOM     24  C   UNL     1      34.053 -23.147 -16.348  0.00  0.00    +0.006 C 
BRANCH  24  26
ATOM     25  N   UNL     1      33.127 -24.456 -12.951  0.00  0.00    -0.234 NA
ATOM     26  C   UNL     1      33.314 -23.454 -15.109  0.00  0.00    -0.024 C 
ATOM     27  C   UNL     1      32.019 -23.507 -14.798  0.00  0.00    +0.065 C 
ATOM     28  C   UNL     1      31.805 -23.955 -13.379  0.00  0.00    +0.122 C 
ATOM     29  C   UNL     1      33.909 -24.072 -13.917  0.00  0.00    +0.072 C 
ATOM     30  C   UNL     1      30.862 -23.362 -15.645  0.00  0.00    -0.020 C 
ATOM     31  C   UNL     1      30.692 -24.959 -13.275  0.00  0.00    -0.004 C 
ATOM     32  C   UNL     1      29.752 -24.059 -15.339  0.00  0.00    -0.004 C 
ATOM     33  C   UNL     1      29.719 -24.974 -14.206  0.00  0.00    -0.003 C 
ENDBRANCH  24  26
ENDBRANCH  19  24
ENDBRANCH  18  19
ENDBRANCH   1  18
TORSDOF 7
ENDMDL
MODEL 7
REMARK VINA RESULT:     -11.3      3.999      7.541
REMARK  Name = 49866474
REMARK  7 active torsions:
REMARK  status: ('A' for Active; 'I' for Inactive)
REMARK    1  A    between atoms: O_1  and  C_3
REMARK    2  A    between atoms: O_1  and  C_18
REMARK    3  A    between atoms: C_4  and  C_10
REMARK    4  A    between atoms: C_18  and  C_19
REMARK    5  A    between atoms: C_19  and  N_20
REMARK    6  A    between atoms: C_19  and  C_24
REMARK    7  A    between atoms: C_24  and  C_26
REMARK                            x       y       z     vdW  Elec       q    Type
REMARK                         _______ _______ _______ _____ _____    ______ ____
ROOT
ATOM      1  O   UNL     1      36.317 -22.394 -18.203  0.00  0.00    -0.476 OA
ENDROOT
BRANCH   1   3
ATOM      2  N   UNL     1      32.899 -21.590 -19.234  0.00  0.00    -0.239 NA
ATOM      3  C   UNL     1      35.282 -21.797 -18.875  0.00  0.00    +0.158 C 
ATOM      4  C   UNL     1      34.448 -20.239 -20.507  0.00  0.00    +0.022 C 
ATOM      5  C   UNL     1      35.519 -20.828 -19.843  0.00  0.00    +0.040 C 
ATOM      6  C   UNL     1      33.965 -22.140 -18.610  0.00  0.00    +0.136 C 
ATOM      7  C   UNL     1      33.170 -20.651 -20.169  0.00  0.00    +0.099 C 
BRANCH   4  10
ATOM      8  N   UNL     1      35.247 -16.168 -24.176  0.00  0.00    -0.236 N 
ATOM      9  N   UNL     1      35.196 -15.048 -23.435  0.00  0.00    -0.180 NA
ATOM     10  C   UNL     1      34.663 -19.230 -21.518  0.00  0.00    +0.002 C 
ATOM     11  C   UNL     1      34.892 -16.913 -22.145  0.00  0.00    +0.035 C 
ATOM     12  C   UNL     1      34.683 -17.879 -21.147  0.00  0.00    +0.003 C 
ATOM     13  C   UNL     1      35.071 -17.322 -23.462  0.00  0.00    +0.067 C 
ATOM     14  C   UNL     1      34.846 -19.612 -22.847  0.00  0.00    +0.001 C 
ATOM     15  C   UNL     1      35.054 -18.663 -23.852  0.00  0.00    +0.016 C 
ATOM     16  C   UNL     1      34.981 -15.506 -22.201  0.00  0.00    +0.119 C 
ATOM     17  H   UNL     1      35.398 -16.159 -25.149  0.00  0.00    +0.174 HD
ENDBRANCH   4  10
ENDBRANCH   1   3
BRANCH   1  18
ATOM     18  C   UNL     1      36.862 -21.681 -17.101  0.00  0.00    +0.184 C 
BRANCH  18  19
ATOM     19  C   UNL     1      36.878 -22.564 -15.847  0.00  0.00    -0.017 C 
BRANCH  19  20
ATOM     20  N   UNL     1      35.834 -23.583 -15.990  0.00  0.00    +0.384 N 
ATOM     21  H   UNL     1      35.931 -24.277 -15.248  0.00  0.00    -0.089 HD
ATOM     22  H   UNL     1      35.925 -24.039 -16.897  0.00  0.00    -0.089 HD
ATOM     23  H   UNL     1      34.917 -23.141 -15.923  0.00  0.00    -0.089 HD
ENDBRANCH  19  20
BRANCH  19  24
ATOM     24  C   UNL     1      38.239 -23.265 -15.615  0.00  0.00    +0.006 C 
BRANCH  24  26
ATOM     25  N   UNL     1      38.271 -26.482 -13.674  0.00  0.00    -0.234 NA
ATOM     26  C   UNL     1      38.245 -24.248 -14.515  0.00  0.00    -0.024 C 
ATOM     27  C   UNL     1      37.859 -24.205 -13.239  0.00  0.00    +0.065 C 
ATOM     28  C   UNL     1      38.018 -25.539 -12.565  0.00  0.00    +0.122 C 
ATOM     29  C   UNL     1      38.462 -25.690 -14.689  0.00  0.00    +0.072 C 
ATOM     30  C   UNL     1      37.194 -23.153 -12.514  0.00  0.00    -0.020 C 
ATOM     31  C   UNL     1      36.824 -25.878 -11.716  0.00  0.00    -0.004 C 
ATOM     32  C   UNL     1      36.342 -23.493 -11.528  0.00  0.00    -0.004 C 
ATOM     33  C   UNL     1      36.058 -24.888 -11.220  0.00  0.00    -0.003 C 
ENDBRANCH  24  26
ENDBRANCH  19  24
ENDBRANCH  18  19
ENDBRANCH   1  18
TORSDOF 7
ENDMDL
MODEL 8
REMARK VINA RESULT:     -11.2      2.935      6.148
REMARK  Name = 49866474
REMARK  7 active torsions:
REMARK  status: ('A' for Active; 'I' for Inactive)
REMARK    1  A    between atoms: O_1  and  C_3
REMARK    2  A    between atoms: O_1  and  C_18
REMARK    3  A    between atoms: C_4  and  C_10
REMARK    4  A    between atoms: C_18  and  C_19
REMARK    5  A    between atoms: C_19  and  N_20
REMARK    6  A    between atoms: C_19  and  C_24
REMARK    7  A    between atoms: C_24  and  C_26
REMARK                            x       y       z     vdW  Elec       q    Type
REMARK                         _______ _______ _______ _____ _____    ______ ____
ROOT
ATOM      1  O   UNL     1      33.541 -21.785 -19.549  0.00  0.00    -0.476 OA
ENDROOT
BRANCH   1   3
ATOM      2  N   UNL     1      36.907 -20.392 -19.889  0.00  0.00    -0.239 NA
ATOM      3  C   UNL     1      34.553 -20.942 -19.928  0.00  0.00    +0.158 C 
ATOM      4  C   UNL     1      35.343 -18.981 -21.076  0.00  0.00    +0.022 C 
ATOM      5  C   UNL     1      34.296 -19.818 -20.706  0.00  0.00    +0.040 C 
ATOM      6  C   UNL     1      35.864 -21.181 -19.549  0.00  0.00    +0.136 C 
ATOM      7  C   UNL     1      36.618 -19.309 -20.646  0.00  0.00    +0.099 C 
BRANCH   4  10
ATOM      8  N   UNL     1      34.406 -14.327 -23.930  0.00  0.00    -0.236 N 
ATOM      9  N   UNL     1      34.219 -13.395 -22.980  0.00  0.00    -0.180 NA
ATOM     10  C   UNL     1      35.108 -17.807 -21.884  0.00  0.00    +0.002 C 
ATOM     11  C   UNL     1      34.633 -15.449 -22.060  0.00  0.00    +0.035 C 
ATOM     12  C   UNL     1      34.861 -16.578 -21.257  0.00  0.00    +0.003 C 
ATOM     13  C   UNL     1      34.659 -15.581 -23.444  0.00  0.00    +0.067 C 
ATOM     14  C   UNL     1      35.128 -17.911 -23.275  0.00  0.00    +0.001 C 
ATOM     15  C   UNL     1      34.902 -16.796 -24.088  0.00  0.00    +0.016 C 
ATOM     16  C   UNL     1      34.359 -14.082 -21.844  0.00  0.00    +0.119 C 
ATOM     17  H   UNL     1      34.366 -14.125 -24.892  0.00  0.00    +0.174 HD
ENDBRANCH   4  10
ENDBRANCH   1   3
BRANCH   1  18
ATOM     18  C   UNL     1      33.900 -22.890 -18.730  0.00  0.00    +0.184 C 
BRANCH  18  19
ATOM     19  C   UNL     1      33.403 -22.676 -17.295  0.00  0.00    -0.017 C 
BRANCH  19  20
ATOM     20  N   UNL     1      31.939 -22.599 -17.323  0.00  0.00    +0.384 N 
ATOM     21  H   UNL     1      31.554 -23.516 -17.548  0.00  0.00    -0.089 HD
ATOM     22  H   UNL     1      31.648 -21.925 -18.030  0.00  0.00    -0.089 HD
ATOM     23  H   UNL     1      31.597 -22.301 -16.409  0.00  0.00    -0.089 HD
ENDBRANCH  19  20
BRANCH  19  24
ATOM     24  C   UNL     1      33.831 -23.808 -16.329  0.00  0.00    +0.006 C 
BRANCH  24  26
ATOM     25  N   UNL     1      37.166 -22.395 -15.332  0.00  0.00    -0.234 NA
ATOM     26  C   UNL     1      35.114 -23.576 -15.641  0.00  0.00    -0.024 C 
ATOM     27  C   UNL     1      35.918 -24.345 -14.905  0.00  0.00    +0.065 C 
ATOM     28  C   UNL     1      37.168 -23.616 -14.500  0.00  0.00    +0.122 C 
ATOM     29  C   UNL     1      35.977 -22.408 -15.862  0.00  0.00    +0.072 C 
ATOM     30  C   UNL     1      35.826 -25.751 -14.607  0.00  0.00    -0.020 C 
ATOM     31  C   UNL     1      38.389 -24.478 -14.657  0.00  0.00    -0.004 C 
ATOM     32  C   UNL     1      36.966 -26.449 -14.445  0.00  0.00    -0.004 C 
ATOM     33  C   UNL     1      38.269 -25.818 -14.607  0.00  0.00    -0.003 C 
ENDBRANCH  24  26
ENDBRANCH  19  24
ENDBRANCH  18  19
ENDBRANCH   1  18
TORSDOF 7
ENDMDL
MODEL 9
REMARK VINA RESULT:     -11.1      3.213      9.077
REMARK  Name = 49866474
REMARK  7 active torsions:
REMARK  status: ('A' for Active; 'I' for Inactive)
REMARK    1  A    between atoms: O_1  and  C_3
REMARK    2  A    between atoms: O_1  and  C_18
REMARK    3  A    between atoms: C_4  and  C_10
REMARK    4  A    between atoms: C_18  and  C_19
REMARK    5  A    between atoms: C_19  and  N_20
REMARK    6  A    between atoms: C_19  and  C_24
REMARK    7  A    between atoms: C_24  and  C_26
REMARK                            x       y       z     vdW  Elec       q    Type
REMARK                         _______ _______ _______ _____ _____    ______ ____
ROOT
ATOM      1  O   UNL     1      33.714 -10.712 -23.648  0.00  0.00    -0.476 OA
ENDROOT
BRANCH   1   3
ATOM      2  N   UNL     1      33.631 -13.521 -25.991  0.00  0.00    -0.239 NA
ATOM      3  C   UNL     1      33.790 -11.996 -24.121  0.00  0.00    +0.158 C 
ATOM      4  C   UNL     1      34.162 -14.348 -23.781  0.00  0.00    +0.022 C 
ATOM      5  C   UNL     1      34.091 -13.056 -23.273  0.00  0.00    +0.040 C 
ATOM      6  C   UNL     1      33.571 -12.280 -25.460  0.00  0.00    +0.136 C 
ATOM      7  C   UNL     1      33.927 -14.526 -25.135  0.00  0.00    +0.099 C 
BRANCH   4  10
ATOM      8  N   UNL     1      35.401 -18.805 -20.736  0.00  0.00    -0.236 N 
ATOM      9  N   UNL     1      35.697 -19.749 -21.646  0.00  0.00    -0.180 NA
ATOM     10  C   UNL     1      34.473 -15.469 -22.926  0.00  0.00    +0.002 C 
ATOM     11  C   UNL     1      35.140 -17.770 -22.651  0.00  0.00    +0.035 C 
ATOM     12  C   UNL     1      34.844 -16.692 -23.501  0.00  0.00    +0.003 C 
ATOM     13  C   UNL     1      35.058 -17.595 -21.273  0.00  0.00    +0.067 C 
ATOM     14  C   UNL     1      34.399 -15.321 -21.540  0.00  0.00    +0.001 C 
ATOM     15  C   UNL     1      34.691 -16.385 -20.681  0.00  0.00    +0.016 C 
ATOM     16  C   UNL     1      35.537 -19.115 -22.809  0.00  0.00    +0.119 C 
ATOM     17  H   UNL     1      35.428 -18.971 -19.766  0.00  0.00    +0.174 HD
ENDBRANCH   4  10
ENDBRANCH   1   3
BRANCH   1  18
ATOM     18  C   UNL     1      34.793  -9.844 -23.972  0.00  0.00    +0.184 C 
BRANCH  18  19
ATOM     19  C   UNL     1      34.569  -8.458 -23.357  0.00  0.00    -0.017 C 
BRANCH  19  20
ATOM     20  N   UNL     1      35.141  -7.456 -24.262  0.00  0.00    +0.384 N 
ATOM     21  H   UNL     1      35.285  -6.583 -23.756  0.00  0.00    -0.089 HD
ATOM     22  H   UNL     1      34.502  -7.297 -25.040  0.00  0.00    -0.089 HD
ATOM     23  H   UNL     1      36.035  -7.793 -24.620  0.00  0.00    -0.089 HD
ENDBRANCH  19  20
BRANCH  19  24
ATOM     24  C   UNL     1      33.073  -8.131 -23.123  0.00  0.00    +0.006 C 
BRANCH  24  26
ATOM     25  N   UNL     1      32.807  -7.911 -19.382  0.00  0.00    -0.234 NA
ATOM     26  C   UNL     1      32.619  -8.299 -21.730  0.00  0.00    -0.024 C 
ATOM     27  C   UNL     1      31.874  -9.212 -21.107  0.00  0.00    +0.065 C 
ATOM     28  C   UNL     1      31.779  -8.942 -19.631  0.00  0.00    +0.122 C 
ATOM     29  C   UNL     1      33.160  -7.557 -20.583  0.00  0.00    +0.072 C 
ATOM     30  C   UNL     1      31.320 -10.444 -21.607  0.00  0.00    -0.020 C 
ATOM     31  C   UNL     1      31.945 -10.199 -18.825  0.00  0.00    -0.004 C 
ATOM     32  C   UNL     1      31.193 -11.482 -20.759  0.00  0.00    -0.004 C 
ATOM     33  C   UNL     1      31.640 -11.389 -19.376  0.00  0.00    -0.003 C 
ENDBRANCH  24  26
ENDBRANCH  19  24
ENDBRANCH  18  19
ENDBRANCH   1  18
TORSDOF 7
ENDMDL
