MODEL 1
REMARK VINA RESULT:     -12.4      0.000      0.000
REMARK  Name = 11634458
REMARK  5 active torsions:
REMARK  status: ('A' for Active; 'I' for Inactive)
REMARK    1  A    between atoms: N_3  and  C_11
REMARK    2  A    between atoms: C_4  and  C_19
REMARK    3  A    between atoms: C_5  and  O_35
REMARK    4  A    between atoms: N_18  and  C_22
REMARK    5  A    between atoms: C_25  and  N_29
REMARK                            x       y       z     vdW  Elec       q    Type
REMARK                         _______ _______ _______ _____ _____    ______ ____
ROOT
ATOM      1  O   UNL     1      32.108 -23.642 -12.408  0.00  0.00    -0.252 OA
ATOM      2  N   UNL     1      34.048 -24.174 -13.517  0.00  0.00    -0.255 N 
ATOM      3  N   UNL     1      32.088 -23.750 -14.736  0.00  0.00    -0.268 N 
ATOM      4  C   UNL     1      34.836 -24.591 -14.675  0.00  0.00    +0.156 C 
ATOM      5  C   UNL     1      36.248 -24.569 -12.725  0.00  0.00    +0.137 C 
ATOM      6  C   UNL     1      36.088 -25.243 -14.085  0.00  0.00    +0.061 C 
ATOM      7  C   UNL     1      34.819 -24.300 -12.282  0.00  0.00    +0.125 C 
ATOM      8  C   UNL     1      32.686 -23.839 -13.479  0.00  0.00    +0.308 C 
ATOM      9  H   UNL     1      32.673 -23.933 -15.507  0.00  0.00    +0.156 HD
ENDROOT
BRANCH   3  11
ATOM     10 CL   UNL     1      26.461 -22.401 -16.002  0.00  0.00    -0.082 Cl
ATOM     11  C   UNL     1      30.743 -23.428 -15.039  0.00  0.00    +0.052 C 
ATOM     12  C   UNL     1      30.140 -22.330 -14.431  0.00  0.00    +0.016 C 
ATOM     13  C   UNL     1      30.029 -24.211 -15.943  0.00  0.00    +0.016 C 
ATOM     14  C   UNL     1      28.814 -22.012 -14.729  0.00  0.00    +0.013 C 
ATOM     15  C   UNL     1      28.704 -23.893 -16.241  0.00  0.00    +0.013 C 
ATOM     16  C   UNL     1      28.097 -22.793 -15.634  0.00  0.00    +0.058 C 
ENDBRANCH   3  11
BRANCH   4  19
ATOM     17  O   UNL     1      35.732 -22.409 -14.946  0.00  0.00    -0.273 OA
ATOM     18  N   UNL     1      34.818 -23.523 -16.806  0.00  0.00    -0.281 N 
ATOM     19  C   UNL     1      35.189 -23.373 -15.476  0.00  0.00    +0.244 C 
ATOM     20  H   UNL     1      34.387 -24.376 -17.044  0.00  0.00    +0.155 HD
BRANCH  18  22
ATOM     21  F   UNL     1      32.642 -22.556 -18.233  0.00  0.00    -0.203 F 
ATOM     22  C   UNL     1      34.986 -22.592 -17.858  0.00  0.00    +0.078 C 
ATOM     23  C   UNL     1      33.875 -22.134 -18.545  0.00  0.00    +0.155 C 
ATOM     24  C   UNL     1      36.263 -22.160 -18.178  0.00  0.00    +0.018 C 
ATOM     25  C   UNL     1      35.324 -20.772 -19.918  0.00  0.00    +0.061 C 
ATOM     26  C   UNL     1      34.045 -21.217 -19.582  0.00  0.00    +0.046 C 
ATOM     27  C   UNL     1      36.432 -21.243 -19.215  0.00  0.00    +0.017 C 
BRANCH  25  29
ATOM     28  O   UNL     1      37.425 -18.790 -20.072  0.00  0.00    -0.269 OA
ATOM     29  N   UNL     1      35.500 -19.818 -20.997  0.00  0.00    -0.233 N 
ATOM     30  C   UNL     1      36.598 -18.921 -20.975  0.00  0.00    +0.257 C 
ATOM     31  C   UNL     1      34.583 -19.762 -22.048  0.00  0.00    +0.072 C 
ATOM     32  C   UNL     1      36.732 -18.004 -22.148  0.00  0.00    +0.059 C 
ATOM     33  C   UNL     1      34.707 -18.909 -23.070  0.00  0.00    +0.017 C 
ATOM     34  C   UNL     1      35.820 -18.010 -23.123  0.00  0.00    +0.006 C 
ENDBRANCH  25  29
ENDBRANCH  18  22
ENDBRANCH   4  19
BRANCH   5  35
ATOM     35  O   UNL     1      36.958 -23.344 -12.878  0.00  0.00    -0.352 OA
ATOM     36  C   UNL     1      37.404 -22.842 -11.626  0.00  0.00    +0.174 C 
ENDBRANCH   5  35
TORSDOF 5
ENDMDL
MODEL 2
REMARK VINA RESULT:     -11.6      1.356      1.680
REMARK  Name = 11634458
REMARK  5 active torsions:
REMARK  status: ('A' for Active; 'I' for Inactive)
REMARK    1  A    between atoms: N_3  and  C_11
REMARK    2  A    between atoms: C_4  and  C_19
REMARK    3  A    between atoms: C_5  and  O_35
REMARK    4  A    between atoms: N_18  and  C_22
REMARK    5  A    between atoms: C_25  and  N_29
REMARK                            x       y       z     vdW  Elec       q    Type
REMARK                         _______ _______ _______ _____ _____    ______ ____
ROOT
ATOM      1  O   UNL     1      33.176 -23.840 -12.054  0.00  0.00    -0.252 OA
ATOM      2  N   UNL     1      35.158 -24.533 -12.985  0.00  0.00    -0.255 N 
ATOM      3  N   UNL     1      33.271 -24.244 -14.348  0.00  0.00    -0.268 N 
ATOM      4  C   UNL     1      35.996 -25.104 -14.038  0.00  0.00    +0.156 C 
ATOM      5  C   UNL     1      37.309 -24.851 -12.036  0.00  0.00    +0.137 C 
ATOM      6  C   UNL     1      37.203 -25.691 -13.306  0.00  0.00    +0.061 C 
ATOM      7  C   UNL     1      35.864 -24.510 -11.706  0.00  0.00    +0.125 C 
ATOM      8  C   UNL     1      33.803 -24.179 -13.060  0.00  0.00    +0.308 C 
ATOM      9  H   UNL     1      33.890 -24.530 -15.058  0.00  0.00    +0.156 HD
ENDROOT
BRANCH   3  11
ATOM     10 CL   UNL     1      27.741 -22.996 -16.066  0.00  0.00    -0.082 Cl
ATOM     11  C   UNL     1      31.949 -23.945 -14.759  0.00  0.00    +0.052 C 
ATOM     12  C   UNL     1      31.695 -22.789 -15.491  0.00  0.00    +0.016 C 
ATOM     13  C   UNL     1      30.908 -24.810 -14.428  0.00  0.00    +0.016 C 
ATOM     14  C   UNL     1      30.392 -22.494 -15.896  0.00  0.00    +0.013 C 
ATOM     15  C   UNL     1      29.607 -24.516 -14.833  0.00  0.00    +0.013 C 
ATOM     16  C   UNL     1      29.349 -23.358 -15.567  0.00  0.00    +0.058 C 
ENDBRANCH   3  11
BRANCH   4  19
ATOM     17  O   UNL     1      37.417 -23.337 -14.741  0.00  0.00    -0.273 OA
ATOM     18  N   UNL     1      35.527 -23.884 -16.031  0.00  0.00    -0.281 N 
ATOM     19  C   UNL     1      36.412 -24.003 -14.967  0.00  0.00    +0.244 C 
ATOM     20  H   UNL     1      34.769 -24.513 -16.040  0.00  0.00    +0.155 HD
BRANCH  18  22
ATOM     21  F   UNL     1      33.445 -23.659 -17.854  0.00  0.00    -0.203 F 
ATOM     22  C   UNL     1      35.587 -22.963 -17.104  0.00  0.00    +0.078 C 
ATOM     23  C   UNL     1      34.528 -22.882 -17.991  0.00  0.00    +0.155 C 
ATOM     24  C   UNL     1      36.710 -22.163 -17.243  0.00  0.00    +0.018 C 
ATOM     25  C   UNL     1      35.714 -21.160 -19.202  0.00  0.00    +0.061 C 
ATOM     26  C   UNL     1      34.591 -21.974 -19.048  0.00  0.00    +0.046 C 
ATOM     27  C   UNL     1      36.773 -21.255 -18.300  0.00  0.00    +0.017 C 
BRANCH  25  29
ATOM     28  O   UNL     1      33.477 -20.352 -20.848  0.00  0.00    -0.269 OA
ATOM     29  N   UNL     1      35.780 -20.217 -20.302  0.00  0.00    -0.233 N 
ATOM     30  C   UNL     1      34.599 -19.872 -21.009  0.00  0.00    +0.257 C 
ATOM     31  C   UNL     1      37.002 -19.660 -20.686  0.00  0.00    +0.072 C 
ATOM     32  C   UNL     1      34.747 -18.856 -22.096  0.00  0.00    +0.059 C 
ATOM     33  C   UNL     1      37.113 -18.779 -21.685  0.00  0.00    +0.017 C 
ATOM     34  C   UNL     1      35.948 -18.361 -22.405  0.00  0.00    +0.006 C 
ENDBRANCH  25  29
ENDBRANCH  18  22
ENDBRANCH   4  19
BRANCH   5  35
ATOM     35  O   UNL     1      38.048 -23.665 -12.305  0.00  0.00    -0.352 OA
ATOM     36  C   UNL     1      37.671 -22.608 -11.434  0.00  0.00    +0.174 C 
ENDBRANCH   5  35
TORSDOF 5
ENDMDL
MODEL 3
REMARK VINA RESULT:     -11.0      1.891      2.556
REMARK  Name = 11634458
REMARK  5 active torsions:
REMARK  status: ('A' for Active; 'I' for Inactive)
REMARK    1  A    between atoms: N_3  and  C_11
REMARK    2  A    between atoms: C_4  and  C_19
REMARK    3  A    between atoms: C_5  and  O_35
REMARK    4  A    between atoms: N_18  and  C_22
REMARK    5  A    between atoms: C_25  and  N_29
REMARK                            x       y       z     vdW  Elec       q    Type
REMARK                         _______ _______ _______ _____ _____    ______ ____
ROOT
ATOM      1  O   UNL     1      33.537 -23.501 -11.818  0.00  0.00    -0.252 OA
ATOM      2  N   UNL     1      35.386 -24.670 -12.517  0.00  0.00    -0.255 N 
ATOM      3  N   UNL     1      33.430 -24.703 -13.812  0.00  0.00    -0.268 N 
ATOM      4  C   UNL     1      36.098 -25.658 -13.326  0.00  0.00    +0.156 C 
ATOM      5  C   UNL     1      37.571 -24.836 -11.608  0.00  0.00    +0.137 C 
ATOM      6  C   UNL     1      37.308 -26.060 -12.483  0.00  0.00    +0.061 C 
ATOM      7  C   UNL     1      36.185 -24.261 -11.364  0.00  0.00    +0.125 C 
ATOM      8  C   UNL     1      34.060 -24.235 -12.658  0.00  0.00    +0.308 C 
ATOM      9  H   UNL     1      33.972 -25.283 -14.395  0.00  0.00    +0.156 HD
ENDROOT
BRANCH   3  11
ATOM     10 CL   UNL     1      27.899 -23.618 -15.631  0.00  0.00    -0.082 Cl
ATOM     11  C   UNL     1      32.107 -24.444 -14.247  0.00  0.00    +0.052 C 
ATOM     12  C   UNL     1      31.854 -23.363 -15.087  0.00  0.00    +0.016 C 
ATOM     13  C   UNL     1      31.067 -25.271 -13.832  0.00  0.00    +0.016 C 
ATOM     14  C   UNL     1      30.551 -23.106 -15.516  0.00  0.00    +0.013 C 
ATOM     15  C   UNL     1      29.765 -25.015 -14.261  0.00  0.00    +0.013 C 
ATOM     16  C   UNL     1      29.507 -23.933 -15.102  0.00  0.00    +0.058 C 
ENDBRANCH   3  11
BRANCH   4  19
ATOM     17  O   UNL     1      37.550 -25.362 -15.182  0.00  0.00    -0.273 OA
ATOM     18  N   UNL     1      35.632 -24.013 -14.988  0.00  0.00    -0.281 N 
ATOM     19  C   UNL     1      36.526 -25.006 -14.608  0.00  0.00    +0.244 C 
ATOM     20  H   UNL     1      34.862 -23.869 -14.391  0.00  0.00    +0.155 HD
BRANCH  18  22
ATOM     21  F   UNL     1      37.813 -22.354 -15.436  0.00  0.00    -0.203 F 
ATOM     22  C   UNL     1      35.700 -23.184 -16.132  0.00  0.00    +0.078 C 
ATOM     23  C   UNL     1      36.805 -22.372 -16.319  0.00  0.00    +0.155 C 
ATOM     24  C   UNL     1      34.655 -23.204 -17.042  0.00  0.00    +0.018 C 
ATOM     25  C   UNL     1      35.824 -21.563 -18.374  0.00  0.00    +0.061 C 
ATOM     26  C   UNL     1      36.868 -21.555 -17.448  0.00  0.00    +0.046 C 
ATOM     27  C   UNL     1      34.718 -22.387 -18.171  0.00  0.00    +0.017 C 
BRANCH  25  29
ATOM     28  O   UNL     1      33.592 -20.912 -20.094  0.00  0.00    -0.269 OA
ATOM     29  N   UNL     1      35.890 -20.713 -19.548  0.00  0.00    -0.233 N 
ATOM     30  C   UNL     1      34.711 -20.437 -20.288  0.00  0.00    +0.257 C 
ATOM     31  C   UNL     1      37.110 -20.180 -19.970  0.00  0.00    +0.072 C 
ATOM     32  C   UNL     1      34.859 -19.514 -21.455  0.00  0.00    +0.059 C 
ATOM     33  C   UNL     1      37.221 -19.384 -21.037  0.00  0.00    +0.017 C 
ATOM     34  C   UNL     1      36.058 -19.036 -21.796  0.00  0.00    +0.006 C 
ENDBRANCH  25  29
ENDBRANCH  18  22
ENDBRANCH   4  19
BRANCH   5  35
ATOM     35  O   UNL     1      38.376 -23.902 -12.319  0.00  0.00    -0.352 OA
ATOM     36  C   UNL     1      38.095 -22.566 -11.925  0.00  0.00    +0.174 C 
ENDBRANCH   5  35
TORSDOF 5
ENDMDL
MODEL 4
REMARK VINA RESULT:      -9.8      9.792     14.770
REMARK  Name = 11634458
REMARK  5 active torsions:
REMARK  status: ('A' for Active; 'I' for Inactive)
REMARK    1  A    between atoms: N_3  and  C_11
REMARK    2  A    between atoms: C_4  and  C_19
REMARK    3  A    between atoms: C_5  and  O_35
REMARK    4  A    between atoms: N_18  and  C_22
REMARK    5  A    between atoms: C_25  and  N_29
REMARK                            x       y       z     vdW  Elec       q    Type
REMARK                         _______ _______ _______ _____ _____    ______ ____
ROOT
ATOM      1  O   UNL     1      33.351  -6.205 -21.399  0.00  0.00    -0.252 OA
ATOM      2  N   UNL     1      32.197  -8.189 -21.321  0.00  0.00    -0.255 N 
ATOM      3  N   UNL     1      33.057  -7.422 -23.365  0.00  0.00    -0.268 N 
ATOM      4  C   UNL     1      31.477  -9.323 -21.898  0.00  0.00    +0.156 C 
ATOM      5  C   UNL     1      31.260  -9.387 -19.501  0.00  0.00    +0.137 C 
ATOM      6  C   UNL     1      30.548  -9.808 -20.784  0.00  0.00    +0.061 C 
ATOM      7  C   UNL     1      31.962  -8.093 -19.882  0.00  0.00    +0.125 C 
ATOM      8  C   UNL     1      32.908  -7.187 -21.998  0.00  0.00    +0.308 C 
ATOM      9  H   UNL     1      32.651  -8.251 -23.707  0.00  0.00    +0.156 HD
ENDROOT
BRANCH   3  11
ATOM     10 CL   UNL     1      35.840  -4.044 -27.355  0.00  0.00    -0.082 Cl
ATOM     11  C   UNL     1      33.723  -6.614 -24.319  0.00  0.00    +0.052 C 
ATOM     12  C   UNL     1      32.989  -5.752 -25.129  0.00  0.00    +0.016 C 
ATOM     13  C   UNL     1      35.108  -6.687 -24.443  0.00  0.00    +0.016 C 
ATOM     14  C   UNL     1      33.644  -4.956 -26.069  0.00  0.00    +0.013 C 
ATOM     15  C   UNL     1      35.763  -5.892 -25.383  0.00  0.00    +0.013 C 
ATOM     16  C   UNL     1      35.031  -5.026 -26.196  0.00  0.00    +0.058 C 
ENDBRANCH   3  11
BRANCH   4  19
ATOM     17  O   UNL     1      33.452 -10.110 -22.955  0.00  0.00    -0.273 OA
ATOM     18  N   UNL     1      32.112 -11.615 -21.742  0.00  0.00    -0.281 N 
ATOM     19  C   UNL     1      32.472 -10.382 -22.268  0.00  0.00    +0.244 C 
ATOM     20  H   UNL     1      31.281 -11.637 -21.213  0.00  0.00    +0.155 HD
BRANCH  18  22
ATOM     21  F   UNL     1      31.993 -13.557 -19.760  0.00  0.00    -0.203 F 
ATOM     22  C   UNL     1      32.799 -12.845 -21.877  0.00  0.00    +0.078 C 
ATOM     23  C   UNL     1      32.713 -13.787 -20.866  0.00  0.00    +0.155 C 
ATOM     24  C   UNL     1      33.544 -13.078 -23.021  0.00  0.00    +0.018 C 
ATOM     25  C   UNL     1      34.148 -15.248 -22.149  0.00  0.00    +0.061 C 
ATOM     26  C   UNL     1      33.393 -14.997 -21.002  0.00  0.00    +0.046 C 
ATOM     27  C   UNL     1      34.223 -14.289 -23.158  0.00  0.00    +0.017 C 
BRANCH  25  29
ATOM     28  O   UNL     1      34.474 -16.714 -24.621  0.00  0.00    -0.269 OA
ATOM     29  N   UNL     1      34.855 -16.507 -22.290  0.00  0.00    -0.233 N 
ATOM     30  C   UNL     1      34.980 -17.108 -23.569  0.00  0.00    +0.257 C 
ATOM     31  C   UNL     1      35.395 -17.146 -21.172  0.00  0.00    +0.072 C 
ATOM     32  C   UNL     1      35.764 -18.379 -23.633  0.00  0.00    +0.059 C 
ATOM     33  C   UNL     1      36.064 -18.300 -21.251  0.00  0.00    +0.017 C 
ATOM     34  C   UNL     1      36.258 -18.930 -22.522  0.00  0.00    +0.006 C 
ENDBRANCH  25  29
ENDBRANCH  18  22
ENDBRANCH   4  19
BRANCH   5  35
ATOM     35  O   UNL     1      32.215 -10.378 -19.136  0.00  0.00    -0.352 OA
ATOM     36  C   UNL     1      31.712 -11.237 -18.122  0.00  0.00    +0.174 C 
ENDBRANCH   5  35
TORSDOF 5
ENDMDL
