MODEL 1
REMARK VINA RESULT:     -12.1      0.000      0.000
REMARK  Name = 656913
REMARK  7 active torsions:
REMARK  status: ('A' for Active; 'I' for Inactive)
REMARK    1  A    between atoms: N_3  and  C_22
REMARK    2  A    between atoms: N_4  and  C_11
REMARK    3  A    between atoms: C_11  and  C_14
REMARK    4  A    between atoms: C_14  and  C_17
REMARK    5  A    between atoms: C_22  and  C_25
REMARK    6  A    between atoms: N_24  and  C_27
REMARK    7  A    between atoms: C_27  and  C_29
REMARK                            x       y       z     vdW  Elec       q    Type
REMARK                         _______ _______ _______ _____ _____    ______ ____
ROOT
ATOM      1 CL   UNL     1      35.304 -16.402 -25.137  0.00  0.00    -0.064 Cl
ATOM      2  O   UNL     1      34.100 -15.303 -20.383  0.00  0.00    -0.266 OA
ATOM      3  N   UNL     1      34.686 -15.842 -22.589  0.00  0.00    -0.233 N 
ATOM      4  N   UNL     1      32.405 -13.340 -21.106  0.00  0.00    -0.310 N 
ATOM      5  N   UNL     1      32.915 -13.791 -23.349  0.00  0.00    -0.223 NA
ATOM      6  C   UNL     1      33.071 -14.041 -22.080  0.00  0.00    +0.183 C 
ATOM      7  C   UNL     1      34.012 -15.134 -21.593  0.00  0.00    +0.285 C 
ATOM      8  C   UNL     1      34.469 -15.522 -23.914  0.00  0.00    +0.133 C 
ATOM      9  C   UNL     1      33.621 -14.542 -24.244  0.00  0.00    +0.127 C 
ATOM     10  H   UNL     1      32.561 -13.571 -20.161  0.00  0.00    +0.149 HD
ENDROOT
BRANCH   4  11
ATOM     11  C   UNL     1      31.491 -12.286 -21.416  0.00  0.00    +0.162 C 
BRANCH  11  14
ATOM     12  F   UNL     1      32.298 -11.696 -19.292  0.00  0.00    -0.196 F 
ATOM     13  F   UNL     1      30.234 -11.210 -19.750  0.00  0.00    -0.196 F 
ATOM     14  C   UNL     1      31.486 -11.247 -20.295  0.00  0.00    +0.317 C 
BRANCH  14  17
ATOM     15  O   UNL     1      32.257  -9.189 -18.633  0.00  0.00    -0.163 OA
ATOM     16  N   UNL     1      32.280  -8.950 -19.886  0.00  0.00    -0.128 N 
ATOM     17  C   UNL     1      31.918  -9.897 -20.811  0.00  0.00    +0.142 C 
ATOM     18  C   UNL     1      31.941  -9.651 -22.171  0.00  0.00    +0.022 C 
ATOM     19  C   UNL     1      32.678  -7.708 -20.341  0.00  0.00    +0.121 C 
ATOM     20  C   UNL     1      32.343  -8.397 -22.618  0.00  0.00    +0.003 C 
ATOM     21  C   UNL     1      32.715  -7.419 -21.701  0.00  0.00    +0.022 C 
ENDBRANCH  14  17
ENDBRANCH  11  14
ENDBRANCH   4  11
BRANCH   3  22
ATOM     22  C   UNL     1      35.607 -16.905 -22.201  0.00  0.00    +0.184 C 
BRANCH  22  25
ATOM     23  O   UNL     1      34.625 -18.722 -23.456  0.00  0.00    -0.273 OA
ATOM     24  N   UNL     1      34.652 -18.832 -21.135  0.00  0.00    -0.299 N 
ATOM     25  C   UNL     1      34.927 -18.248 -22.363  0.00  0.00    +0.243 C 
ATOM     26  H   UNL     1      34.941 -18.362 -20.319  0.00  0.00    +0.150 HD
BRANCH  24  27
ATOM     27  C   UNL     1      33.963 -20.095 -20.993  0.00  0.00    +0.119 C 
BRANCH  27  29
ATOM     28  F   UNL     1      36.718 -20.218 -20.377  0.00  0.00    -0.204 F 
ATOM     29  C   UNL     1      34.507 -20.907 -19.853  0.00  0.00    +0.025 C 
ATOM     30  C   UNL     1      35.875 -20.921 -19.608  0.00  0.00    +0.138 C 
ATOM     31  C   UNL     1      33.635 -21.637 -19.055  0.00  0.00    -0.000 C 
ATOM     32  C   UNL     1      36.378 -21.676 -18.549  0.00  0.00    +0.029 C 
ATOM     33  C   UNL     1      34.138 -22.392 -17.996  0.00  0.00    -0.000 C 
ATOM     34  C   UNL     1      35.509 -22.411 -17.742  0.00  0.00    +0.002 C 
ENDBRANCH  27  29
ENDBRANCH  24  27
ENDBRANCH  22  25
ENDBRANCH   3  22
TORSDOF 7
ENDMDL
MODEL 2
REMARK VINA RESULT:     -11.7      2.244     10.302
REMARK  Name = 656913
REMARK  7 active torsions:
REMARK  status: ('A' for Active; 'I' for Inactive)
REMARK    1  A    between atoms: N_3  and  C_22
REMARK    2  A    between atoms: N_4  and  C_11
REMARK    3  A    between atoms: C_11  and  C_14
REMARK    4  A    between atoms: C_14  and  C_17
REMARK    5  A    between atoms: C_22  and  C_25
REMARK    6  A    between atoms: N_24  and  C_27
REMARK    7  A    between atoms: C_27  and  C_29
REMARK                            x       y       z     vdW  Elec       q    Type
REMARK                         _______ _______ _______ _____ _____    ______ ____
ROOT
ATOM      1 CL   UNL     1      33.302 -12.895 -26.257  0.00  0.00    -0.064 Cl
ATOM      2  O   UNL     1      34.994 -14.124 -21.687  0.00  0.00    -0.266 OA
ATOM      3  N   UNL     1      34.203 -13.514 -23.809  0.00  0.00    -0.233 N 
ATOM      4  N   UNL     1      35.050 -16.757 -22.250  0.00  0.00    -0.310 N 
ATOM      5  N   UNL     1      34.260 -16.265 -24.402  0.00  0.00    -0.223 NA
ATOM      6  C   UNL     1      34.633 -15.875 -23.215  0.00  0.00    +0.183 C 
ATOM      7  C   UNL     1      34.629 -14.404 -22.823  0.00  0.00    +0.285 C 
ATOM      8  C   UNL     1      33.824 -14.001 -25.045  0.00  0.00    +0.133 C 
ATOM      9  C   UNL     1      33.863 -15.313 -25.296  0.00  0.00    +0.127 C 
ATOM     10  H   UNL     1      35.320 -16.407 -21.370  0.00  0.00    +0.149 HD
ENDROOT
BRANCH   4  11
ATOM     11  C   UNL     1      35.105 -18.167 -22.478  0.00  0.00    +0.162 C 
BRANCH  11  14
ATOM     12  F   UNL     1      36.462 -17.869 -20.585  0.00  0.00    -0.196 F 
ATOM     13  F   UNL     1      37.043 -19.403 -22.004  0.00  0.00    -0.196 F 
ATOM     14  C   UNL     1      35.955 -18.841 -21.401  0.00  0.00    +0.317 C 
BRANCH  14  17
ATOM     15  O   UNL     1      37.090 -20.651 -19.661  0.00  0.00    -0.163 OA
ATOM     16  N   UNL     1      35.823 -20.707 -19.797  0.00  0.00    -0.128 N 
ATOM     17  C   UNL     1      35.145 -19.858 -20.635  0.00  0.00    +0.142 C 
ATOM     18  C   UNL     1      33.772 -19.907 -20.790  0.00  0.00    +0.022 C 
ATOM     19  C   UNL     1      35.097 -21.645 -19.088  0.00  0.00    +0.121 C 
ATOM     20  C   UNL     1      33.051 -20.855 -20.071  0.00  0.00    +0.003 C 
ATOM     21  C   UNL     1      33.715 -21.728 -19.215  0.00  0.00    +0.022 C 
ENDBRANCH  14  17
ENDBRANCH  11  14
ENDBRANCH   4  11
BRANCH   3  22
ATOM     22  C   UNL     1      34.170 -12.087 -23.507  0.00  0.00    +0.184 C 
BRANCH  22  25
ATOM     23  O   UNL     1      32.196 -12.634 -22.224  0.00  0.00    -0.273 OA
ATOM     24  N   UNL     1      32.712 -10.402 -22.616  0.00  0.00    -0.299 N 
ATOM     25  C   UNL     1      32.929 -11.770 -22.699  0.00  0.00    +0.243 C 
ATOM     26  H   UNL     1      33.367  -9.798 -23.035  0.00  0.00    +0.150 HD
BRANCH  24  27
ATOM     27  C   UNL     1      31.572  -9.819 -21.945  0.00  0.00    +0.119 C 
BRANCH  27  29
ATOM     28  F   UNL     1      32.774  -8.329 -19.865  0.00  0.00    -0.204 F 
ATOM     29  C   UNL     1      31.627  -8.318 -21.944  0.00  0.00    +0.025 C 
ATOM     30  C   UNL     1      32.235  -7.650 -20.888  0.00  0.00    +0.138 C 
ATOM     31  C   UNL     1      31.068  -7.612 -23.003  0.00  0.00    -0.000 C 
ATOM     32  C   UNL     1      32.285  -6.257 -20.891  0.00  0.00    +0.029 C 
ATOM     33  C   UNL     1      31.119  -6.219 -23.006  0.00  0.00    -0.000 C 
ATOM     34  C   UNL     1      31.727  -5.541 -21.950  0.00  0.00    +0.002 C 
ENDBRANCH  27  29
ENDBRANCH  24  27
ENDBRANCH  22  25
ENDBRANCH   3  22
TORSDOF 7
ENDMDL
MODEL 3
REMARK VINA RESULT:     -11.6      3.499     10.968
REMARK  Name = 656913
REMARK  7 active torsions:
REMARK  status: ('A' for Active; 'I' for Inactive)
REMARK    1  A    between atoms: N_3  and  C_22
REMARK    2  A    between atoms: N_4  and  C_11
REMARK    3  A    between atoms: C_11  and  C_14
REMARK    4  A    between atoms: C_14  and  C_17
REMARK    5  A    between atoms: C_22  and  C_25
REMARK    6  A    between atoms: N_24  and  C_27
REMARK    7  A    between atoms: C_27  and  C_29
REMARK                            x       y       z     vdW  Elec       q    Type
REMARK                         _______ _______ _______ _____ _____    ______ ____
ROOT
ATOM      1 CL   UNL     1      30.438 -10.809 -19.151  0.00  0.00    -0.064 Cl
ATOM      2  O   UNL     1      33.138 -11.253 -23.366  0.00  0.00    -0.266 OA
ATOM      3  N   UNL     1      31.864 -11.013 -21.412  0.00  0.00    -0.233 N 
ATOM      4  N   UNL     1      34.257 -13.574 -22.584  0.00  0.00    -0.310 N 
ATOM      5  N   UNL     1      33.032 -13.438 -20.591  0.00  0.00    -0.223 NA
ATOM      6  C   UNL     1      33.363 -12.950 -21.752  0.00  0.00    +0.183 C 
ATOM      7  C   UNL     1      32.773 -11.643 -22.263  0.00  0.00    +0.285 C 
ATOM      8  C   UNL     1      31.562 -11.592 -20.195  0.00  0.00    +0.133 C 
ATOM      9  C   UNL     1      32.133 -12.745 -19.834  0.00  0.00    +0.127 C 
ATOM     10  H   UNL     1      34.471 -13.160 -23.452  0.00  0.00    +0.149 HD
ENDROOT
BRANCH   4  11
ATOM     11  C   UNL     1      34.890 -14.807 -22.235  0.00  0.00    +0.162 C 
BRANCH  11  14
ATOM     12  F   UNL     1      35.737 -15.510 -24.310  0.00  0.00    -0.196 F 
ATOM     13  F   UNL     1      33.587 -15.580 -24.028  0.00  0.00    -0.196 F 
ATOM     14  C   UNL     1      34.771 -15.804 -23.388  0.00  0.00    +0.317 C 
BRANCH  14  17
ATOM     15  O   UNL     1      34.649 -17.994 -25.056  0.00  0.00    -0.163 OA
ATOM     16  N   UNL     1      34.807 -18.232 -23.813  0.00  0.00    -0.128 N 
ATOM     17  C   UNL     1      34.883 -17.223 -22.885  0.00  0.00    +0.142 C 
ATOM     18  C   UNL     1      35.056 -17.467 -21.536  0.00  0.00    +0.022 C 
ATOM     19  C   UNL     1      34.907 -19.537 -23.371  0.00  0.00    +0.121 C 
ATOM     20  C   UNL     1      35.155 -18.785 -21.102  0.00  0.00    +0.003 C 
ATOM     21  C   UNL     1      35.081 -19.826 -22.021  0.00  0.00    +0.022 C 
ENDBRANCH  14  17
ENDBRANCH  11  14
ENDBRANCH   4  11
BRANCH   3  22
ATOM     22  C   UNL     1      31.257  -9.754 -21.831  0.00  0.00    +0.184 C 
BRANCH  22  25
ATOM     23  O   UNL     1      32.053  -7.999 -20.373  0.00  0.00    -0.273 OA
ATOM     24  N   UNL     1      33.061  -8.296 -22.446  0.00  0.00    -0.299 N 
ATOM     25  C   UNL     1      32.158  -8.602 -21.438  0.00  0.00    +0.243 C 
ATOM     26  H   UNL     1      33.057  -8.849 -23.261  0.00  0.00    +0.150 HD
BRANCH  24  27
ATOM     27  C   UNL     1      34.008  -7.207 -22.358  0.00  0.00    +0.119 C 
BRANCH  27  29
ATOM     28  F   UNL     1      31.853  -5.515 -23.051  0.00  0.00    -0.204 F 
ATOM     29  C   UNL     1      34.004  -6.358 -23.597  0.00  0.00    +0.025 C 
ATOM     30  C   UNL     1      32.909  -5.548 -23.875  0.00  0.00    +0.138 C 
ATOM     31  C   UNL     1      35.098  -6.392 -24.454  0.00  0.00    -0.000 C 
ATOM     32  C   UNL     1      32.909  -4.761 -25.026  0.00  0.00    +0.029 C 
ATOM     33  C   UNL     1      35.097  -5.604 -25.604  0.00  0.00    -0.000 C 
ATOM     34  C   UNL     1      34.003  -4.789 -25.891  0.00  0.00    +0.002 C 
ENDBRANCH  27  29
ENDBRANCH  24  27
ENDBRANCH  22  25
ENDBRANCH   3  22
TORSDOF 7
ENDMDL
MODEL 4
REMARK VINA RESULT:     -11.6      2.214     10.402
REMARK  Name = 656913
REMARK  7 active torsions:
REMARK  status: ('A' for Active; 'I' for Inactive)
REMARK    1  A    between atoms: N_3  and  C_22
REMARK    2  A    between atoms: N_4  and  C_11
REMARK    3  A    between atoms: C_11  and  C_14
REMARK    4  A    between atoms: C_14  and  C_17
REMARK    5  A    between atoms: C_22  and  C_25
REMARK    6  A    between atoms: N_24  and  C_27
REMARK    7  A    between atoms: C_27  and  C_29
REMARK                            x       y       z     vdW  Elec       q    Type
REMARK                         _______ _______ _______ _____ _____    ______ ____
ROOT
ATOM      1 CL   UNL     1      33.279 -11.689 -23.783  0.00  0.00    -0.064 Cl
ATOM      2  O   UNL     1      32.381 -15.142 -20.244  0.00  0.00    -0.266 OA
ATOM      3  N   UNL     1      32.768 -13.513 -21.886  0.00  0.00    -0.233 N 
ATOM      4  N   UNL     1      34.587 -16.561 -20.855  0.00  0.00    -0.310 N 
ATOM      5  N   UNL     1      35.073 -14.993 -22.528  0.00  0.00    -0.223 NA
ATOM      6  C   UNL     1      34.308 -15.420 -21.564  0.00  0.00    +0.183 C 
ATOM      7  C   UNL     1      33.045 -14.672 -21.161  0.00  0.00    +0.285 C 
ATOM      8  C   UNL     1      33.627 -13.122 -22.894  0.00  0.00    +0.133 C 
ATOM      9  C   UNL     1      34.714 -13.846 -23.175  0.00  0.00    +0.127 C 
ATOM     10  H   UNL     1      33.972 -16.837 -20.136  0.00  0.00    +0.149 HD
ENDROOT
BRANCH   4  11
ATOM     11  C   UNL     1      35.738 -17.364 -21.125  0.00  0.00    +0.162 C 
BRANCH  11  14
ATOM     12  F   UNL     1      36.387 -19.038 -22.637  0.00  0.00    -0.196 F 
ATOM     13  F   UNL     1      34.346 -18.313 -22.759  0.00  0.00    -0.196 F 
ATOM     14  C   UNL     1      35.331 -18.635 -21.870  0.00  0.00    +0.317 C 
BRANCH  14  17
ATOM     15  O   UNL     1      37.096 -20.012 -20.263  0.00  0.00    -0.163 OA
ATOM     16  N   UNL     1      35.863 -20.324 -20.155  0.00  0.00    -0.128 N 
ATOM     17  C   UNL     1      34.891 -19.707 -20.903  0.00  0.00    +0.142 C 
ATOM     18  C   UNL     1      33.553 -20.035 -20.795  0.00  0.00    +0.022 C 
ATOM     19  C   UNL     1      35.479 -21.308 -19.266  0.00  0.00    +0.121 C 
ATOM     20  C   UNL     1      33.177 -21.027 -19.896  0.00  0.00    +0.003 C 
ATOM     21  C   UNL     1      34.143 -21.668 -19.126  0.00  0.00    +0.022 C 
ENDBRANCH  14  17
ENDBRANCH  11  14
ENDBRANCH   4  11
BRANCH   3  22
ATOM     22  C   UNL     1      31.573 -12.742 -21.559  0.00  0.00    +0.184 C 
BRANCH  22  25
ATOM     23  O   UNL     1      32.307 -11.814 -19.452  0.00  0.00    -0.273 OA
ATOM     24  N   UNL     1      31.750 -10.377 -21.192  0.00  0.00    -0.299 N 
ATOM     25  C   UNL     1      31.938 -11.622 -20.608  0.00  0.00    +0.243 C 
ATOM     26  H   UNL     1      31.450 -10.341 -22.129  0.00  0.00    +0.150 HD
BRANCH  24  27
ATOM     27  C   UNL     1      31.975  -9.131 -20.494  0.00  0.00    +0.119 C 
BRANCH  27  29
ATOM     28  F   UNL     1      32.810  -6.550 -19.703  0.00  0.00    -0.204 F 
ATOM     29  C   UNL     1      31.991  -7.958 -21.430  0.00  0.00    +0.025 C 
ATOM     30  C   UNL     1      32.415  -6.715 -20.973  0.00  0.00    +0.138 C 
ATOM     31  C   UNL     1      31.581  -8.127 -22.747  0.00  0.00    -0.000 C 
ATOM     32  C   UNL     1      32.429  -5.628 -21.845  0.00  0.00    +0.029 C 
ATOM     33  C   UNL     1      31.596  -7.039 -23.619  0.00  0.00    -0.000 C 
ATOM     34  C   UNL     1      32.020  -5.790 -23.169  0.00  0.00    +0.002 C 
ENDBRANCH  27  29
ENDBRANCH  24  27
ENDBRANCH  22  25
ENDBRANCH   3  22
TORSDOF 7
ENDMDL
MODEL 5
REMARK VINA RESULT:     -11.6      2.050      9.959
REMARK  Name = 656913
REMARK  7 active torsions:
REMARK  status: ('A' for Active; 'I' for Inactive)
REMARK    1  A    between atoms: N_3  and  C_22
REMARK    2  A    between atoms: N_4  and  C_11
REMARK    3  A    between atoms: C_11  and  C_14
REMARK    4  A    between atoms: C_14  and  C_17
REMARK    5  A    between atoms: C_22  and  C_25
REMARK    6  A    between atoms: N_24  and  C_27
REMARK    7  A    between atoms: C_27  and  C_29
REMARK                            x       y       z     vdW  Elec       q    Type
REMARK                         _______ _______ _______ _____ _____    ______ ____
ROOT
ATOM      1 CL   UNL     1      34.820 -15.829 -25.293  0.00  0.00    -0.064 Cl
ATOM      2  O   UNL     1      35.000 -16.551 -20.323  0.00  0.00    -0.266 OA
ATOM      3  N   UNL     1      34.914 -16.176 -22.636  0.00  0.00    -0.233 N 
ATOM      4  N   UNL     1      35.007 -19.233 -20.560  0.00  0.00    -0.310 N 
ATOM      5  N   UNL     1      34.922 -18.979 -22.889  0.00  0.00    -0.223 NA
ATOM      6  C   UNL     1      34.963 -18.462 -21.694  0.00  0.00    +0.183 C 
ATOM      7  C   UNL     1      34.961 -16.954 -21.479  0.00  0.00    +0.285 C 
ATOM      8  C   UNL     1      34.875 -16.797 -23.870  0.00  0.00    +0.133 C 
ATOM      9  C   UNL     1      34.880 -18.130 -23.957  0.00  0.00    +0.127 C 
ATOM     10  H   UNL     1      35.036 -18.788 -19.682  0.00  0.00    +0.149 HD
ENDROOT
BRANCH   4  11
ATOM     11  C   UNL     1      35.014 -20.661 -20.610  0.00  0.00    +0.162 C 
BRANCH  11  14
ATOM     12  F   UNL     1      36.766 -20.187 -19.120  0.00  0.00    -0.196 F 
ATOM     13  F   UNL     1      36.869 -22.048 -20.230  0.00  0.00    -0.196 F 
ATOM     14  C   UNL     1      35.999 -21.219 -19.583  0.00  0.00    +0.317 C 
BRANCH  14  17
ATOM     15  O   UNL     1      37.223 -21.950 -17.225  0.00  0.00    -0.163 OA
ATOM     16  N   UNL     1      35.986 -22.239 -17.339  0.00  0.00    -0.128 N 
ATOM     17  C   UNL     1      35.269 -21.925 -18.466  0.00  0.00    +0.142 C 
ATOM     18  C   UNL     1      33.928 -22.231 -18.601  0.00  0.00    +0.022 C 
ATOM     19  C   UNL     1      35.334 -22.886 -16.307  0.00  0.00    +0.121 C 
ATOM     20  C   UNL     1      33.281 -22.882 -17.556  0.00  0.00    +0.003 C 
ATOM     21  C   UNL     1      33.985 -23.212 -16.403  0.00  0.00    +0.022 C 
ENDBRANCH  14  17
ENDBRANCH  11  14
ENDBRANCH   4  11
BRANCH   3  22
ATOM     22  C   UNL     1      34.908 -14.723 -22.512  0.00  0.00    +0.184 C 
BRANCH  22  25
ATOM     23  O   UNL     1      32.713 -14.165 -23.353  0.00  0.00    -0.273 OA
ATOM     24  N   UNL     1      33.185 -13.824 -21.104  0.00  0.00    -0.299 N 
ATOM     25  C   UNL     1      33.481 -14.230 -22.397  0.00  0.00    +0.243 C 
ATOM     26  H   UNL     1      33.879 -13.923 -20.412  0.00  0.00    +0.150 HD
BRANCH  24  27
ATOM     27  C   UNL     1      31.908 -13.265 -20.720  0.00  0.00    +0.119 C 
BRANCH  27  29
ATOM     28  F   UNL     1      31.575 -11.721 -18.376  0.00  0.00    -0.204 F 
ATOM     29  C   UNL     1      31.929 -11.763 -20.723  0.00  0.00    +0.025 C 
ATOM     30  C   UNL     1      31.759 -11.067 -19.532  0.00  0.00    +0.138 C 
ATOM     31  C   UNL     1      32.118 -11.084 -21.921  0.00  0.00    -0.000 C 
ATOM     32  C   UNL     1      31.779  -9.674 -19.539  0.00  0.00    +0.029 C 
ATOM     33  C   UNL     1      32.138  -9.690 -21.927  0.00  0.00    -0.000 C 
ATOM     34  C   UNL     1      31.969  -8.984 -20.737  0.00  0.00    +0.002 C 
ENDBRANCH  27  29
ENDBRANCH  24  27
ENDBRANCH  22  25
ENDBRANCH   3  22
TORSDOF 7
ENDMDL
MODEL 6
REMARK VINA RESULT:     -11.5      3.110     10.713
REMARK  Name = 656913
REMARK  7 active torsions:
REMARK  status: ('A' for Active; 'I' for Inactive)
REMARK    1  A    between atoms: N_3  and  C_22
REMARK    2  A    between atoms: N_4  and  C_11
REMARK    3  A    between atoms: C_11  and  C_14
REMARK    4  A    between atoms: C_14  and  C_17
REMARK    5  A    between atoms: C_22  and  C_25
REMARK    6  A    between atoms: N_24  and  C_27
REMARK    7  A    between atoms: C_27  and  C_29
REMARK                            x       y       z     vdW  Elec       q    Type
REMARK                         _______ _______ _______ _____ _____    ______ ____
ROOT
ATOM      1 CL   UNL     1      31.019 -11.267 -20.924  0.00  0.00    -0.064 Cl
ATOM      2  O   UNL     1      34.311 -13.654 -23.878  0.00  0.00    -0.266 OA
ATOM      3  N   UNL     1      32.772 -12.513 -22.525  0.00  0.00    -0.233 N 
ATOM      4  N   UNL     1      34.728 -15.617 -22.083  0.00  0.00    -0.310 N 
ATOM      5  N   UNL     1      33.205 -14.563 -20.647  0.00  0.00    -0.223 NA
ATOM      6  C   UNL     1      33.849 -14.609 -21.778  0.00  0.00    +0.183 C 
ATOM      7  C   UNL     1      33.666 -13.535 -22.842  0.00  0.00    +0.285 C 
ATOM      8  C   UNL     1      32.124 -12.532 -21.306  0.00  0.00    +0.133 C 
ATOM      9  C   UNL     1      32.350 -13.520 -20.435  0.00  0.00    +0.127 C 
ATOM     10  H   UNL     1      35.188 -15.602 -22.954  0.00  0.00    +0.149 HD
ENDROOT
BRANCH   4  11
ATOM     11  C   UNL     1      34.999 -16.691 -21.180  0.00  0.00    +0.162 C 
BRANCH  11  14
ATOM     12  F   UNL     1      36.642 -17.764 -22.468  0.00  0.00    -0.196 F 
ATOM     13  F   UNL     1      34.571 -18.048 -23.047  0.00  0.00    -0.196 F 
ATOM     14  C   UNL     1      35.388 -17.948 -21.958  0.00  0.00    +0.317 C 
BRANCH  14  17
ATOM     15  O   UNL     1      37.612 -19.123 -20.832  0.00  0.00    -0.163 OA
ATOM     16  N   UNL     1      36.487 -19.666 -20.574  0.00  0.00    -0.128 N 
ATOM     17  C   UNL     1      35.310 -19.171 -21.078  0.00  0.00    +0.142 C 
ATOM     18  C   UNL     1      34.085 -19.750 -20.805  0.00  0.00    +0.022 C 
ATOM     19  C   UNL     1      36.434 -20.786 -19.767  0.00  0.00    +0.121 C 
ATOM     20  C   UNL     1      34.043 -20.877 -19.990  0.00  0.00    +0.003 C 
ATOM     21  C   UNL     1      35.221 -21.399 -19.468  0.00  0.00    +0.022 C 
ENDBRANCH  14  17
ENDBRANCH  11  14
ENDBRANCH   4  11
BRANCH   3  22
ATOM     22  C   UNL     1      32.544 -11.446 -23.495  0.00  0.00    +0.184 C 
BRANCH  22  25
ATOM     23  O   UNL     1      34.693 -10.341 -23.437  0.00  0.00    -0.273 OA
ATOM     24  N   UNL     1      32.822  -9.227 -22.625  0.00  0.00    -0.299 N 
ATOM     25  C   UNL     1      33.486 -10.295 -23.210  0.00  0.00    +0.243 C 
ATOM     26  H   UNL     1      31.849  -9.298 -22.490  0.00  0.00    +0.150 HD
BRANCH  24  27
ATOM     27  C   UNL     1      33.487  -8.014 -22.203  0.00  0.00    +0.119 C 
BRANCH  27  29
ATOM     28  F   UNL     1      36.040  -7.419 -23.260  0.00  0.00    -0.204 F 
ATOM     29  C   UNL     1      33.694  -7.061 -23.345  0.00  0.00    +0.025 C 
ATOM     30  C   UNL     1      34.979  -6.816 -23.815  0.00  0.00    +0.138 C 
ATOM     31  C   UNL     1      32.596  -6.433 -23.921  0.00  0.00    -0.000 C 
ATOM     32  C   UNL     1      35.168  -5.931 -24.876  0.00  0.00    +0.029 C 
ATOM     33  C   UNL     1      32.786  -5.549 -24.982  0.00  0.00    -0.000 C 
ATOM     34  C   UNL     1      34.071  -5.297 -25.460  0.00  0.00    +0.002 C 
ENDBRANCH  27  29
ENDBRANCH  24  27
ENDBRANCH  22  25
ENDBRANCH   3  22
TORSDOF 7
ENDMDL
MODEL 7
REMARK VINA RESULT:     -11.3      2.708     10.564
REMARK  Name = 656913
REMARK  7 active torsions:
REMARK  status: ('A' for Active; 'I' for Inactive)
REMARK    1  A    between atoms: N_3  and  C_22
REMARK    2  A    between atoms: N_4  and  C_11
REMARK    3  A    between atoms: C_11  and  C_14
REMARK    4  A    between atoms: C_14  and  C_17
REMARK    5  A    between atoms: C_22  and  C_25
REMARK    6  A    between atoms: N_24  and  C_27
REMARK    7  A    between atoms: C_27  and  C_29
REMARK                            x       y       z     vdW  Elec       q    Type
REMARK                         _______ _______ _______ _____ _____    ______ ____
ROOT
ATOM      1 CL   UNL     1      31.514 -11.639 -21.163  0.00  0.00    -0.064 Cl
ATOM      2  O   UNL     1      34.376 -14.473 -24.170  0.00  0.00    -0.266 OA
ATOM      3  N   UNL     1      33.035 -13.126 -22.795  0.00  0.00    -0.233 N 
ATOM      4  N   UNL     1      34.928 -16.249 -22.222  0.00  0.00    -0.310 N 
ATOM      5  N   UNL     1      33.609 -14.980 -20.757  0.00  0.00    -0.223 NA
ATOM      6  C   UNL     1      34.121 -15.175 -21.939  0.00  0.00    +0.183 C 
ATOM      7  C   UNL     1      33.855 -14.215 -23.091  0.00  0.00    +0.285 C 
ATOM      8  C   UNL     1      32.527 -12.986 -21.519  0.00  0.00    +0.133 C 
ATOM      9  C   UNL     1      32.818 -13.884 -20.572  0.00  0.00    +0.127 C 
ATOM     10  H   UNL     1      35.288 -16.347 -23.134  0.00  0.00    +0.149 HD
ENDROOT
BRANCH   4  11
ATOM     11  C   UNL     1      35.263 -17.230 -21.239  0.00  0.00    +0.162 C 
BRANCH  11  14
ATOM     12  F   UNL     1      36.629 -18.706 -22.452  0.00  0.00    -0.196 F 
ATOM     13  F   UNL     1      34.516 -18.664 -22.941  0.00  0.00    -0.196 F 
ATOM     14  C   UNL     1      35.387 -18.607 -21.891  0.00  0.00    +0.317 C 
BRANCH  14  17
ATOM     15  O   UNL     1      37.390 -19.736 -20.372  0.00  0.00    -0.163 OA
ATOM     16  N   UNL     1      36.211 -20.186 -20.188  0.00  0.00    -0.128 N 
ATOM     17  C   UNL     1      35.132 -19.703 -20.885  0.00  0.00    +0.142 C 
ATOM     18  C   UNL     1      33.850 -20.181 -20.693  0.00  0.00    +0.022 C 
ATOM     19  C   UNL     1      35.996 -21.190 -19.263  0.00  0.00    +0.121 C 
ATOM     20  C   UNL     1      33.645 -21.192 -19.760  0.00  0.00    +0.003 C 
ATOM     21  C   UNL     1      34.722 -21.700 -19.040  0.00  0.00    +0.022 C 
ENDBRANCH  14  17
ENDBRANCH  11  14
ENDBRANCH   4  11
BRANCH   3  22
ATOM     22  C   UNL     1      32.735 -12.161 -23.847  0.00  0.00    +0.184 C 
BRANCH  22  25
ATOM     23  O   UNL     1      34.935 -11.290 -24.339  0.00  0.00    -0.273 OA
ATOM     24  N   UNL     1      33.381  -9.919 -23.287  0.00  0.00    -0.299 N 
ATOM     25  C   UNL     1      33.812 -11.097 -23.880  0.00  0.00    +0.243 C 
ATOM     26  H   UNL     1      32.456  -9.875 -22.953  0.00  0.00    +0.150 HD
BRANCH  24  27
ATOM     27  C   UNL     1      34.223  -8.752 -23.137  0.00  0.00    +0.119 C 
BRANCH  27  29
ATOM     28  F   UNL     1      33.179  -8.192 -20.571  0.00  0.00    -0.204 F 
ATOM     29  C   UNL     1      33.423  -7.518 -22.834  0.00  0.00    +0.025 C 
ATOM     30  C   UNL     1      32.940  -7.306 -21.548  0.00  0.00    +0.138 C 
ATOM     31  C   UNL     1      33.174  -6.599 -23.846  0.00  0.00    -0.000 C 
ATOM     32  C   UNL     1      32.198  -6.159 -21.270  0.00  0.00    +0.029 C 
ATOM     33  C   UNL     1      32.432  -5.451 -23.568  0.00  0.00    -0.000 C 
ATOM     34  C   UNL     1      31.944  -5.231 -22.281  0.00  0.00    +0.002 C 
ENDBRANCH  27  29
ENDBRANCH  24  27
ENDBRANCH  22  25
ENDBRANCH   3  22
TORSDOF 7
ENDMDL
MODEL 8
REMARK VINA RESULT:     -11.1      4.899     11.702
REMARK  Name = 656913
REMARK  7 active torsions:
REMARK  status: ('A' for Active; 'I' for Inactive)
REMARK    1  A    between atoms: N_3  and  C_22
REMARK    2  A    between atoms: N_4  and  C_11
REMARK    3  A    between atoms: C_11  and  C_14
REMARK    4  A    between atoms: C_14  and  C_17
REMARK    5  A    between atoms: C_22  and  C_25
REMARK    6  A    between atoms: N_24  and  C_27
REMARK    7  A    between atoms: C_27  and  C_29
REMARK                            x       y       z     vdW  Elec       q    Type
REMARK                         _______ _______ _______ _____ _____    ______ ____
ROOT
ATOM      1 CL   UNL     1      32.573 -20.551 -20.716  0.00  0.00    -0.064 Cl
ATOM      2  O   UNL     1      37.191 -21.619 -19.045  0.00  0.00    -0.266 OA
ATOM      3  N   UNL     1      35.051 -21.103 -19.855  0.00  0.00    -0.233 N 
ATOM      4  N   UNL     1      36.271 -22.822 -16.818  0.00  0.00    -0.310 N 
ATOM      5  N   UNL     1      34.086 -22.359 -17.529  0.00  0.00    -0.223 NA
ATOM      6  C   UNL     1      35.374 -22.298 -17.714  0.00  0.00    +0.183 C 
ATOM      7  C   UNL     1      35.970 -21.634 -18.949  0.00  0.00    +0.285 C 
ATOM      8  C   UNL     1      33.700 -21.207 -19.591  0.00  0.00    +0.133 C 
ATOM      9  C   UNL     1      33.272 -21.810 -18.477  0.00  0.00    +0.127 C 
ATOM     10  H   UNL     1      37.235 -22.747 -17.009  0.00  0.00    +0.149 HD
ENDROOT
BRANCH   4  11
ATOM     11  C   UNL     1      35.856 -23.473 -15.616  0.00  0.00    +0.162 C 
BRANCH  11  14
ATOM     12  F   UNL     1      38.165 -23.305 -15.226  0.00  0.00    -0.196 F 
ATOM     13  F   UNL     1      37.313 -25.296 -15.365  0.00  0.00    -0.196 F 
ATOM     14  C   UNL     1      37.068 -24.043 -14.880  0.00  0.00    +0.317 C 
BRANCH  14  17
ATOM     15  O   UNL     1      39.076 -24.544 -13.061  0.00  0.00    -0.163 OA
ATOM     16  N   UNL     1      37.917 -24.313 -12.582  0.00  0.00    -0.128 N 
ATOM     17  C   UNL     1      36.838 -24.049 -13.389  0.00  0.00    +0.142 C 
ATOM     18  C   UNL     1      35.577 -23.795 -12.882  0.00  0.00    +0.022 C 
ATOM     19  C   UNL     1      37.724 -24.323 -11.214  0.00  0.00    +0.121 C 
ATOM     20  C   UNL     1      35.395 -23.807 -11.503  0.00  0.00    +0.003 C 
ATOM     21  C   UNL     1      36.472 -24.072 -10.663  0.00  0.00    +0.022 C 
ENDBRANCH  14  17
ENDBRANCH  11  14
ENDBRANCH   4  11
BRANCH   3  22
ATOM     22  C   UNL     1      35.546 -20.449 -21.062  0.00  0.00    +0.184 C 
BRANCH  22  25
ATOM     23  O   UNL     1      36.991 -18.702 -20.226  0.00  0.00    -0.273 OA
ATOM     24  N   UNL     1      34.897 -18.139 -21.062  0.00  0.00    -0.299 N 
ATOM     25  C   UNL     1      35.922 -19.017 -20.744  0.00  0.00    +0.243 C 
ATOM     26  H   UNL     1      34.081 -18.504 -21.476  0.00  0.00    +0.150 HD
BRANCH  24  27
ATOM     27  C   UNL     1      34.967 -16.716 -20.818  0.00  0.00    +0.119 C 
BRANCH  27  29
ATOM     28  F   UNL     1      33.498 -14.313 -20.579  0.00  0.00    -0.204 F 
ATOM     29  C   UNL     1      34.509 -15.919 -22.006  0.00  0.00    +0.025 C 
ATOM     30  C   UNL     1      33.790 -14.745 -21.814  0.00  0.00    +0.138 C 
ATOM     31  C   UNL     1      34.810 -16.366 -23.287  0.00  0.00    -0.000 C 
ATOM     32  C   UNL     1      33.366 -14.007 -22.919  0.00  0.00    +0.029 C 
ATOM     33  C   UNL     1      34.386 -15.627 -24.391  0.00  0.00    -0.000 C 
ATOM     34  C   UNL     1      33.665 -14.449 -24.208  0.00  0.00    +0.002 C 
ENDBRANCH  27  29
ENDBRANCH  24  27
ENDBRANCH  22  25
ENDBRANCH   3  22
TORSDOF 7
ENDMDL
MODEL 9
REMARK VINA RESULT:     -11.1      5.136      8.461
REMARK  Name = 656913
REMARK  7 active torsions:
REMARK  status: ('A' for Active; 'I' for Inactive)
REMARK    1  A    between atoms: N_3  and  C_22
REMARK    2  A    between atoms: N_4  and  C_11
REMARK    3  A    between atoms: C_11  and  C_14
REMARK    4  A    between atoms: C_14  and  C_17
REMARK    5  A    between atoms: C_22  and  C_25
REMARK    6  A    between atoms: N_24  and  C_27
REMARK    7  A    between atoms: C_27  and  C_29
REMARK                            x       y       z     vdW  Elec       q    Type
REMARK                         _______ _______ _______ _____ _____    ______ ____
ROOT
ATOM      1 CL   UNL     1      36.452 -23.272 -15.763  0.00  0.00    -0.064 Cl
ATOM      2  O   UNL     1      33.623 -22.214 -19.780  0.00  0.00    -0.266 OA
ATOM      3  N   UNL     1      34.918 -22.733 -17.895  0.00  0.00    -0.233 N 
ATOM      4  N   UNL     1      35.292 -20.281 -20.635  0.00  0.00    -0.310 N 
ATOM      5  N   UNL     1      36.664 -20.714 -18.785  0.00  0.00    -0.223 NA
ATOM      6  C   UNL     1      35.595 -20.965 -19.485  0.00  0.00    +0.183 C 
ATOM      7  C   UNL     1      34.604 -22.042 -19.066  0.00  0.00    +0.285 C 
ATOM      8  C   UNL     1      36.071 -22.412 -17.206  0.00  0.00    +0.133 C 
ATOM      9  C   UNL     1      36.881 -21.448 -17.655  0.00  0.00    +0.127 C 
ATOM     10  H   UNL     1      34.469 -20.512 -21.125  0.00  0.00    +0.149 HD
ENDROOT
BRANCH   4  11
ATOM     11  C   UNL     1      36.131 -19.243 -21.148  0.00  0.00    +0.162 C 
BRANCH  11  14
ATOM     12  F   UNL     1      34.596 -19.584 -22.892  0.00  0.00    -0.196 F 
ATOM     13  F   UNL     1      36.563 -18.835 -23.418  0.00  0.00    -0.196 F 
ATOM     14  C   UNL     1      35.579 -18.730 -22.478  0.00  0.00    +0.317 C 
BRANCH  14  17
ATOM     15  O   UNL     1      34.930 -17.159 -24.646  0.00  0.00    -0.163 OA
ATOM     16  N   UNL     1      34.786 -16.630 -23.494  0.00  0.00    -0.128 N 
ATOM     17  C   UNL     1      35.076 -17.314 -22.340  0.00  0.00    +0.142 C 
ATOM     18  C   UNL     1      34.923 -16.753 -21.087  0.00  0.00    +0.022 C 
ATOM     19  C   UNL     1      34.325 -15.332 -23.387  0.00  0.00    +0.121 C 
ATOM     20  C   UNL     1      34.458 -15.445 -20.991  0.00  0.00    +0.003 C 
ATOM     21  C   UNL     1      34.156 -14.730 -22.145  0.00  0.00    +0.022 C 
ENDBRANCH  14  17
ENDBRANCH  11  14
ENDBRANCH   4  11
BRANCH   3  22
ATOM     22  C   UNL     1      34.015 -23.780 -17.428  0.00  0.00    +0.184 C 
BRANCH  22  25
ATOM     23  O   UNL     1      31.984 -22.489 -17.206  0.00  0.00    -0.273 OA
ATOM     24  N   UNL     1      32.972 -23.387 -15.303  0.00  0.00    -0.299 N 
ATOM     25  C   UNL     1      32.865 -23.155 -16.666  0.00  0.00    +0.243 C 
ATOM     26  H   UNL     1      33.722 -23.937 -14.980  0.00  0.00    +0.150 HD
BRANCH  24  27
ATOM     27  C   UNL     1      32.036 -22.863 -14.333  0.00  0.00    +0.119 C 
BRANCH  27  29
ATOM     28  F   UNL     1      31.246 -25.548 -13.937  0.00  0.00    -0.204 F 
ATOM     29  C   UNL     1      30.636 -23.346 -14.585  0.00  0.00    +0.025 C 
ATOM     30  C   UNL     1      30.318 -24.682 -14.368  0.00  0.00    +0.138 C 
ATOM     31  C   UNL     1      29.673 -22.450 -15.033  0.00  0.00    -0.000 C 
ATOM     32  C   UNL     1      29.018 -25.127 -14.603  0.00  0.00    +0.029 C 
ATOM     33  C   UNL     1      28.373 -22.896 -15.267  0.00  0.00    -0.000 C 
ATOM     34  C   UNL     1      28.045 -24.234 -15.052  0.00  0.00    +0.002 C 
ENDBRANCH  27  29
ENDBRANCH  24  27
ENDBRANCH  22  25
ENDBRANCH   3  22
TORSDOF 7
ENDMDL
