MODEL 1
REMARK VINA RESULT:     -11.0      0.000      0.000
REMARK  Name = 60195662
REMARK  7 active torsions:
REMARK  status: ('A' for Active; 'I' for Inactive)
REMARK    1  A    between atoms: N_2  and  C_14
REMARK    2  A    between atoms: N_2  and  C_23
REMARK    3  A    between atoms: C_3  and  C_5
REMARK    4  A    between atoms: C_14  and  C_17
REMARK    5  A    between atoms: C_23  and  C_24
REMARK    6  A    between atoms: C_27  and  C_31
REMARK    7  A    between atoms: C_31  and  O_32
REMARK                            x       y       z     vdW  Elec       q    Type
REMARK                         _______ _______ _______ _____ _____    ______ ____
ROOT
ATOM      1  O   UNL     1      33.196 -23.979 -17.230  0.00  0.00    -0.270 OA
ATOM      2  N   UNL     1      34.536 -23.257 -15.455  0.00  0.00    -0.270 N 
ATOM      3  C   UNL     1      34.110 -23.262 -16.798  0.00  0.00    +0.251 C 
ENDROOT
BRANCH   3   5
ATOM      4  N   UNL     1      36.817 -21.376 -18.544  0.00  0.00    -0.248 NA
ATOM      5  C   UNL     1      34.776 -22.394 -17.753  0.00  0.00    +0.072 C 
ATOM      6  C   UNL     1      34.069 -21.758 -18.762  0.00  0.00    +0.003 C 
ATOM      7  C   UNL     1      34.735 -20.925 -19.672  0.00  0.00    -0.004 C 
ATOM      8  C   UNL     1      36.136 -22.171 -17.687  0.00  0.00    +0.103 C 
ATOM      9  C   UNL     1      36.128 -20.760 -19.524  0.00  0.00    +0.060 C 
ATOM     10  C   UNL     1      34.048 -20.267 -20.706  0.00  0.00    +0.053 C 
ATOM     11  C   UNL     1      36.789 -19.932 -20.427  0.00  0.00    +0.071 C 
ATOM     12  C   UNL     1      34.734 -19.445 -21.596  0.00  0.00    -0.026 C 
ATOM     13  C   UNL     1      36.107 -19.277 -21.456  0.00  0.00    -0.024 C 
ENDBRANCH   3   5
BRANCH   2  14
ATOM     14  C   UNL     1      33.924 -24.114 -14.441  0.00  0.00    +0.099 C 
ATOM     15  C   UNL     1      34.445 -25.543 -14.577  0.00  0.00    +0.026 C 
BRANCH  14  17
ATOM     16  F   UNL     1      28.292 -23.838 -14.631  0.00  0.00    -0.204 F 
ATOM     17  C   UNL     1      32.414 -24.040 -14.491  0.00  0.00    -0.004 C 
ATOM     18  C   UNL     1      31.656 -25.210 -14.441  0.00  0.00    -0.000 C 
ATOM     19  C   UNL     1      31.779 -22.801 -14.589  0.00  0.00    -0.000 C 
ATOM     20  C   UNL     1      30.263 -25.142 -14.488  0.00  0.00    +0.029 C 
ATOM     21  C   UNL     1      30.386 -22.733 -14.636  0.00  0.00    +0.029 C 
ATOM     22  C   UNL     1      29.628 -23.903 -14.585  0.00  0.00    +0.140 C 
ENDBRANCH  14  17
ENDBRANCH   2  14
BRANCH   2  23
ATOM     23  C   UNL     1      35.615 -22.399 -14.989  0.00  0.00    +0.121 C 
BRANCH  23  24
ATOM     24  C   UNL     1      36.576 -23.136 -14.101  0.00  0.00    -0.002 C 
ATOM     25  C   UNL     1      37.660 -23.814 -14.660  0.00  0.00    +0.004 C 
ATOM     26  C   UNL     1      36.386 -23.142 -12.719  0.00  0.00    -0.003 C 
ATOM     27  C   UNL     1      38.554 -24.498 -13.835  0.00  0.00    +0.075 C 
ATOM     28  C   UNL     1      37.280 -23.826 -11.896  0.00  0.00    -0.000 C 
ATOM     29  C   UNL     1      38.364 -24.504 -12.453  0.00  0.00    +0.006 C 
BRANCH  27  31
ATOM     30  O   UNL     1      40.872 -25.002 -14.142  0.00  0.00    -0.245 OA
ATOM     31  C   UNL     1      39.685 -25.204 -14.416  0.00  0.00    +0.338 C 
BRANCH  31  32
ATOM     32  O   UNL     1      39.302 -26.143 -15.324  0.00  0.00    -0.477 OA
ATOM     33  H   UNL     1      39.906 -26.807 -15.595  0.00  0.00    +0.295 HD
ENDBRANCH  31  32
ENDBRANCH  27  31
ENDBRANCH  23  24
ENDBRANCH   2  23
TORSDOF 7
ENDMDL
MODEL 2
REMARK VINA RESULT:     -10.8      1.556      2.177
REMARK  Name = 60195662
REMARK  7 active torsions:
REMARK  status: ('A' for Active; 'I' for Inactive)
REMARK    1  A    between atoms: N_2  and  C_14
REMARK    2  A    between atoms: N_2  and  C_23
REMARK    3  A    between atoms: C_3  and  C_5
REMARK    4  A    between atoms: C_14  and  C_17
REMARK    5  A    between atoms: C_23  and  C_24
REMARK    6  A    between atoms: C_27  and  C_31
REMARK    7  A    between atoms: C_31  and  O_32
REMARK                            x       y       z     vdW  Elec       q    Type
REMARK                         _______ _______ _______ _____ _____    ______ ____
ROOT
ATOM      1  O   UNL     1      33.063 -23.758 -17.648  0.00  0.00    -0.270 OA
ATOM      2  N   UNL     1      34.382 -23.127 -15.823  0.00  0.00    -0.270 N 
ATOM      3  C   UNL     1      33.989 -23.083 -17.175  0.00  0.00    +0.251 C 
ENDROOT
BRANCH   3   5
ATOM      4  N   UNL     1      36.797 -21.237 -18.800  0.00  0.00    -0.248 NA
ATOM      5  C   UNL     1      34.707 -22.213 -18.090  0.00  0.00    +0.072 C 
ATOM      6  C   UNL     1      34.047 -21.533 -19.102  0.00  0.00    +0.003 C 
ATOM      7  C   UNL     1      34.762 -20.699 -19.973  0.00  0.00    -0.004 C 
ATOM      8  C   UNL     1      36.070 -22.032 -17.982  0.00  0.00    +0.103 C 
ATOM      9  C   UNL     1      36.154 -20.579 -19.783  0.00  0.00    +0.060 C 
ATOM     10  C   UNL     1      34.123 -19.997 -21.009  0.00  0.00    +0.053 C 
ATOM     11  C   UNL     1      36.864 -19.750 -20.648  0.00  0.00    +0.071 C 
ATOM     12  C   UNL     1      34.858 -19.174 -21.860  0.00  0.00    -0.026 C 
ATOM     13  C   UNL     1      36.230 -19.051 -21.678  0.00  0.00    -0.024 C 
ENDBRANCH   3   5
BRANCH   2  14
ATOM     14  C   UNL     1      33.718 -23.989 -14.847  0.00  0.00    +0.099 C 
ATOM     15  C   UNL     1      34.169 -25.436 -15.031  0.00  0.00    +0.026 C 
BRANCH  14  17
ATOM     16  F   UNL     1      28.108 -23.428 -15.072  0.00  0.00    -0.204 F 
ATOM     17  C   UNL     1      32.213 -23.838 -14.908  0.00  0.00    -0.004 C 
ATOM     18  C   UNL     1      31.629 -22.586 -14.717  0.00  0.00    -0.000 C 
ATOM     19  C   UNL     1      31.409 -24.953 -15.155  0.00  0.00    -0.000 C 
ATOM     20  C   UNL     1      30.242 -22.447 -14.772  0.00  0.00    +0.029 C 
ATOM     21  C   UNL     1      30.023 -24.813 -15.210  0.00  0.00    +0.029 C 
ATOM     22  C   UNL     1      29.439 -23.561 -15.019  0.00  0.00    +0.140 C 
ENDBRANCH  14  17
ENDBRANCH   2  14
BRANCH   2  23
ATOM     23  C   UNL     1      35.476 -22.317 -15.307  0.00  0.00    +0.121 C 
BRANCH  23  24
ATOM     24  C   UNL     1      36.410 -23.117 -14.445  0.00  0.00    -0.002 C 
ATOM     25  C   UNL     1      36.194 -23.193 -13.069  0.00  0.00    +0.004 C 
ATOM     26  C   UNL     1      37.490 -23.786 -15.020  0.00  0.00    -0.003 C 
ATOM     27  C   UNL     1      37.061 -23.937 -12.267  0.00  0.00    +0.075 C 
ATOM     28  C   UNL     1      38.356 -24.530 -14.218  0.00  0.00    -0.000 C 
ATOM     29  C   UNL     1      38.142 -24.605 -12.842  0.00  0.00    +0.006 C 
BRANCH  27  31
ATOM     30  O   UNL     1      36.280 -24.951 -10.246  0.00  0.00    -0.245 OA
ATOM     31  C   UNL     1      36.837 -24.017 -10.833  0.00  0.00    +0.338 C 
BRANCH  31  32
ATOM     32  O   UNL     1      37.314 -22.928 -10.170  0.00  0.00    -0.477 OA
ATOM     33  H   UNL     1      36.927 -22.668  -9.356  0.00  0.00    +0.295 HD
ENDBRANCH  31  32
ENDBRANCH  27  31
ENDBRANCH  23  24
ENDBRANCH   2  23
TORSDOF 7
ENDMDL
MODEL 3
REMARK VINA RESULT:     -10.7      2.864      6.455
REMARK  Name = 60195662
REMARK  7 active torsions:
REMARK  status: ('A' for Active; 'I' for Inactive)
REMARK    1  A    between atoms: N_2  and  C_14
REMARK    2  A    between atoms: N_2  and  C_23
REMARK    3  A    between atoms: C_3  and  C_5
REMARK    4  A    between atoms: C_14  and  C_17
REMARK    5  A    between atoms: C_23  and  C_24
REMARK    6  A    between atoms: C_27  and  C_31
REMARK    7  A    between atoms: C_31  and  O_32
REMARK                            x       y       z     vdW  Elec       q    Type
REMARK                         _______ _______ _______ _____ _____    ______ ____
ROOT
ATOM      1  O   UNL     1      35.559 -24.644 -15.781  0.00  0.00    -0.270 OA
ATOM      2  N   UNL     1      33.767 -23.749 -14.575  0.00  0.00    -0.270 N 
ATOM      3  C   UNL     1      34.586 -23.880 -15.714  0.00  0.00    +0.251 C 
ENDROOT
BRANCH   3   5
ATOM      4  N   UNL     1      32.674 -22.153 -18.415  0.00  0.00    -0.248 NA
ATOM      5  C   UNL     1      34.300 -23.070 -16.885  0.00  0.00    +0.072 C 
ATOM      6  C   UNL     1      35.316 -22.446 -17.593  0.00  0.00    +0.003 C 
ATOM      7  C   UNL     1      35.015 -21.669 -18.720  0.00  0.00    -0.004 C 
ATOM      8  C   UNL     1      33.008 -22.894 -17.334  0.00  0.00    +0.103 C 
ATOM      9  C   UNL     1      33.663 -21.548 -19.101  0.00  0.00    +0.060 C 
ATOM     10  C   UNL     1      36.022 -21.023 -19.459  0.00  0.00    +0.053 C 
ATOM     11  C   UNL     1      33.365 -20.777 -20.221  0.00  0.00    +0.071 C 
ATOM     12  C   UNL     1      35.695 -20.258 -20.575  0.00  0.00    -0.026 C 
ATOM     13  C   UNL     1      34.364 -20.134 -20.956  0.00  0.00    -0.024 C 
ENDBRANCH   3   5
BRANCH   2  14
ATOM     14  C   UNL     1      34.001 -24.519 -13.355  0.00  0.00    +0.099 C 
ATOM     15  C   UNL     1      33.061 -24.048 -12.248  0.00  0.00    +0.026 C 
BRANCH  14  17
ATOM     16  F   UNL     1      39.424 -24.341 -11.806  0.00  0.00    -0.204 F 
ATOM     17  C   UNL     1      35.456 -24.471 -12.940  0.00  0.00    -0.004 C 
ATOM     18  C   UNL     1      36.216 -25.640 -12.925  0.00  0.00    -0.000 C 
ATOM     19  C   UNL     1      36.037 -23.257 -12.572  0.00  0.00    -0.000 C 
ATOM     20  C   UNL     1      37.556 -25.597 -12.543  0.00  0.00    +0.029 C 
ATOM     21  C   UNL     1      37.377 -23.213 -12.189  0.00  0.00    +0.029 C 
ATOM     22  C   UNL     1      38.137 -24.383 -12.174  0.00  0.00    +0.140 C 
ENDBRANCH  14  17
ENDBRANCH   2  14
BRANCH   2  23
ATOM     23  C   UNL     1      32.632 -22.838 -14.538  0.00  0.00    +0.121 C 
BRANCH  23  24
ATOM     24  C   UNL     1      31.339 -23.538 -14.842  0.00  0.00    -0.002 C 
ATOM     25  C   UNL     1      30.347 -22.882 -15.570  0.00  0.00    +0.004 C 
ATOM     26  C   UNL     1      31.130 -24.843 -14.397  0.00  0.00    -0.003 C 
ATOM     27  C   UNL     1      29.145 -23.532 -15.854  0.00  0.00    +0.075 C 
ATOM     28  C   UNL     1      29.929 -25.493 -14.680  0.00  0.00    -0.000 C 
ATOM     29  C   UNL     1      28.936 -24.837 -15.409  0.00  0.00    +0.006 C 
BRANCH  27  31
ATOM     30  O   UNL     1      27.654 -21.730 -16.358  0.00  0.00    -0.245 OA
ATOM     31  C   UNL     1      28.110 -22.850 -16.614  0.00  0.00    +0.338 C 
BRANCH  31  32
ATOM     32  O   UNL     1      27.674 -23.583 -17.674  0.00  0.00    -0.477 OA
ATOM     33  H   UNL     1      26.762 -23.591 -17.895  0.00  0.00    +0.295 HD
ENDBRANCH  31  32
ENDBRANCH  27  31
ENDBRANCH  23  24
ENDBRANCH   2  23
TORSDOF 7
ENDMDL
MODEL 4
REMARK VINA RESULT:      -9.7     11.420     15.399
REMARK  Name = 60195662
REMARK  7 active torsions:
REMARK  status: ('A' for Active; 'I' for Inactive)
REMARK    1  A    between atoms: N_2  and  C_14
REMARK    2  A    between atoms: N_2  and  C_23
REMARK    3  A    between atoms: C_3  and  C_5
REMARK    4  A    between atoms: C_14  and  C_17
REMARK    5  A    between atoms: C_23  and  C_24
REMARK    6  A    between atoms: C_27  and  C_31
REMARK    7  A    between atoms: C_31  and  O_32
REMARK                            x       y       z     vdW  Elec       q    Type
REMARK                         _______ _______ _______ _____ _____    ______ ____
ROOT
ATOM      1  O   UNL     1      35.451  -9.584 -23.787  0.00  0.00    -0.270 OA
ATOM      2  N   UNL     1      33.257  -9.514 -22.982  0.00  0.00    -0.270 N 
ATOM      3  C   UNL     1      34.347 -10.127 -23.629  0.00  0.00    +0.251 C 
ENDROOT
BRANCH   3   5
ATOM      4  N   UNL     1      33.469 -12.899 -25.970  0.00  0.00    -0.248 NA
ATOM      5  C   UNL     1      34.188 -11.467 -24.164  0.00  0.00    +0.072 C 
ATOM      6  C   UNL     1      34.574 -12.583 -23.436  0.00  0.00    +0.003 C 
ATOM      7  C   UNL     1      34.410 -13.867 -23.974  0.00  0.00    -0.004 C 
ATOM      8  C   UNL     1      33.645 -11.677 -25.415  0.00  0.00    +0.103 C 
ATOM      9  C   UNL     1      33.846 -13.980 -25.261  0.00  0.00    +0.060 C 
ATOM     10  C   UNL     1      34.791 -15.017 -23.262  0.00  0.00    +0.053 C 
ATOM     11  C   UNL     1      33.682 -15.255 -25.795  0.00  0.00    +0.071 C 
ATOM     12  C   UNL     1      34.616 -16.281 -23.820  0.00  0.00    -0.026 C 
ATOM     13  C   UNL     1      34.061 -16.400 -25.088  0.00  0.00    -0.024 C 
ENDBRANCH   3   5
BRANCH   2  14
ATOM     14  C   UNL     1      33.337  -8.162 -22.433  0.00  0.00    +0.099 C 
ATOM     15  C   UNL     1      32.059  -7.829 -21.666  0.00  0.00    +0.026 C 
BRANCH  14  17
ATOM     16  F   UNL     1      34.501  -4.366 -26.442  0.00  0.00    -0.204 F 
ATOM     17  C   UNL     1      33.649  -7.144 -23.509  0.00  0.00    -0.004 C 
ATOM     18  C   UNL     1      34.975  -6.819 -23.798  0.00  0.00    -0.000 C 
ATOM     19  C   UNL     1      32.611  -6.530 -24.211  0.00  0.00    -0.000 C 
ATOM     20  C   UNL     1      35.263  -5.881 -24.789  0.00  0.00    +0.029 C 
ATOM     21  C   UNL     1      32.899  -5.592 -25.202  0.00  0.00    +0.029 C 
ATOM     22  C   UNL     1      34.225  -5.266 -25.491  0.00  0.00    +0.140 C 
ENDBRANCH  14  17
ENDBRANCH   2  14
BRANCH   2  23
ATOM     23  C   UNL     1      31.976 -10.186 -22.818  0.00  0.00    +0.121 C 
BRANCH  23  24
ATOM     24  C   UNL     1      31.910 -10.964 -21.535  0.00  0.00    -0.002 C 
ATOM     25  C   UNL     1      32.406 -12.267 -21.484  0.00  0.00    +0.004 C 
ATOM     26  C   UNL     1      31.356 -10.383 -20.395  0.00  0.00    -0.003 C 
ATOM     27  C   UNL     1      32.345 -12.990 -20.292  0.00  0.00    +0.075 C 
ATOM     28  C   UNL     1      31.296 -11.106 -19.203  0.00  0.00    -0.000 C 
ATOM     29  C   UNL     1      31.791 -12.409 -19.152  0.00  0.00    +0.006 C 
BRANCH  27  31
ATOM     30  O   UNL     1      34.058 -14.659 -20.232  0.00  0.00    -0.245 OA
ATOM     31  C   UNL     1      32.862 -14.347 -20.238  0.00  0.00    +0.338 C 
BRANCH  31  32
ATOM     32  O   UNL     1      31.872 -15.281 -20.193  0.00  0.00    -0.477 OA
ATOM     33  H   UNL     1      31.000 -15.028 -19.961  0.00  0.00    +0.295 HD
ENDBRANCH  31  32
ENDBRANCH  27  31
ENDBRANCH  23  24
ENDBRANCH   2  23
TORSDOF 7
ENDMDL
MODEL 5
REMARK VINA RESULT:      -9.7      3.737      7.058
REMARK  Name = 60195662
REMARK  7 active torsions:
REMARK  status: ('A' for Active; 'I' for Inactive)
REMARK    1  A    between atoms: N_2  and  C_14
REMARK    2  A    between atoms: N_2  and  C_23
REMARK    3  A    between atoms: C_3  and  C_5
REMARK    4  A    between atoms: C_14  and  C_17
REMARK    5  A    between atoms: C_23  and  C_24
REMARK    6  A    between atoms: C_27  and  C_31
REMARK    7  A    between atoms: C_31  and  O_32
REMARK                            x       y       z     vdW  Elec       q    Type
REMARK                         _______ _______ _______ _____ _____    ______ ____
ROOT
ATOM      1  O   UNL     1      33.957 -23.564 -11.271  0.00  0.00    -0.270 OA
ATOM      2  N   UNL     1      35.342 -24.471 -12.922  0.00  0.00    -0.270 N 
ATOM      3  C   UNL     1      34.100 -24.061 -12.398  0.00  0.00    +0.251 C 
ENDROOT
BRANCH   3   5
ATOM      4  N   UNL     1      31.150 -25.683 -14.009  0.00  0.00    -0.248 NA
ATOM      5  C   UNL     1      32.903 -24.234 -13.201  0.00  0.00    +0.072 C 
ATOM      6  C   UNL     1      32.359 -23.178 -13.917  0.00  0.00    +0.003 C 
ATOM      7  C   UNL     1      31.202 -23.371 -14.685  0.00  0.00    -0.004 C 
ATOM      8  C   UNL     1      32.267 -25.456 -13.281  0.00  0.00    +0.103 C 
ATOM      9  C   UNL     1      30.623 -24.657 -14.703  0.00  0.00    +0.060 C 
ATOM     10  C   UNL     1      30.625 -22.322 -15.421  0.00  0.00    +0.053 C 
ATOM     11  C   UNL     1      29.475 -24.847 -15.467  0.00  0.00    +0.071 C 
ATOM     12  C   UNL     1      29.476 -22.540 -16.177  0.00  0.00    -0.026 C 
ATOM     13  C   UNL     1      28.900 -23.805 -16.199  0.00  0.00    -0.024 C 
ENDBRANCH   3   5
BRANCH   2  14
ATOM     14  C   UNL     1      36.587 -24.343 -12.167  0.00  0.00    +0.099 C 
ATOM     15  C   UNL     1      36.884 -22.871 -11.890  0.00  0.00    +0.026 C 
BRANCH  14  17
ATOM     16  F   UNL     1      40.858 -26.963 -14.761  0.00  0.00    -0.204 F 
ATOM     17  C   UNL     1      37.732 -25.045 -12.864  0.00  0.00    -0.004 C 
ATOM     18  C   UNL     1      37.546 -26.320 -13.400  0.00  0.00    -0.000 C 
ATOM     19  C   UNL     1      38.975 -24.419 -12.968  0.00  0.00    -0.000 C 
ATOM     20  C   UNL     1      38.602 -26.968 -14.041  0.00  0.00    +0.029 C 
ATOM     21  C   UNL     1      40.030 -25.067 -13.610  0.00  0.00    +0.029 C 
ATOM     22  C   UNL     1      39.844 -26.341 -14.146  0.00  0.00    +0.140 C 
ENDBRANCH  14  17
ENDBRANCH   2  14
BRANCH   2  23
ATOM     23  C   UNL     1      35.467 -25.051 -14.251  0.00  0.00    +0.121 C 
BRANCH  23  24
ATOM     24  C   UNL     1      35.558 -23.997 -15.318  0.00  0.00    -0.002 C 
ATOM     25  C   UNL     1      34.560 -23.900 -16.287  0.00  0.00    +0.004 C 
ATOM     26  C   UNL     1      36.638 -23.115 -15.338  0.00  0.00    -0.003 C 
ATOM     27  C   UNL     1      34.643 -22.920 -17.278  0.00  0.00    +0.075 C 
ATOM     28  C   UNL     1      36.720 -22.136 -16.327  0.00  0.00    -0.000 C 
ATOM     29  C   UNL     1      35.723 -22.039 -17.298  0.00  0.00    +0.006 C 
BRANCH  27  31
ATOM     30  O   UNL     1      32.639 -22.045 -18.249  0.00  0.00    -0.245 OA
ATOM     31  C   UNL     1      33.603 -22.818 -18.289  0.00  0.00    +0.338 C 
BRANCH  31  32
ATOM     32  O   UNL     1      33.793 -23.684 -19.322  0.00  0.00    -0.477 OA
ATOM     33  H   UNL     1      33.553 -24.585 -19.228  0.00  0.00    +0.295 HD
ENDBRANCH  31  32
ENDBRANCH  27  31
ENDBRANCH  23  24
ENDBRANCH   2  23
TORSDOF 7
ENDMDL
MODEL 6
REMARK VINA RESULT:      -9.5      2.955      5.945
REMARK  Name = 60195662
REMARK  7 active torsions:
REMARK  status: ('A' for Active; 'I' for Inactive)
REMARK    1  A    between atoms: N_2  and  C_14
REMARK    2  A    between atoms: N_2  and  C_23
REMARK    3  A    between atoms: C_3  and  C_5
REMARK    4  A    between atoms: C_14  and  C_17
REMARK    5  A    between atoms: C_23  and  C_24
REMARK    6  A    between atoms: C_27  and  C_31
REMARK    7  A    between atoms: C_31  and  O_32
REMARK                            x       y       z     vdW  Elec       q    Type
REMARK                         _______ _______ _______ _____ _____    ______ ____
ROOT
ATOM      1  O   UNL     1      36.879 -22.432 -15.126  0.00  0.00    -0.270 OA
ATOM      2  N   UNL     1      35.083 -23.859 -15.577  0.00  0.00    -0.270 N 
ATOM      3  C   UNL     1      35.982 -22.820 -15.888  0.00  0.00    +0.251 C 
ENDROOT
BRANCH   3   5
ATOM      4  N   UNL     1      36.926 -21.026 -19.022  0.00  0.00    -0.248 NA
ATOM      5  C   UNL     1      35.859 -22.141 -17.165  0.00  0.00    +0.072 C 
ATOM      6  C   UNL     1      34.622 -21.944 -17.760  0.00  0.00    +0.003 C 
ATOM      7  C   UNL     1      34.530 -21.286 -18.994  0.00  0.00    -0.004 C 
ATOM      8  C   UNL     1      36.971 -21.666 -17.831  0.00  0.00    +0.103 C 
ATOM      9  C   UNL     1      35.723 -20.837 -19.597  0.00  0.00    +0.060 C 
ATOM     10  C   UNL     1      33.292 -21.071 -19.623  0.00  0.00    +0.053 C 
ATOM     11  C   UNL     1      35.631 -20.182 -20.822  0.00  0.00    +0.071 C 
ATOM     12  C   UNL     1      33.229 -20.413 -20.849  0.00  0.00    -0.026 C 
ATOM     13  C   UNL     1      34.401 -19.968 -21.449  0.00  0.00    -0.024 C 
ENDBRANCH   3   5
BRANCH   2  14
ATOM     14  C   UNL     1      35.134 -24.578 -14.305  0.00  0.00    +0.099 C 
ATOM     15  C   UNL     1      34.550 -23.715 -13.189  0.00  0.00    +0.026 C 
BRANCH  14  17
ATOM     16  F   UNL     1      40.360 -26.366 -13.150  0.00  0.00    -0.204 F 
ATOM     17  C   UNL     1      36.536 -25.057 -13.996  0.00  0.00    -0.004 C 
ATOM     18  C   UNL     1      37.148 -26.004 -14.819  0.00  0.00    -0.000 C 
ATOM     19  C   UNL     1      37.217 -24.553 -12.887  0.00  0.00    -0.000 C 
ATOM     20  C   UNL     1      38.439 -26.446 -14.534  0.00  0.00    +0.029 C 
ATOM     21  C   UNL     1      38.509 -24.995 -12.602  0.00  0.00    +0.029 C 
ATOM     22  C   UNL     1      39.120 -25.942 -13.425  0.00  0.00    +0.140 C 
ENDBRANCH  14  17
ENDBRANCH   2  14
BRANCH   2  23
ATOM     23  C   UNL     1      34.042 -24.285 -16.501  0.00  0.00    +0.121 C 
BRANCH  23  24
ATOM     24  C   UNL     1      32.674 -23.873 -16.036  0.00  0.00    -0.002 C 
ATOM     25  C   UNL     1      32.075 -24.532 -14.963  0.00  0.00    +0.004 C 
ATOM     26  C   UNL     1      32.005 -22.830 -16.676  0.00  0.00    -0.003 C 
ATOM     27  C   UNL     1      30.805 -24.148 -14.531  0.00  0.00    +0.075 C 
ATOM     28  C   UNL     1      30.736 -22.446 -16.244  0.00  0.00    -0.000 C 
ATOM     29  C   UNL     1      30.136 -23.106 -15.171  0.00  0.00    +0.006 C 
BRANCH  27  31
ATOM     30  O   UNL     1      30.522 -24.734 -12.228  0.00  0.00    -0.245 OA
ATOM     31  C   UNL     1      30.180 -24.835 -13.412  0.00  0.00    +0.338 C 
BRANCH  31  32
ATOM     32  O   UNL     1      29.144 -25.628 -13.799  0.00  0.00    -0.477 OA
ATOM     33  H   UNL     1      28.471 -25.854 -13.187  0.00  0.00    +0.295 HD
ENDBRANCH  31  32
ENDBRANCH  27  31
ENDBRANCH  23  24
ENDBRANCH   2  23
TORSDOF 7
ENDMDL
MODEL 7
REMARK VINA RESULT:      -9.3      3.527      6.826
REMARK  Name = 60195662
REMARK  7 active torsions:
REMARK  status: ('A' for Active; 'I' for Inactive)
REMARK    1  A    between atoms: N_2  and  C_14
REMARK    2  A    between atoms: N_2  and  C_23
REMARK    3  A    between atoms: C_3  and  C_5
REMARK    4  A    between atoms: C_14  and  C_17
REMARK    5  A    between atoms: C_23  and  C_24
REMARK    6  A    between atoms: C_27  and  C_31
REMARK    7  A    between atoms: C_31  and  O_32
REMARK                            x       y       z     vdW  Elec       q    Type
REMARK                         _______ _______ _______ _____ _____    ______ ____
ROOT
ATOM      1  O   UNL     1      33.745 -23.457 -11.516  0.00  0.00    -0.270 OA
ATOM      2  N   UNL     1      35.055 -24.474 -13.164  0.00  0.00    -0.270 N 
ATOM      3  C   UNL     1      33.840 -24.012 -12.620  0.00  0.00    +0.251 C 
ENDROOT
BRANCH   3   5
ATOM      4  N   UNL     1      30.849 -25.671 -14.113  0.00  0.00    -0.248 NA
ATOM      5  C   UNL     1      32.614 -24.200 -13.374  0.00  0.00    +0.072 C 
ATOM      6  C   UNL     1      32.025 -23.150 -14.063  0.00  0.00    +0.003 C 
ATOM      7  C   UNL     1      30.840 -23.357 -14.783  0.00  0.00    -0.004 C 
ATOM      8  C   UNL     1      31.992 -25.430 -13.431  0.00  0.00    +0.103 C 
ATOM      9  C   UNL     1      30.279 -24.651 -14.781  0.00  0.00    +0.060 C 
ATOM     10  C   UNL     1      30.219 -22.314 -15.492  0.00  0.00    +0.053 C 
ATOM     11  C   UNL     1      29.103 -24.855 -15.497  0.00  0.00    +0.071 C 
ATOM     12  C   UNL     1      29.042 -22.547 -16.200  0.00  0.00    -0.026 C 
ATOM     13  C   UNL     1      28.484 -23.820 -16.202  0.00  0.00    -0.024 C 
ENDBRANCH   3   5
BRANCH   2  14
ATOM     14  C   UNL     1      36.327 -24.334 -12.458  0.00  0.00    +0.099 C 
ATOM     15  C   UNL     1      36.556 -22.874 -12.071  0.00  0.00    +0.026 C 
BRANCH  14  17
ATOM     16  F   UNL     1      40.602 -26.475 -15.455  0.00  0.00    -0.204 F 
ATOM     17  C   UNL     1      37.473 -24.908 -13.262  0.00  0.00    -0.004 C 
ATOM     18  C   UNL     1      37.671 -26.289 -13.307  0.00  0.00    -0.000 C 
ATOM     19  C   UNL     1      38.333 -24.057 -13.958  0.00  0.00    -0.000 C 
ATOM     20  C   UNL     1      38.728 -26.818 -14.048  0.00  0.00    +0.029 C 
ATOM     21  C   UNL     1      39.389 -24.587 -14.699  0.00  0.00    +0.029 C 
ATOM     22  C   UNL     1      39.587 -25.967 -14.744  0.00  0.00    +0.140 C 
ENDBRANCH  14  17
ENDBRANCH   2  14
BRANCH   2  23
ATOM     23  C   UNL     1      35.124 -25.122 -14.465  0.00  0.00    +0.121 C 
BRANCH  23  24
ATOM     24  C   UNL     1      35.009 -24.134 -15.592  0.00  0.00    -0.002 C 
ATOM     25  C   UNL     1      36.049 -23.240 -15.842  0.00  0.00    +0.004 C 
ATOM     26  C   UNL     1      33.863 -24.114 -16.387  0.00  0.00    -0.003 C 
ATOM     27  C   UNL     1      35.942 -22.323 -16.889  0.00  0.00    +0.075 C 
ATOM     28  C   UNL     1      33.758 -23.198 -17.434  0.00  0.00    -0.000 C 
ATOM     29  C   UNL     1      34.797 -22.303 -17.685  0.00  0.00    +0.006 C 
BRANCH  27  31
ATOM     30  O   UNL     1      37.941 -21.116 -16.367  0.00  0.00    -0.245 OA
ATOM     31  C   UNL     1      37.027 -21.390 -17.152  0.00  0.00    +0.338 C 
BRANCH  31  32
ATOM     32  O   UNL     1      36.941 -20.826 -18.387  0.00  0.00    -0.477 OA
ATOM     33  H   UNL     1      36.283 -21.114 -18.990  0.00  0.00    +0.295 HD
ENDBRANCH  31  32
ENDBRANCH  27  31
ENDBRANCH  23  24
ENDBRANCH   2  23
TORSDOF 7
ENDMDL
MODEL 8
REMARK VINA RESULT:      -9.1      3.165      7.440
REMARK  Name = 60195662
REMARK  7 active torsions:
REMARK  status: ('A' for Active; 'I' for Inactive)
REMARK    1  A    between atoms: N_2  and  C_14
REMARK    2  A    between atoms: N_2  and  C_23
REMARK    3  A    between atoms: C_3  and  C_5
REMARK    4  A    between atoms: C_14  and  C_17
REMARK    5  A    between atoms: C_23  and  C_24
REMARK    6  A    between atoms: C_27  and  C_31
REMARK    7  A    between atoms: C_31  and  O_32
REMARK                            x       y       z     vdW  Elec       q    Type
REMARK                         _______ _______ _______ _____ _____    ______ ____
ROOT
ATOM      1  O   UNL     1      35.132 -22.591 -12.990  0.00  0.00    -0.270 OA
ATOM      2  N   UNL     1      35.719 -23.312 -15.136  0.00  0.00    -0.270 N 
ATOM      3  C   UNL     1      34.835 -23.161 -14.050  0.00  0.00    +0.251 C 
ENDROOT
BRANCH   3   5
ATOM      4  N   UNL     1      31.994 -25.570 -13.794  0.00  0.00    -0.248 NA
ATOM      5  C   UNL     1      33.495 -23.713 -14.150  0.00  0.00    +0.072 C 
ATOM      6  C   UNL     1      32.448 -22.968 -14.671  0.00  0.00    +0.003 C 
ATOM      7  C   UNL     1      31.163 -23.523 -14.756  0.00  0.00    -0.004 C 
ATOM      8  C   UNL     1      33.219 -24.997 -13.730  0.00  0.00    +0.103 C 
ATOM      9  C   UNL     1      30.980 -24.845 -14.301  0.00  0.00    +0.060 C 
ATOM     10  C   UNL     1      30.081 -22.794 -15.279  0.00  0.00    +0.053 C 
ATOM     11  C   UNL     1      29.704 -25.395 -14.387  0.00  0.00    +0.071 C 
ATOM     12  C   UNL     1      28.815 -23.370 -15.353  0.00  0.00    -0.026 C 
ATOM     13  C   UNL     1      28.627 -24.672 -14.906  0.00  0.00    -0.024 C 
ENDBRANCH   3   5
BRANCH   2  14
ATOM     14  C   UNL     1      37.087 -22.797 -15.103  0.00  0.00    +0.099 C 
ATOM     15  C   UNL     1      37.466 -22.226 -16.467  0.00  0.00    +0.026 C 
BRANCH  14  17
ATOM     16  F   UNL     1      40.725 -26.722 -13.314  0.00  0.00    -0.204 F 
ATOM     17  C   UNL     1      38.063 -23.849 -14.623  0.00  0.00    -0.004 C 
ATOM     18  C   UNL     1      39.170 -24.182 -15.403  0.00  0.00    -0.000 C 
ATOM     19  C   UNL     1      37.855 -24.488 -13.399  0.00  0.00    -0.000 C 
ATOM     20  C   UNL     1      40.070 -25.152 -14.961  0.00  0.00    +0.029 C 
ATOM     21  C   UNL     1      38.755 -25.458 -12.957  0.00  0.00    +0.029 C 
ATOM     22  C   UNL     1      39.862 -25.790 -13.738  0.00  0.00    +0.140 C 
ENDBRANCH  14  17
ENDBRANCH   2  14
BRANCH   2  23
ATOM     23  C   UNL     1      35.330 -23.990 -16.363  0.00  0.00    +0.121 C 
BRANCH  23  24
ATOM     24  C   UNL     1      34.699 -23.049 -17.350  0.00  0.00    -0.002 C 
ATOM     25  C   UNL     1      35.504 -22.284 -18.194  0.00  0.00    +0.004 C 
ATOM     26  C   UNL     1      33.311 -22.942 -17.423  0.00  0.00    -0.003 C 
ATOM     27  C   UNL     1      34.918 -21.411 -19.112  0.00  0.00    +0.075 C 
ATOM     28  C   UNL     1      32.726 -22.069 -18.340  0.00  0.00    -0.000 C 
ATOM     29  C   UNL     1      33.530 -21.303 -19.185  0.00  0.00    +0.006 C 
BRANCH  27  31
ATOM     30  O   UNL     1      36.939 -20.322 -19.787  0.00  0.00    -0.245 OA
ATOM     31  C   UNL     1      35.756 -20.613 -19.993  0.00  0.00    +0.338 C 
BRANCH  31  32
ATOM     32  O   UNL     1      35.095 -20.202 -21.109  0.00  0.00    -0.477 OA
ATOM     33  H   UNL     1      34.188 -19.971 -21.059  0.00  0.00    +0.295 HD
ENDBRANCH  31  32
ENDBRANCH  27  31
ENDBRANCH  23  24
ENDBRANCH   2  23
TORSDOF 7
ENDMDL
MODEL 9
REMARK VINA RESULT:      -9.0      2.406      6.042
REMARK  Name = 60195662
REMARK  7 active torsions:
REMARK  status: ('A' for Active; 'I' for Inactive)
REMARK    1  A    between atoms: N_2  and  C_14
REMARK    2  A    between atoms: N_2  and  C_23
REMARK    3  A    between atoms: C_3  and  C_5
REMARK    4  A    between atoms: C_14  and  C_17
REMARK    5  A    between atoms: C_23  and  C_24
REMARK    6  A    between atoms: C_27  and  C_31
REMARK    7  A    between atoms: C_31  and  O_32
REMARK                            x       y       z     vdW  Elec       q    Type
REMARK                         _______ _______ _______ _____ _____    ______ ____
ROOT
ATOM      1  O   UNL     1      34.199 -23.573 -18.459  0.00  0.00    -0.270 OA
ATOM      2  N   UNL     1      35.419 -22.555 -16.743  0.00  0.00    -0.270 N 
ATOM      3  C   UNL     1      34.303 -23.234 -17.271  0.00  0.00    +0.251 C 
ENDROOT
BRANCH   3   5
ATOM      4  N   UNL     1      32.387 -24.626 -14.386  0.00  0.00    -0.248 NA
ATOM      5  C   UNL     1      33.192 -23.554 -16.394  0.00  0.00    +0.072 C 
ATOM      6  C   UNL     1      31.903 -23.127 -16.680  0.00  0.00    +0.003 C 
ATOM      7  C   UNL     1      30.847 -23.448 -15.816  0.00  0.00    -0.004 C 
ATOM      8  C   UNL     1      33.379 -24.295 -15.245  0.00  0.00    +0.103 C 
ATOM      9  C   UNL     1      31.138 -24.210 -14.666  0.00  0.00    +0.060 C 
ATOM     10  C   UNL     1      29.531 -23.031 -16.078  0.00  0.00    +0.053 C 
ATOM     11  C   UNL     1      30.088 -24.530 -13.810  0.00  0.00    +0.071 C 
ATOM     12  C   UNL     1      28.499 -23.364 -15.203  0.00  0.00    -0.026 C 
ATOM     13  C   UNL     1      28.779 -24.115 -14.068  0.00  0.00    -0.024 C 
ENDBRANCH   3   5
BRANCH   2  14
ATOM     14  C   UNL     1      36.568 -22.186 -17.568  0.00  0.00    +0.099 C 
ATOM     15  C   UNL     1      37.624 -21.487 -16.715  0.00  0.00    +0.026 C 
BRANCH  14  17
ATOM     16  F   UNL     1      35.005 -19.109 -22.031  0.00  0.00    -0.204 F 
ATOM     17  C   UNL     1      36.148 -21.360 -18.765  0.00  0.00    -0.004 C 
ATOM     18  C   UNL     1      34.808 -21.319 -19.149  0.00  0.00    -0.000 C 
ATOM     19  C   UNL     1      37.103 -20.641 -19.485  0.00  0.00    -0.000 C 
ATOM     20  C   UNL     1      34.421 -20.558 -20.252  0.00  0.00    +0.029 C 
ATOM     21  C   UNL     1      36.716 -19.880 -20.588  0.00  0.00    +0.029 C 
ATOM     22  C   UNL     1      35.376 -19.839 -20.972  0.00  0.00    +0.140 C 
ENDBRANCH  14  17
ENDBRANCH   2  14
BRANCH   2  23
ATOM     23  C   UNL     1      35.501 -22.175 -15.341  0.00  0.00    +0.121 C 
BRANCH  23  24
ATOM     24  C   UNL     1      36.282 -23.172 -14.533  0.00  0.00    -0.002 C 
ATOM     25  C   UNL     1      36.527 -24.445 -15.047  0.00  0.00    +0.004 C 
ATOM     26  C   UNL     1      36.764 -22.824 -13.271  0.00  0.00    -0.003 C 
ATOM     27  C   UNL     1      37.255 -25.371 -14.297  0.00  0.00    +0.075 C 
ATOM     28  C   UNL     1      37.490 -23.749 -12.522  0.00  0.00    -0.000 C 
ATOM     29  C   UNL     1      37.736 -25.023 -13.035  0.00  0.00    +0.006 C 
BRANCH  27  31
ATOM     30  O   UNL     1      38.391 -27.471 -14.439  0.00  0.00    -0.245 OA
ATOM     31  C   UNL     1      37.511 -26.698 -14.832  0.00  0.00    +0.338 C 
BRANCH  31  32
ATOM     32  O   UNL     1      36.661 -27.026 -15.843  0.00  0.00    -0.477 OA
ATOM     33  H   UNL     1      35.926 -26.477 -16.034  0.00  0.00    +0.295 HD
ENDBRANCH  31  32
ENDBRANCH  27  31
ENDBRANCH  23  24
ENDBRANCH   2  23
TORSDOF 7
ENDMDL
