MODEL 1
REMARK VINA RESULT:     -12.3      0.000      0.000
REMARK  Name = 10157080
REMARK  5 active torsions:
REMARK  status: ('A' for Active; 'I' for Inactive)
REMARK    1  A    between atoms: C_3  and  O_8
REMARK    2  A    between atoms: C_6  and  O_18
REMARK    3  A    between atoms: O_8  and  C_13
REMARK    4  A    between atoms: O_18  and  C_20
REMARK    5  A    between atoms: C_19  and  N_25
REMARK                            x       y       z     vdW  Elec       q    Type
REMARK                         _______ _______ _______ _____ _____    ______ ____
ROOT
ATOM      1  N   UNL     1      34.549 -23.156 -16.537  0.00  0.00    -0.277 NA
ATOM      2  N   UNL     1      32.194 -23.169 -17.051  0.00  0.00    -0.319 NA
ATOM      3  C   UNL     1      34.215 -23.057 -15.240  0.00  0.00    +0.278 C 
ATOM      4  C   UNL     1      32.927 -23.008 -14.764  0.00  0.00    +0.156 C 
ATOM      5  C   UNL     1      31.943 -23.069 -15.729  0.00  0.00    +0.113 C 
ATOM      6  C   UNL     1      33.500 -23.207 -17.379  0.00  0.00    +0.317 C 
ATOM      7  C   UNL     1      30.509 -23.023 -15.320  0.00  0.00    +0.063 C 
ENDROOT
BRANCH   3   8
ATOM      8  O   UNL     1      35.260 -23.005 -14.335  0.00  0.00    -0.429 OA
BRANCH   8  13
ATOM      9  O   UNL     1      39.792 -24.647 -14.194  0.00  0.00    -0.435 OA
ATOM     10  O   UNL     1      39.066 -26.926 -14.490  0.00  0.00    -0.435 OA
ATOM     11  C   UNL     1      38.439 -24.749 -14.300  0.00  0.00    +0.179 C 
ATOM     12  C   UNL     1      38.024 -26.050 -14.468  0.00  0.00    +0.177 C 
ATOM     13  C   UNL     1      36.184 -24.005 -14.378  0.00  0.00    +0.151 C 
ATOM     14  C   UNL     1      37.542 -23.702 -14.250  0.00  0.00    +0.078 C 
ATOM     15  C   UNL     1      36.690 -26.377 -14.597  0.00  0.00    +0.043 C 
ATOM     16  C   UNL     1      35.760 -25.335 -14.550  0.00  0.00    +0.041 C 
ATOM     17  C   UNL     1      40.182 -26.031 -14.315  0.00  0.00    +0.429 C 
ENDBRANCH   8  13
ENDBRANCH   3   8
BRANCH   6  18
ATOM     18  O   UNL     1      33.793 -23.305 -18.720  0.00  0.00    -0.375 OA
BRANCH  18  20
ATOM     19  C   UNL     1      34.620 -19.776 -20.742  0.00  0.00    +0.057 C 
ATOM     20  C   UNL     1      34.068 -22.133 -19.391  0.00  0.00    +0.161 C 
ATOM     21  C   UNL     1      33.298 -20.136 -20.480  0.00  0.00    +0.018 C 
ATOM     22  C   UNL     1      35.664 -20.601 -20.324  0.00  0.00    +0.018 C 
ATOM     23  C   UNL     1      33.020 -21.322 -19.800  0.00  0.00    +0.040 C 
ATOM     24  C   UNL     1      35.387 -21.786 -19.643  0.00  0.00    +0.040 C 
BRANCH  19  25
ATOM     25  N   UNL     1      34.895 -18.600 -21.417  0.00  0.00    -0.246 N 
ATOM     26  N   UNL     1      35.239 -16.427 -21.773  0.00  0.00    -0.224 NA
ATOM     27  C   UNL     1      35.163 -18.468 -22.756  0.00  0.00    +0.092 C 
ATOM     28  C   UNL     1      34.953 -17.341 -20.873  0.00  0.00    +0.172 C 
ATOM     29  C   UNL     1      35.370 -17.123 -22.948  0.00  0.00    +0.117 C 
ENDBRANCH  19  25
ENDBRANCH  18  20
ENDBRANCH   6  18
TORSDOF 5
ENDMDL
MODEL 2
REMARK VINA RESULT:     -11.5      2.565      5.438
REMARK  Name = 10157080
REMARK  5 active torsions:
REMARK  status: ('A' for Active; 'I' for Inactive)
REMARK    1  A    between atoms: C_3  and  O_8
REMARK    2  A    between atoms: C_6  and  O_18
REMARK    3  A    between atoms: O_8  and  C_13
REMARK    4  A    between atoms: O_18  and  C_20
REMARK    5  A    between atoms: C_19  and  N_25
REMARK                            x       y       z     vdW  Elec       q    Type
REMARK                         _______ _______ _______ _____ _____    ______ ____
ROOT
ATOM      1  N   UNL     1      33.364 -23.430 -16.280  0.00  0.00    -0.277 NA
ATOM      2  N   UNL     1      35.612 -22.745 -16.815  0.00  0.00    -0.319 NA
ATOM      3  C   UNL     1      33.697 -23.338 -14.983  0.00  0.00    +0.278 C 
ATOM      4  C   UNL     1      34.935 -22.968 -14.516  0.00  0.00    +0.156 C 
ATOM      5  C   UNL     1      35.867 -22.678 -15.491  0.00  0.00    +0.113 C 
ATOM      6  C   UNL     1      34.359 -23.123 -17.134  0.00  0.00    +0.317 C 
ATOM      7  C   UNL     1      37.243 -22.265 -15.093  0.00  0.00    +0.063 C 
ENDROOT
BRANCH   3   8
ATOM      8  O   UNL     1      32.705 -23.642 -14.067  0.00  0.00    -0.429 OA
BRANCH   8  13
ATOM      9  O   UNL     1      28.907 -22.086 -16.599  0.00  0.00    -0.435 OA
ATOM     10  O   UNL     1      27.608 -24.028 -16.006  0.00  0.00    -0.435 OA
ATOM     11  C   UNL     1      29.596 -22.945 -15.799  0.00  0.00    +0.179 C 
ATOM     12  C   UNL     1      28.855 -24.054 -15.461  0.00  0.00    +0.177 C 
ATOM     13  C   UNL     1      31.431 -23.767 -14.534  0.00  0.00    +0.151 C 
ATOM     14  C   UNL     1      30.890 -22.772 -15.351  0.00  0.00    +0.078 C 
ATOM     15  C   UNL     1      29.366 -25.051 -14.655  0.00  0.00    +0.043 C 
ATOM     16  C   UNL     1      30.674 -24.901 -14.188  0.00  0.00    +0.041 C 
ATOM     17  C   UNL     1      27.649 -22.780 -16.726  0.00  0.00    +0.429 C 
ENDBRANCH   8  13
ENDBRANCH   3   8
BRANCH   6  18
ATOM     18  O   UNL     1      34.065 -23.206 -18.475  0.00  0.00    -0.375 OA
BRANCH  18  20
ATOM     19  C   UNL     1      34.712 -19.810 -20.771  0.00  0.00    +0.057 C 
ATOM     20  C   UNL     1      34.280 -22.078 -19.237  0.00  0.00    +0.161 C 
ATOM     21  C   UNL     1      33.416 -20.157 -20.389  0.00  0.00    +0.018 C 
ATOM     22  C   UNL     1      35.790 -20.604 -20.381  0.00  0.00    +0.018 C 
ATOM     23  C   UNL     1      33.198 -21.298 -19.617  0.00  0.00    +0.040 C 
ATOM     24  C   UNL     1      35.573 -21.744 -19.609  0.00  0.00    +0.040 C 
BRANCH  19  25
ATOM     25  N   UNL     1      34.927 -18.678 -21.537  0.00  0.00    -0.246 N 
ATOM     26  N   UNL     1      35.265 -16.536 -22.051  0.00  0.00    -0.224 NA
ATOM     27  C   UNL     1      35.039 -18.624 -22.904  0.00  0.00    +0.092 C 
ATOM     28  C   UNL     1      35.071 -17.394 -21.074  0.00  0.00    +0.172 C 
ATOM     29  C   UNL     1      35.246 -17.296 -23.193  0.00  0.00    +0.117 C 
ENDBRANCH  19  25
ENDBRANCH  18  20
ENDBRANCH   6  18
TORSDOF 5
ENDMDL
MODEL 3
REMARK VINA RESULT:     -10.9      1.255      1.631
REMARK  Name = 10157080
REMARK  5 active torsions:
REMARK  status: ('A' for Active; 'I' for Inactive)
REMARK    1  A    between atoms: C_3  and  O_8
REMARK    2  A    between atoms: C_6  and  O_18
REMARK    3  A    between atoms: O_8  and  C_13
REMARK    4  A    between atoms: O_18  and  C_20
REMARK    5  A    between atoms: C_19  and  N_25
REMARK                            x       y       z     vdW  Elec       q    Type
REMARK                         _______ _______ _______ _____ _____    ______ ____
ROOT
ATOM      1  N   UNL     1      35.730 -22.579 -17.000  0.00  0.00    -0.277 NA
ATOM      2  N   UNL     1      33.398 -23.190 -16.977  0.00  0.00    -0.319 NA
ATOM      3  C   UNL     1      35.688 -22.566 -15.658  0.00  0.00    +0.278 C 
ATOM      4  C   UNL     1      34.574 -22.843 -14.905  0.00  0.00    +0.156 C 
ATOM      5  C   UNL     1      33.440 -23.154 -15.629  0.00  0.00    +0.113 C 
ATOM      6  C   UNL     1      34.561 -22.896 -17.589  0.00  0.00    +0.317 C 
ATOM      7  C   UNL     1      32.173 -23.473 -14.909  0.00  0.00    +0.063 C 
ENDROOT
BRANCH   3   8
ATOM      8  O   UNL     1      36.867 -22.248 -15.007  0.00  0.00    -0.429 OA
BRANCH   8  13
ATOM      9  O   UNL     1      40.335 -25.587 -15.284  0.00  0.00    -0.435 OA
ATOM     10  O   UNL     1      39.881 -26.368 -13.049  0.00  0.00    -0.435 OA
ATOM     11  C   UNL     1      39.324 -24.897 -14.691  0.00  0.00    +0.179 C 
ATOM     12  C   UNL     1      39.064 -25.342 -13.415  0.00  0.00    +0.177 C 
ATOM     13  C   UNL     1      37.601 -23.273 -14.490  0.00  0.00    +0.151 C 
ATOM     14  C   UNL     1      38.608 -23.862 -15.258  0.00  0.00    +0.078 C 
ATOM     15  C   UNL     1      38.074 -24.778 -12.636  0.00  0.00    +0.043 C 
ATOM     16  C   UNL     1      37.335 -23.729 -13.186  0.00  0.00    +0.041 C 
ATOM     17  C   UNL     1      40.684 -26.517 -14.238  0.00  0.00    +0.429 C 
ENDBRANCH   8  13
ENDBRANCH   3   8
BRANCH   6  18
ATOM     18  O   UNL     1      34.554 -22.919 -18.965  0.00  0.00    -0.375 OA
BRANCH  18  20
ATOM     19  C   UNL     1      34.852 -19.271 -20.922  0.00  0.00    +0.057 C 
ATOM     20  C   UNL     1      34.652 -21.708 -19.615  0.00  0.00    +0.161 C 
ATOM     21  C   UNL     1      36.002 -20.011 -20.647  0.00  0.00    +0.018 C 
ATOM     22  C   UNL     1      33.602 -19.758 -20.540  0.00  0.00    +0.018 C 
ATOM     23  C   UNL     1      35.902 -21.237 -19.989  0.00  0.00    +0.040 C 
ATOM     24  C   UNL     1      33.501 -20.984 -19.883  0.00  0.00    +0.040 C 
BRANCH  19  25
ATOM     25  N   UNL     1      34.951 -18.055 -21.573  0.00  0.00    -0.246 N 
ATOM     26  N   UNL     1      34.974 -15.848 -21.888  0.00  0.00    -0.224 NA
ATOM     27  C   UNL     1      35.194 -17.860 -22.910  0.00  0.00    +0.092 C 
ATOM     28  C   UNL     1      34.827 -16.812 -21.005  0.00  0.00    +0.172 C 
ATOM     29  C   UNL     1      35.202 -16.495 -23.076  0.00  0.00    +0.117 C 
ENDBRANCH  19  25
ENDBRANCH  18  20
ENDBRANCH   6  18
TORSDOF 5
ENDMDL
MODEL 4
REMARK VINA RESULT:     -10.8      3.676      9.976
REMARK  Name = 10157080
REMARK  5 active torsions:
REMARK  status: ('A' for Active; 'I' for Inactive)
REMARK    1  A    between atoms: C_3  and  O_8
REMARK    2  A    between atoms: C_6  and  O_18
REMARK    3  A    between atoms: O_8  and  C_13
REMARK    4  A    between atoms: O_18  and  C_20
REMARK    5  A    between atoms: C_19  and  N_25
REMARK                            x       y       z     vdW  Elec       q    Type
REMARK                         _______ _______ _______ _____ _____    ______ ____
ROOT
ATOM      1  N   UNL     1      36.727 -19.767 -20.527  0.00  0.00    -0.277 NA
ATOM      2  N   UNL     1      34.905 -21.007 -19.550  0.00  0.00    -0.319 NA
ATOM      3  C   UNL     1      35.819 -19.116 -21.272  0.00  0.00    +0.278 C 
ATOM      4  C   UNL     1      34.464 -19.338 -21.228  0.00  0.00    +0.156 C 
ATOM      5  C   UNL     1      34.058 -20.309 -20.334  0.00  0.00    +0.113 C 
ATOM      6  C   UNL     1      36.206 -20.689 -19.695  0.00  0.00    +0.317 C 
ATOM      7  C   UNL     1      32.606 -20.628 -20.206  0.00  0.00    +0.063 C 
ENDROOT
BRANCH   3   8
ATOM      8  O   UNL     1      36.307 -18.156 -22.140  0.00  0.00    -0.429 OA
BRANCH   8  13
ATOM      9  O   UNL     1      33.906 -15.323 -25.217  0.00  0.00    -0.435 OA
ATOM     10  O   UNL     1      33.077 -13.937 -23.427  0.00  0.00    -0.435 OA
ATOM     11  C   UNL     1      34.340 -15.740 -23.996  0.00  0.00    +0.179 C 
ATOM     12  C   UNL     1      33.867 -14.949 -22.974  0.00  0.00    +0.177 C 
ATOM     13  C   UNL     1      35.500 -17.096 -22.428  0.00  0.00    +0.151 C 
ATOM     14  C   UNL     1      35.159 -16.823 -23.755  0.00  0.00    +0.078 C 
ATOM     15  C   UNL     1      34.188 -15.196 -21.655  0.00  0.00    +0.043 C 
ATOM     16  C   UNL     1      35.016 -16.288 -21.384  0.00  0.00    +0.041 C 
ATOM     17  C   UNL     1      33.106 -14.180 -24.848  0.00  0.00    +0.429 C 
ENDBRANCH   8  13
ENDBRANCH   3   8
BRANCH   6  18
ATOM     18  O   UNL     1      37.099 -21.384 -18.913  0.00  0.00    -0.375 OA
BRANCH  18  20
ATOM     19  C   UNL     1      35.674 -22.939 -15.339  0.00  0.00    +0.057 C 
ATOM     20  C   UNL     1      36.626 -21.901 -17.726  0.00  0.00    +0.161 C 
ATOM     21  C   UNL     1      34.879 -22.983 -16.484  0.00  0.00    +0.018 C 
ATOM     22  C   UNL     1      36.947 -22.374 -15.395  0.00  0.00    +0.018 C 
ATOM     23  C   UNL     1      35.358 -22.460 -17.686  0.00  0.00    +0.040 C 
ATOM     24  C   UNL     1      37.427 -21.852 -16.595  0.00  0.00    +0.040 C 
BRANCH  19  25
ATOM     25  N   UNL     1      35.198 -23.457 -14.148  0.00  0.00    -0.246 N 
ATOM     26  N   UNL     1      33.772 -24.306 -12.659  0.00  0.00    -0.224 NA
ATOM     27  C   UNL     1      35.921 -23.672 -13.001  0.00  0.00    +0.092 C 
ATOM     28  C   UNL     1      33.911 -23.856 -13.886  0.00  0.00    +0.172 C 
ATOM     29  C   UNL     1      35.021 -24.193 -12.103  0.00  0.00    +0.117 C 
ENDBRANCH  19  25
ENDBRANCH  18  20
ENDBRANCH   6  18
TORSDOF 5
ENDMDL
MODEL 5
REMARK VINA RESULT:     -10.7      3.589      9.789
REMARK  Name = 10157080
REMARK  5 active torsions:
REMARK  status: ('A' for Active; 'I' for Inactive)
REMARK    1  A    between atoms: C_3  and  O_8
REMARK    2  A    between atoms: C_6  and  O_18
REMARK    3  A    between atoms: O_8  and  C_13
REMARK    4  A    between atoms: O_18  and  C_20
REMARK    5  A    between atoms: C_19  and  N_25
REMARK                            x       y       z     vdW  Elec       q    Type
REMARK                         _______ _______ _______ _____ _____    ______ ____
ROOT
ATOM      1  N   UNL     1      36.643 -19.649 -20.473  0.00  0.00    -0.277 NA
ATOM      2  N   UNL     1      34.874 -21.014 -19.568  0.00  0.00    -0.319 NA
ATOM      3  C   UNL     1      35.709 -19.000 -21.187  0.00  0.00    +0.278 C 
ATOM      4  C   UNL     1      34.365 -19.281 -21.160  0.00  0.00    +0.156 C 
ATOM      5  C   UNL     1      33.999 -20.313 -20.319  0.00  0.00    +0.113 C 
ATOM      6  C   UNL     1      36.160 -20.634 -19.692  0.00  0.00    +0.317 C 
ATOM      7  C   UNL     1      32.562 -20.700 -20.213  0.00  0.00    +0.063 C 
ENDROOT
BRANCH   3   8
ATOM      8  O   UNL     1      36.157 -17.976 -22.003  0.00  0.00    -0.429 OA
BRANCH   8  13
ATOM      9  O   UNL     1      33.334 -14.409 -20.404  0.00  0.00    -0.435 OA
ATOM     10  O   UNL     1      32.816 -13.698 -22.647  0.00  0.00    -0.435 OA
ATOM     11  C   UNL     1      33.951 -15.175 -21.344  0.00  0.00    +0.179 C 
ATOM     12  C   UNL     1      33.655 -14.769 -22.625  0.00  0.00    +0.177 C 
ATOM     13  C   UNL     1      35.327 -16.913 -22.197  0.00  0.00    +0.151 C 
ATOM     14  C   UNL     1      34.785 -16.246 -21.097  0.00  0.00    +0.078 C 
ATOM     15  C   UNL     1      34.177 -15.411 -23.730  0.00  0.00    +0.043 C 
ATOM     16  C   UNL     1      35.025 -16.498 -23.507  0.00  0.00    +0.041 C 
ATOM     17  C   UNL     1      32.617 -13.475 -21.237  0.00  0.00    +0.429 C 
ENDBRANCH   8  13
ENDBRANCH   3   8
BRANCH   6  18
ATOM     18  O   UNL     1      37.081 -21.330 -18.943  0.00  0.00    -0.375 OA
BRANCH  18  20
ATOM     19  C   UNL     1      35.783 -22.896 -15.325  0.00  0.00    +0.057 C 
ATOM     20  C   UNL     1      36.650 -21.850 -17.742  0.00  0.00    +0.161 C 
ATOM     21  C   UNL     1      34.962 -22.968 -16.451  0.00  0.00    +0.018 C 
ATOM     22  C   UNL     1      37.040 -22.298 -15.416  0.00  0.00    +0.018 C 
ATOM     23  C   UNL     1      35.398 -22.443 -17.668  0.00  0.00    +0.040 C 
ATOM     24  C   UNL     1      37.477 -21.772 -16.631  0.00  0.00    +0.040 C 
BRANCH  19  25
ATOM     25  N   UNL     1      35.350 -23.417 -14.120  0.00  0.00    -0.246 N 
ATOM     26  N   UNL     1      33.990 -24.320 -12.601  0.00  0.00    -0.224 NA
ATOM     27  C   UNL     1      36.094 -23.564 -12.976  0.00  0.00    +0.092 C 
ATOM     28  C   UNL     1      34.091 -23.887 -13.838  0.00  0.00    +0.172 C 
ATOM     29  C   UNL     1      35.235 -24.121 -12.059  0.00  0.00    +0.117 C 
ENDBRANCH  19  25
ENDBRANCH  18  20
ENDBRANCH   6  18
TORSDOF 5
ENDMDL
MODEL 6
REMARK VINA RESULT:     -10.6      2.045      2.926
REMARK  Name = 10157080
REMARK  5 active torsions:
REMARK  status: ('A' for Active; 'I' for Inactive)
REMARK    1  A    between atoms: C_3  and  O_8
REMARK    2  A    between atoms: C_6  and  O_18
REMARK    3  A    between atoms: O_8  and  C_13
REMARK    4  A    between atoms: O_18  and  C_20
REMARK    5  A    between atoms: C_19  and  N_25
REMARK                            x       y       z     vdW  Elec       q    Type
REMARK                         _______ _______ _______ _____ _____    ______ ____
ROOT
ATOM      1  N   UNL     1      36.815 -22.044 -17.689  0.00  0.00    -0.277 NA
ATOM      2  N   UNL     1      34.585 -22.439 -18.513  0.00  0.00    -0.319 NA
ATOM      3  C   UNL     1      36.368 -22.372 -16.466  0.00  0.00    +0.278 C 
ATOM      4  C   UNL     1      35.077 -22.738 -16.176  0.00  0.00    +0.156 C 
ATOM      5  C   UNL     1      34.216 -22.755 -17.254  0.00  0.00    +0.113 C 
ATOM      6  C   UNL     1      35.880 -22.098 -18.656  0.00  0.00    +0.317 C 
ATOM      7  C   UNL     1      32.789 -23.138 -17.050  0.00  0.00    +0.063 C 
ENDROOT
BRANCH   3   8
ATOM      8  O   UNL     1      37.295 -22.334 -15.439  0.00  0.00    -0.429 OA
BRANCH   8  13
ATOM      9  O   UNL     1      35.356 -23.818 -11.280  0.00  0.00    -0.435 OA
ATOM     10  O   UNL     1      36.632 -25.862 -11.316  0.00  0.00    -0.435 OA
ATOM     11  C   UNL     1      36.160 -23.907 -12.375  0.00  0.00    +0.179 C 
ATOM     12  C   UNL     1      36.888 -25.074 -12.396  0.00  0.00    +0.177 C 
ATOM     13  C   UNL     1      37.153 -23.233 -14.426  0.00  0.00    +0.151 C 
ATOM     14  C   UNL     1      36.270 -22.965 -13.377  0.00  0.00    +0.078 C 
ATOM     15  C   UNL     1      37.767 -25.364 -13.419  0.00  0.00    +0.043 C 
ATOM     16  C   UNL     1      37.897 -24.427 -14.447  0.00  0.00    +0.041 C 
ATOM     17  C   UNL     1      35.660 -25.061 -10.615  0.00  0.00    +0.429 C 
ENDBRANCH   8  13
ENDBRANCH   3   8
BRANCH   6  18
ATOM     18  O   UNL     1      36.291 -21.766 -19.927  0.00  0.00    -0.375 OA
BRANCH  18  20
ATOM     19  C   UNL     1      35.381 -17.949 -21.277  0.00  0.00    +0.057 C 
ATOM     20  C   UNL     1      35.989 -20.499 -20.375  0.00  0.00    +0.161 C 
ATOM     21  C   UNL     1      34.357 -18.862 -21.025  0.00  0.00    +0.018 C 
ATOM     22  C   UNL     1      36.710 -18.319 -21.075  0.00  0.00    +0.018 C 
ATOM     23  C   UNL     1      34.663 -20.145 -20.571  0.00  0.00    +0.040 C 
ATOM     24  C   UNL     1      37.017 -19.601 -20.620  0.00  0.00    +0.040 C 
BRANCH  19  25
ATOM     25  N   UNL     1      35.077 -16.677 -21.728  0.00  0.00    -0.246 N 
ATOM     26  N   UNL     1      34.914 -14.931 -23.104  0.00  0.00    -0.224 NA
ATOM     27  C   UNL     1      34.475 -15.676 -21.009  0.00  0.00    +0.092 C 
ATOM     28  C   UNL     1      35.321 -16.175 -22.982  0.00  0.00    +0.172 C 
ATOM     29  C   UNL     1      34.387 -14.614 -21.878  0.00  0.00    +0.117 C 
ENDBRANCH  19  25
ENDBRANCH  18  20
ENDBRANCH   6  18
TORSDOF 5
ENDMDL
MODEL 7
REMARK VINA RESULT:     -10.3      4.491      8.409
REMARK  Name = 10157080
REMARK  5 active torsions:
REMARK  status: ('A' for Active; 'I' for Inactive)
REMARK    1  A    between atoms: C_3  and  O_8
REMARK    2  A    between atoms: C_6  and  O_18
REMARK    3  A    between atoms: O_8  and  C_13
REMARK    4  A    between atoms: O_18  and  C_20
REMARK    5  A    between atoms: C_19  and  N_25
REMARK                            x       y       z     vdW  Elec       q    Type
REMARK                         _______ _______ _______ _____ _____    ______ ____
ROOT
ATOM      1  N   UNL     1      34.987 -17.528 -20.896  0.00  0.00    -0.277 NA
ATOM      2  N   UNL     1      34.498 -15.942 -22.644  0.00  0.00    -0.319 NA
ATOM      3  C   UNL     1      35.406 -18.375 -21.849  0.00  0.00    +0.278 C 
ATOM      4  C   UNL     1      35.408 -18.102 -23.195  0.00  0.00    +0.156 C 
ATOM      5  C   UNL     1      34.937 -16.851 -23.540  0.00  0.00    +0.113 C 
ATOM      6  C   UNL     1      34.550 -16.341 -21.358  0.00  0.00    +0.317 C 
ATOM      7  C   UNL     1      34.896 -16.451 -24.976  0.00  0.00    +0.063 C 
ENDROOT
BRANCH   3   8
ATOM      8  O   UNL     1      35.867 -19.608 -21.421  0.00  0.00    -0.429 OA
BRANCH   8  13
ATOM      9  O   UNL     1      35.178 -22.676 -17.765  0.00  0.00    -0.435 OA
ATOM     10  O   UNL     1      32.782 -22.521 -17.975  0.00  0.00    -0.435 OA
ATOM     11  C   UNL     1      34.800 -21.838 -18.769  0.00  0.00    +0.179 C 
ATOM     12  C   UNL     1      33.432 -21.750 -18.889  0.00  0.00    +0.177 C 
ATOM     13  C   UNL     1      35.071 -20.322 -20.578  0.00  0.00    +0.151 C 
ATOM     14  C   UNL     1      35.647 -21.135 -19.600  0.00  0.00    +0.078 C 
ATOM     15  C   UNL     1      32.836 -20.955 -19.847  0.00  0.00    +0.043 C 
ATOM     16  C   UNL     1      33.672 -20.232 -20.700  0.00  0.00    +0.041 C 
ATOM     17  C   UNL     1      33.894 -23.104 -17.266  0.00  0.00    +0.429 C 
ENDBRANCH   8  13
ENDBRANCH   3   8
BRANCH   6  18
ATOM     18  O   UNL     1      34.107 -15.441 -20.417  0.00  0.00    -0.375 OA
BRANCH  18  20
ATOM     19  C   UNL     1      32.803 -11.750 -21.794  0.00  0.00    +0.057 C 
ATOM     20  C   UNL     1      33.675 -14.215 -20.874  0.00  0.00    +0.161 C 
ATOM     21  C   UNL     1      32.125 -12.385 -20.754  0.00  0.00    +0.018 C 
ATOM     22  C   UNL     1      33.919 -12.354 -22.371  0.00  0.00    +0.018 C 
ATOM     23  C   UNL     1      32.563 -13.626 -20.290  0.00  0.00    +0.040 C 
ATOM     24  C   UNL     1      34.358 -13.594 -21.909  0.00  0.00    +0.040 C 
BRANCH  19  25
ATOM     25  N   UNL     1      32.367 -10.520 -22.254  0.00  0.00    -0.246 N 
ATOM     26  N   UNL     1      31.066  -8.729 -22.518  0.00  0.00    -0.224 NA
ATOM     27  C   UNL     1      33.022  -9.695 -23.133  0.00  0.00    +0.092 C 
ATOM     28  C   UNL     1      31.195  -9.890 -21.915  0.00  0.00    +0.172 C 
ATOM     29  C   UNL     1      32.201  -8.602 -23.278  0.00  0.00    +0.117 C 
ENDBRANCH  19  25
ENDBRANCH  18  20
ENDBRANCH   6  18
TORSDOF 5
ENDMDL
MODEL 8
REMARK VINA RESULT:     -10.3      4.469     10.687
REMARK  Name = 10157080
REMARK  5 active torsions:
REMARK  status: ('A' for Active; 'I' for Inactive)
REMARK    1  A    between atoms: C_3  and  O_8
REMARK    2  A    between atoms: C_6  and  O_18
REMARK    3  A    between atoms: O_8  and  C_13
REMARK    4  A    between atoms: O_18  and  C_20
REMARK    5  A    between atoms: C_19  and  N_25
REMARK                            x       y       z     vdW  Elec       q    Type
REMARK                         _______ _______ _______ _____ _____    ______ ____
ROOT
ATOM      1  N   UNL     1      35.451 -17.749 -20.898  0.00  0.00    -0.277 NA
ATOM      2  N   UNL     1      35.567 -18.558 -23.166  0.00  0.00    -0.319 NA
ATOM      3  C   UNL     1      34.894 -16.626 -21.380  0.00  0.00    +0.278 C 
ATOM      4  C   UNL     1      34.642 -16.383 -22.708  0.00  0.00    +0.156 C 
ATOM      5  C   UNL     1      35.003 -17.400 -23.568  0.00  0.00    +0.113 C 
ATOM      6  C   UNL     1      35.759 -18.664 -21.837  0.00  0.00    +0.317 C 
ATOM      7  C   UNL     1      34.772 -17.240 -25.033  0.00  0.00    +0.063 C 
ENDROOT
BRANCH   3   8
ATOM      8  O   UNL     1      34.557 -15.656 -20.452  0.00  0.00    -0.429 OA
BRANCH   8  13
ATOM      9  O   UNL     1      31.129 -12.276 -20.169  0.00  0.00    -0.435 OA
ATOM     10  O   UNL     1      31.919 -11.187 -22.169  0.00  0.00    -0.435 OA
ATOM     11  C   UNL     1      32.209 -12.905 -20.709  0.00  0.00    +0.179 C 
ATOM     12  C   UNL     1      32.660 -12.283 -21.850  0.00  0.00    +0.177 C 
ATOM     13  C   UNL     1      33.921 -14.541 -20.906  0.00  0.00    +0.151 C 
ATOM     14  C   UNL     1      32.819 -14.037 -20.210  0.00  0.00    +0.078 C 
ATOM     15  C   UNL     1      33.745 -12.759 -22.557  0.00  0.00    +0.043 C 
ATOM     16  C   UNL     1      34.382 -13.905 -22.073  0.00  0.00    +0.041 C 
ATOM     17  C   UNL     1      30.952 -11.188 -21.099  0.00  0.00    +0.429 C 
ENDBRANCH   8  13
ENDBRANCH   3   8
BRANCH   6  18
ATOM     18  O   UNL     1      36.336 -19.830 -21.391  0.00  0.00    -0.375 OA
BRANCH  18  20
ATOM     19  C   UNL     1      34.351 -21.897 -18.388  0.00  0.00    +0.057 C 
ATOM     20  C   UNL     1      35.677 -20.516 -20.394  0.00  0.00    +0.161 C 
ATOM     21  C   UNL     1      35.746 -21.868 -18.410  0.00  0.00    +0.018 C 
ATOM     22  C   UNL     1      33.624 -21.231 -19.374  0.00  0.00    +0.018 C 
ATOM     23  C   UNL     1      36.413 -21.173 -19.419  0.00  0.00    +0.040 C 
ATOM     24  C   UNL     1      34.290 -20.536 -20.383  0.00  0.00    +0.040 C 
BRANCH  19  25
ATOM     25  N   UNL     1      33.690 -22.586 -17.387  0.00  0.00    -0.246 N 
ATOM     26  N   UNL     1      33.373 -23.819 -15.557  0.00  0.00    -0.224 NA
ATOM     27  C   UNL     1      32.332 -22.721 -17.246  0.00  0.00    +0.092 C 
ATOM     28  C   UNL     1      34.269 -23.267 -16.345  0.00  0.00    +0.172 C 
ATOM     29  C   UNL     1      32.165 -23.483 -16.114  0.00  0.00    +0.117 C 
ENDBRANCH  19  25
ENDBRANCH  18  20
ENDBRANCH   6  18
TORSDOF 5
ENDMDL
MODEL 9
REMARK VINA RESULT:     -10.2      2.904      5.129
REMARK  Name = 10157080
REMARK  5 active torsions:
REMARK  status: ('A' for Active; 'I' for Inactive)
REMARK    1  A    between atoms: C_3  and  O_8
REMARK    2  A    between atoms: C_6  and  O_18
REMARK    3  A    between atoms: O_8  and  C_13
REMARK    4  A    between atoms: O_18  and  C_20
REMARK    5  A    between atoms: C_19  and  N_25
REMARK                            x       y       z     vdW  Elec       q    Type
REMARK                         _______ _______ _______ _____ _____    ______ ____
ROOT
ATOM      1  N   UNL     1      36.598 -19.960 -20.318  0.00  0.00    -0.277 NA
ATOM      2  N   UNL     1      34.345 -19.566 -21.080  0.00  0.00    -0.319 NA
ATOM      3  C   UNL     1      36.105 -20.916 -19.514  0.00  0.00    +0.278 C 
ATOM      4  C   UNL     1      34.778 -21.259 -19.425  0.00  0.00    +0.156 C 
ATOM      5  C   UNL     1      33.931 -20.540 -20.244  0.00  0.00    +0.113 C 
ATOM      6  C   UNL     1      35.672 -19.331 -21.066  0.00  0.00    +0.317 C 
ATOM      7  C   UNL     1      32.469 -20.833 -20.227  0.00  0.00    +0.063 C 
ENDROOT
BRANCH   3   8
ATOM      8  O   UNL     1      37.020 -21.593 -18.727  0.00  0.00    -0.429 OA
BRANCH   8  13
ATOM      9  O   UNL     1      37.691 -22.856 -14.121  0.00  0.00    -0.435 OA
ATOM     10  O   UNL     1      35.396 -23.553 -13.889  0.00  0.00    -0.435 OA
ATOM     11  C   UNL     1      36.981 -22.688 -15.270  0.00  0.00    +0.179 C 
ATOM     12  C   UNL     1      35.671 -23.086 -15.137  0.00  0.00    +0.177 C 
ATOM     13  C   UNL     1      36.585 -22.087 -17.534  0.00  0.00    +0.151 C 
ATOM     14  C   UNL     1      37.469 -22.183 -16.457  0.00  0.00    +0.078 C 
ATOM     15  C   UNL     1      34.776 -23.002 -16.185  0.00  0.00    +0.043 C 
ATOM     16  C   UNL     1      35.245 -22.494 -17.398  0.00  0.00    +0.041 C 
ATOM     17  C   UNL     1      36.680 -23.403 -13.251  0.00  0.00    +0.429 C 
ENDBRANCH   8  13
ENDBRANCH   3   8
BRANCH   6  18
ATOM     18  O   UNL     1      36.129 -18.340 -21.904  0.00  0.00    -0.375 OA
BRANCH  18  20
ATOM     19  C   UNL     1      33.993 -14.783 -21.972  0.00  0.00    +0.057 C 
ATOM     20  C   UNL     1      35.420 -17.159 -21.927  0.00  0.00    +0.161 C 
ATOM     21  C   UNL     1      34.215 -15.439 -20.762  0.00  0.00    +0.018 C 
ATOM     22  C   UNL     1      34.489 -15.321 -23.159  0.00  0.00    +0.018 C 
ATOM     23  C   UNL     1      34.934 -16.635 -20.738  0.00  0.00    +0.040 C 
ATOM     24  C   UNL     1      35.208 -16.516 -23.137  0.00  0.00    +0.040 C 
BRANCH  19  25
ATOM     25  N   UNL     1      33.280 -13.597 -21.995  0.00  0.00    -0.246 N 
ATOM     26  N   UNL     1      32.595 -11.583 -22.660  0.00  0.00    -0.224 NA
ATOM     27  C   UNL     1      32.301 -13.214 -21.113  0.00  0.00    +0.092 C 
ATOM     28  C   UNL     1      33.418 -12.579 -22.905  0.00  0.00    +0.172 C 
ATOM     29  C   UNL     1      31.897 -11.973 -21.545  0.00  0.00    +0.117 C 
ENDBRANCH  19  25
ENDBRANCH  18  20
ENDBRANCH   6  18
TORSDOF 5
ENDMDL
