MODEL 1
REMARK VINA RESULT:     -11.4      0.000      0.000
REMARK  Name = 10250490
REMARK  6 active torsions:
REMARK  status: ('A' for Active; 'I' for Inactive)
REMARK    1  A    between atoms: N_2  and  C_18
REMARK    2  A    between atoms: C_3  and  C_6
REMARK    3  A    between atoms: C_5  and  N_12
REMARK    4  A    between atoms: C_18  and  C_19
REMARK    5  A    between atoms: C_19  and  N_21
REMARK    6  A    between atoms: C_22  and  C_26
REMARK                            x       y       z     vdW  Elec       q    Type
REMARK                         _______ _______ _______ _____ _____    ______ ____
ROOT
ATOM      1  O   UNL     1      33.692 -23.628 -17.675  0.00  0.00    -0.270 OA
ATOM      2  N   UNL     1      35.631 -22.753 -16.755  0.00  0.00    -0.299 N 
ATOM      3  C   UNL     1      34.612 -22.794 -17.713  0.00  0.00    +0.246 C 
ATOM      4  H   UNL     1      36.329 -22.064 -16.846  0.00  0.00    +0.150 HD
ENDROOT
BRANCH   3   6
ATOM      5  C   UNL     1      34.810 -19.951 -20.860  0.00  0.00    +0.058 C 
ATOM      6  C   UNL     1      34.681 -21.820 -18.792  0.00  0.00    +0.053 C 
ATOM      7  C   UNL     1      35.984 -20.469 -20.312  0.00  0.00    +0.015 C 
ATOM      8  C   UNL     1      33.571 -20.369 -20.373  0.00  0.00    +0.015 C 
ATOM      9  C   UNL     1      35.919 -21.404 -19.278  0.00  0.00    +0.006 C 
ATOM     10  C   UNL     1      33.506 -21.303 -19.339  0.00  0.00    +0.006 C 
BRANCH   5  12
ATOM     11  O   UNL     1      35.204 -17.107 -20.516  0.00  0.00    -0.269 OA
ATOM     12  N   UNL     1      34.878 -18.979 -21.933  0.00  0.00    -0.233 N 
ATOM     13  C   UNL     1      35.117 -17.612 -21.635  0.00  0.00    +0.257 C 
ATOM     14  C   UNL     1      34.689 -19.374 -23.259  0.00  0.00    +0.072 C 
ATOM     15  C   UNL     1      35.220 -16.684 -22.804  0.00  0.00    +0.059 C 
ATOM     16  C   UNL     1      34.752 -18.519 -24.286  0.00  0.00    +0.017 C 
ATOM     17  C   UNL     1      35.033 -17.134 -24.048  0.00  0.00    +0.006 C 
ENDBRANCH   5  12
ENDBRANCH   3   6
BRANCH   2  18
ATOM     18  C   UNL     1      35.715 -23.666 -15.638  0.00  0.00    +0.111 C 
BRANCH  18  19
ATOM     19  C   UNL     1      34.827 -23.241 -14.480  0.00  0.00    +0.111 C 
BRANCH  19  21
ATOM     20  O   UNL     1      32.931 -24.705 -12.900  0.00  0.00    -0.270 OA
ATOM     21  N   UNL     1      33.432 -23.431 -14.772  0.00  0.00    -0.299 N 
ATOM     22  C   UNL     1      32.586 -24.159 -13.945  0.00  0.00    +0.252 C 
ATOM     23  H   UNL     1      33.063 -23.030 -15.592  0.00  0.00    +0.150 HD
BRANCH  22  26
ATOM     24 CL   UNL     1      27.848 -23.360 -16.570  0.00  0.00    -0.075 Cl
ATOM     25  S   UNL     1      30.642 -23.208 -15.578  0.00  0.00    -0.071 S 
ATOM     26  C   UNL     1      31.178 -24.286 -14.400  0.00  0.00    +0.084 C 
ATOM     27  C   UNL     1      30.270 -25.177 -13.970  0.00  0.00    +0.012 C 
ATOM     28  C   UNL     1      29.031 -24.979 -14.646  0.00  0.00    +0.019 C 
ATOM     29  C   UNL     1      29.094 -23.940 -15.548  0.00  0.00    +0.087 C 
ENDBRANCH  22  26
ENDBRANCH  19  21
ENDBRANCH  18  19
ENDBRANCH   2  18
TORSDOF 6
ENDMDL
MODEL 2
REMARK VINA RESULT:     -11.1      2.992      3.956
REMARK  Name = 10250490
REMARK  6 active torsions:
REMARK  status: ('A' for Active; 'I' for Inactive)
REMARK    1  A    between atoms: N_2  and  C_18
REMARK    2  A    between atoms: C_3  and  C_6
REMARK    3  A    between atoms: C_5  and  N_12
REMARK    4  A    between atoms: C_18  and  C_19
REMARK    5  A    between atoms: C_19  and  N_21
REMARK    6  A    between atoms: C_22  and  C_26
REMARK                            x       y       z     vdW  Elec       q    Type
REMARK                         _______ _______ _______ _____ _____    ______ ____
ROOT
ATOM      1  O   UNL     1      34.552 -23.438 -17.194  0.00  0.00    -0.270 OA
ATOM      2  N   UNL     1      32.343 -22.739 -17.133  0.00  0.00    -0.299 N 
ATOM      3  C   UNL     1      33.645 -22.718 -17.645  0.00  0.00    +0.246 C 
ATOM      4  H   UNL     1      31.672 -22.143 -17.538  0.00  0.00    +0.150 HD
ENDROOT
BRANCH   3   6
ATOM      5  C   UNL     1      34.423 -19.999 -20.811  0.00  0.00    +0.058 C 
ATOM      6  C   UNL     1      33.912 -21.787 -18.730  0.00  0.00    +0.053 C 
ATOM      7  C   UNL     1      35.474 -20.695 -20.214  0.00  0.00    +0.015 C 
ATOM      8  C   UNL     1      33.115 -20.198 -20.367  0.00  0.00    +0.015 C 
ATOM      9  C   UNL     1      35.219 -21.589 -19.174  0.00  0.00    +0.006 C 
ATOM     10  C   UNL     1      32.860 -21.092 -19.326  0.00  0.00    +0.006 C 
BRANCH   5  12
ATOM     11  O   UNL     1      35.162 -17.222 -20.482  0.00  0.00    -0.269 OA
ATOM     12  N   UNL     1      34.689 -19.069 -21.891  0.00  0.00    -0.233 N 
ATOM     13  C   UNL     1      35.084 -17.738 -21.597  0.00  0.00    +0.257 C 
ATOM     14  C   UNL     1      34.539 -19.467 -23.220  0.00  0.00    +0.072 C 
ATOM     15  C   UNL     1      35.385 -16.859 -22.769  0.00  0.00    +0.059 C 
ATOM     16  C   UNL     1      34.782 -18.651 -24.253  0.00  0.00    +0.017 C 
ATOM     17  C   UNL     1      35.225 -17.310 -24.016  0.00  0.00    +0.006 C 
ENDBRANCH   5  12
ENDBRANCH   3   6
BRANCH   2  18
ATOM     18  C   UNL     1      31.928 -23.591 -16.042  0.00  0.00    +0.111 C 
BRANCH  18  19
ATOM     19  C   UNL     1      32.136 -22.933 -14.688  0.00  0.00    +0.111 C 
BRANCH  19  21
ATOM     20  O   UNL     1      32.766 -24.896 -12.691  0.00  0.00    -0.270 OA
ATOM     21  N   UNL     1      33.437 -23.218 -14.145  0.00  0.00    -0.299 N 
ATOM     22  C   UNL     1      33.647 -24.191 -13.176  0.00  0.00    +0.252 C 
ATOM     23  H   UNL     1      34.209 -22.702 -14.473  0.00  0.00    +0.150 HD
BRANCH  22  26
ATOM     24 CL   UNL     1      38.988 -25.379 -12.933  0.00  0.00    -0.075 Cl
ATOM     25  S   UNL     1      36.161 -25.017 -13.768  0.00  0.00    -0.071 S 
ATOM     26  C   UNL     1      35.046 -24.347 -12.699  0.00  0.00    +0.084 C 
ATOM     27  C   UNL     1      35.527 -24.008 -11.492  0.00  0.00    +0.012 C 
ATOM     28  C   UNL     1      36.917 -24.313 -11.416  0.00  0.00    +0.019 C 
ATOM     29  C   UNL     1      37.390 -24.866 -12.585  0.00  0.00    +0.087 C 
ENDBRANCH  22  26
ENDBRANCH  19  21
ENDBRANCH  18  19
ENDBRANCH   2  18
TORSDOF 6
ENDMDL
MODEL 3
REMARK VINA RESULT:     -10.9      5.216     10.187
REMARK  Name = 10250490
REMARK  6 active torsions:
REMARK  status: ('A' for Active; 'I' for Inactive)
REMARK    1  A    between atoms: N_2  and  C_18
REMARK    2  A    between atoms: C_3  and  C_6
REMARK    3  A    between atoms: C_5  and  N_12
REMARK    4  A    between atoms: C_18  and  C_19
REMARK    5  A    between atoms: C_19  and  N_21
REMARK    6  A    between atoms: C_22  and  C_26
REMARK                            x       y       z     vdW  Elec       q    Type
REMARK                         _______ _______ _______ _____ _____    ______ ____
ROOT
ATOM      1  O   UNL     1      35.710 -15.025 -23.777  0.00  0.00    -0.270 OA
ATOM      2  N   UNL     1      34.237 -16.151 -25.168  0.00  0.00    -0.299 N 
ATOM      3  C   UNL     1      35.004 -16.023 -24.005  0.00  0.00    +0.246 C 
ATOM      4  H   UNL     1      33.699 -16.968 -25.285  0.00  0.00    +0.150 HD
ENDROOT
BRANCH   3   6
ATOM      5  C   UNL     1      34.886 -19.253 -21.253  0.00  0.00    +0.058 C 
ATOM      6  C   UNL     1      34.964 -17.130 -23.063  0.00  0.00    +0.053 C 
ATOM      7  C   UNL     1      34.824 -19.501 -22.625  0.00  0.00    +0.015 C 
ATOM      8  C   UNL     1      34.988 -17.941 -20.787  0.00  0.00    +0.015 C 
ATOM      9  C   UNL     1      34.863 -18.440 -23.529  0.00  0.00    +0.006 C 
ATOM     10  C   UNL     1      35.026 -16.880 -21.692  0.00  0.00    +0.006 C 
BRANCH   5  12
ATOM     11  O   UNL     1      32.480 -20.409 -20.140  0.00  0.00    -0.269 OA
ATOM     12  N   UNL     1      34.844 -20.356 -20.314  0.00  0.00    -0.233 N 
ATOM     13  C   UNL     1      33.593 -20.861 -19.871  0.00  0.00    +0.257 C 
ATOM     14  C   UNL     1      36.026 -20.913 -19.822  0.00  0.00    +0.072 C 
ATOM     15  C   UNL     1      33.640 -22.030 -18.940  0.00  0.00    +0.059 C 
ATOM     16  C   UNL     1      36.042 -21.938 -18.963  0.00  0.00    +0.017 C 
ATOM     17  C   UNL     1      34.809 -22.516 -18.516  0.00  0.00    +0.006 C 
ENDBRANCH   5  12
ENDBRANCH   3   6
BRANCH   2  18
ATOM     18  C   UNL     1      34.190 -15.149 -26.209  0.00  0.00    +0.111 C 
BRANCH  18  19
ATOM     19  C   UNL     1      33.044 -14.171 -26.013  0.00  0.00    +0.111 C 
BRANCH  19  21
ATOM     20  O   UNL     1      33.998 -12.110 -24.257  0.00  0.00    -0.270 OA
ATOM     21  N   UNL     1      32.710 -14.004 -24.624  0.00  0.00    -0.299 N 
ATOM     22  C   UNL     1      33.223 -12.971 -23.849  0.00  0.00    +0.252 C 
ATOM     23  H   UNL     1      32.093 -14.648 -24.206  0.00  0.00    +0.150 HD
BRANCH  22  26
ATOM     24 CL   UNL     1      31.303 -11.343 -18.986  0.00  0.00    -0.075 Cl
ATOM     25  S   UNL     1      32.181 -11.509 -21.818  0.00  0.00    -0.071 S 
ATOM     26  C   UNL     1      32.801 -12.952 -22.424  0.00  0.00    +0.084 C 
ATOM     27  C   UNL     1      32.862 -13.971 -21.553  0.00  0.00    +0.012 C 
ATOM     28  C   UNL     1      32.365 -13.560 -20.282  0.00  0.00    +0.019 C 
ATOM     29  C   UNL     1      31.961 -12.243 -20.286  0.00  0.00    +0.087 C 
ENDBRANCH  22  26
ENDBRANCH  19  21
ENDBRANCH  18  19
ENDBRANCH   2  18
TORSDOF 6
ENDMDL
MODEL 4
REMARK VINA RESULT:     -10.7      6.723     11.909
REMARK  Name = 10250490
REMARK  6 active torsions:
REMARK  status: ('A' for Active; 'I' for Inactive)
REMARK    1  A    between atoms: N_2  and  C_18
REMARK    2  A    between atoms: C_3  and  C_6
REMARK    3  A    between atoms: C_5  and  N_12
REMARK    4  A    between atoms: C_18  and  C_19
REMARK    5  A    between atoms: C_19  and  N_21
REMARK    6  A    between atoms: C_22  and  C_26
REMARK                            x       y       z     vdW  Elec       q    Type
REMARK                         _______ _______ _______ _____ _____    ______ ____
ROOT
ATOM      1  O   UNL     1      35.135 -16.134 -25.517  0.00  0.00    -0.270 OA
ATOM      2  N   UNL     1      33.814 -14.915 -24.053  0.00  0.00    -0.299 N 
ATOM      3  C   UNL     1      34.593 -16.023 -24.404  0.00  0.00    +0.246 C 
ATOM      4  H   UNL     1      33.414 -14.891 -23.153  0.00  0.00    +0.150 HD
ENDROOT
BRANCH   3   6
ATOM      5  C   UNL     1      34.993 -19.090 -21.496  0.00  0.00    +0.058 C 
ATOM      6  C   UNL     1      34.731 -17.074 -23.408  0.00  0.00    +0.053 C 
ATOM      7  C   UNL     1      34.845 -19.420 -22.844  0.00  0.00    +0.015 C 
ATOM      8  C   UNL     1      35.011 -17.751 -21.105  0.00  0.00    +0.015 C 
ATOM      9  C   UNL     1      34.714 -18.412 -23.799  0.00  0.00    +0.006 C 
ATOM     10  C   UNL     1      34.879 -16.743 -22.061  0.00  0.00    +0.006 C 
BRANCH   5  12
ATOM     11  O   UNL     1      32.799 -20.485 -20.230  0.00  0.00    -0.269 OA
ATOM     12  N   UNL     1      35.128 -20.138 -20.504  0.00  0.00    -0.233 N 
ATOM     13  C   UNL     1      33.970 -20.775 -19.986  0.00  0.00    +0.257 C 
ATOM     14  C   UNL     1      36.389 -20.512 -20.035  0.00  0.00    +0.072 C 
ATOM     15  C   UNL     1      34.201 -21.878 -19.002  0.00  0.00    +0.059 C 
ATOM     16  C   UNL     1      36.568 -21.479 -19.128  0.00  0.00    +0.017 C 
ATOM     17  C   UNL     1      35.438 -22.185 -18.603  0.00  0.00    +0.006 C 
ENDBRANCH   5  12
ENDBRANCH   3   6
BRANCH   2  18
ATOM     18  C   UNL     1      33.564 -13.801 -24.940  0.00  0.00    +0.111 C 
BRANCH  18  19
ATOM     19  C   UNL     1      34.447 -12.605 -24.623  0.00  0.00    +0.111 C 
BRANCH  19  21
ATOM     20  O   UNL     1      35.207  -9.854 -24.320  0.00  0.00    -0.270 OA
ATOM     21  N   UNL     1      33.741 -11.596 -23.880  0.00  0.00    -0.299 N 
ATOM     22  C   UNL     1      34.186 -10.284 -23.789  0.00  0.00    +0.252 C 
ATOM     23  H   UNL     1      32.908 -11.847 -23.418  0.00  0.00    +0.150 HD
BRANCH  22  26
ATOM     24 CL   UNL     1      32.253  -5.824 -21.266  0.00  0.00    -0.075 Cl
ATOM     25  S   UNL     1      33.828  -7.753 -22.885  0.00  0.00    -0.071 S 
ATOM     26  C   UNL     1      33.358  -9.368 -22.962  0.00  0.00    +0.084 C 
ATOM     27  C   UNL     1      32.261  -9.690 -22.259  0.00  0.00    +0.012 C 
ATOM     28  C   UNL     1      31.748  -8.537 -21.596  0.00  0.00    +0.019 C 
ATOM     29  C   UNL     1      32.505  -7.415 -21.851  0.00  0.00    +0.087 C 
ENDBRANCH  22  26
ENDBRANCH  19  21
ENDBRANCH  18  19
ENDBRANCH   2  18
TORSDOF 6
ENDMDL
MODEL 5
REMARK VINA RESULT:     -10.7      3.476      4.621
REMARK  Name = 10250490
REMARK  6 active torsions:
REMARK  status: ('A' for Active; 'I' for Inactive)
REMARK    1  A    between atoms: N_2  and  C_18
REMARK    2  A    between atoms: C_3  and  C_6
REMARK    3  A    between atoms: C_5  and  N_12
REMARK    4  A    between atoms: C_18  and  C_19
REMARK    5  A    between atoms: C_19  and  N_21
REMARK    6  A    between atoms: C_22  and  C_26
REMARK                            x       y       z     vdW  Elec       q    Type
REMARK                         _______ _______ _______ _____ _____    ______ ____
ROOT
ATOM      1  O   UNL     1      33.837 -24.110 -18.362  0.00  0.00    -0.270 OA
ATOM      2  N   UNL     1      32.739 -22.634 -16.952  0.00  0.00    -0.299 N 
ATOM      3  C   UNL     1      33.462 -22.953 -18.106  0.00  0.00    +0.246 C 
ATOM      4  H   UNL     1      32.472 -21.696 -16.811  0.00  0.00    +0.150 HD
ENDROOT
BRANCH   3   6
ATOM      5  C   UNL     1      34.408 -19.751 -20.728  0.00  0.00    +0.058 C 
ATOM      6  C   UNL     1      33.787 -21.856 -19.005  0.00  0.00    +0.053 C 
ATOM      7  C   UNL     1      35.424 -20.557 -20.215  0.00  0.00    +0.015 C 
ATOM      8  C   UNL     1      33.080 -19.998 -20.378  0.00  0.00    +0.015 C 
ATOM      9  C   UNL     1      35.114 -21.610 -19.355  0.00  0.00    +0.006 C 
ATOM     10  C   UNL     1      32.769 -21.050 -19.517  0.00  0.00    +0.006 C 
BRANCH   5  12
ATOM     11  O   UNL     1      34.858 -19.995 -23.574  0.00  0.00    -0.269 OA
ATOM     12  N   UNL     1      34.731 -18.656 -21.622  0.00  0.00    -0.233 N 
ATOM     13  C   UNL     1      34.889 -18.901 -23.011  0.00  0.00    +0.257 C 
ATOM     14  C   UNL     1      34.911 -17.364 -21.123  0.00  0.00    +0.072 C 
ATOM     15  C   UNL     1      35.175 -17.709 -23.868  0.00  0.00    +0.059 C 
ATOM     16  C   UNL     1      35.200 -16.319 -21.907  0.00  0.00    +0.017 C 
ATOM     17  C   UNL     1      35.328 -16.499 -23.322  0.00  0.00    +0.006 C 
ENDBRANCH   5  12
ENDBRANCH   3   6
BRANCH   2  18
ATOM     18  C   UNL     1      32.361 -23.607 -15.952  0.00  0.00    +0.111 C 
BRANCH  18  19
ATOM     19  C   UNL     1      33.059 -23.367 -14.624  0.00  0.00    +0.111 C 
BRANCH  19  21
ATOM     20  O   UNL     1      35.713 -22.784 -15.550  0.00  0.00    -0.270 OA
ATOM     21  N   UNL     1      34.224 -24.197 -14.470  0.00  0.00    -0.299 N 
ATOM     22  C   UNL     1      35.474 -23.831 -14.954  0.00  0.00    +0.252 C 
ATOM     23  H   UNL     1      34.131 -25.059 -14.003  0.00  0.00    +0.150 HD
BRANCH  22  26
ATOM     24 CL   UNL     1      40.401 -26.054 -14.079  0.00  0.00    -0.075 Cl
ATOM     25  S   UNL     1      38.125 -24.199 -14.521  0.00  0.00    -0.071 S 
ATOM     26  C   UNL     1      36.570 -24.810 -14.737  0.00  0.00    +0.084 C 
ATOM     27  C   UNL     1      36.458 -26.147 -14.695  0.00  0.00    +0.012 C 
ATOM     28  C   UNL     1      37.736 -26.738 -14.469  0.00  0.00    +0.019 C 
ATOM     29  C   UNL     1      38.731 -25.793 -14.354  0.00  0.00    +0.087 C 
ENDBRANCH  22  26
ENDBRANCH  19  21
ENDBRANCH  18  19
ENDBRANCH   2  18
TORSDOF 6
ENDMDL
MODEL 6
REMARK VINA RESULT:     -10.5      7.922     13.008
REMARK  Name = 10250490
REMARK  6 active torsions:
REMARK  status: ('A' for Active; 'I' for Inactive)
REMARK    1  A    between atoms: N_2  and  C_18
REMARK    2  A    between atoms: C_3  and  C_6
REMARK    3  A    between atoms: C_5  and  N_12
REMARK    4  A    between atoms: C_18  and  C_19
REMARK    5  A    between atoms: C_19  and  N_21
REMARK    6  A    between atoms: C_22  and  C_26
REMARK                            x       y       z     vdW  Elec       q    Type
REMARK                         _______ _______ _______ _____ _____    ______ ____
ROOT
ATOM      1  O   UNL     1      33.661 -14.324 -25.004  0.00  0.00    -0.270 OA
ATOM      2  N   UNL     1      34.401 -13.050 -23.214  0.00  0.00    -0.299 N 
ATOM      3  C   UNL     1      34.154 -14.264 -23.864  0.00  0.00    +0.246 C 
ATOM      4  H   UNL     1      34.794 -13.075 -22.311  0.00  0.00    +0.150 HD
ENDROOT
BRANCH   3   6
ATOM      5  C   UNL     1      35.101 -17.814 -21.737  0.00  0.00    +0.058 C 
ATOM      6  C   UNL     1      34.479 -15.481 -23.136  0.00  0.00    +0.053 C 
ATOM      7  C   UNL     1      35.095 -17.816 -23.132  0.00  0.00    +0.015 C 
ATOM      8  C   UNL     1      34.796 -16.643 -21.042  0.00  0.00    +0.015 C 
ATOM      9  C   UNL     1      34.785 -16.650 -23.831  0.00  0.00    +0.006 C 
ATOM     10  C   UNL     1      34.485 -15.477 -21.741  0.00  0.00    +0.006 C 
BRANCH   5  12
ATOM     11  O   UNL     1      37.770 -18.704 -21.069  0.00  0.00    -0.269 OA
ATOM     12  N   UNL     1      35.422 -19.027 -21.011  0.00  0.00    -0.233 N 
ATOM     13  C   UNL     1      36.775 -19.333 -20.710  0.00  0.00    +0.257 C 
ATOM     14  C   UNL     1      34.412 -19.910 -20.624  0.00  0.00    +0.072 C 
ATOM     15  C   UNL     1      37.015 -20.578 -19.916  0.00  0.00    +0.059 C 
ATOM     16  C   UNL     1      34.655 -21.036 -19.944  0.00  0.00    +0.017 C 
ATOM     17  C   UNL     1      35.997 -21.373 -19.575  0.00  0.00    +0.006 C 
ENDBRANCH   5  12
ENDBRANCH   3   6
BRANCH   2  18
ATOM     18  C   UNL     1      34.111 -11.759 -23.795  0.00  0.00    +0.111 C 
BRANCH  18  19
ATOM     19  C   UNL     1      33.078 -10.987 -22.992  0.00  0.00    +0.111 C 
BRANCH  19  21
ATOM     20  O   UNL     1      31.662  -8.906 -21.611  0.00  0.00    -0.270 OA
ATOM     21  N   UNL     1      33.082  -9.585 -23.315  0.00  0.00    -0.299 N 
ATOM     22  C   UNL     1      32.362  -8.646 -22.586  0.00  0.00    +0.252 C 
ATOM     23  H   UNL     1      33.617  -9.280 -24.083  0.00  0.00    +0.150 HD
BRANCH  22  26
ATOM     24 CL   UNL     1      31.321  -3.337 -23.433  0.00  0.00    -0.075 Cl
ATOM     25  S   UNL     1      31.256  -6.171 -22.549  0.00  0.00    -0.071 S 
ATOM     26  C   UNL     1      32.450  -7.242 -23.063  0.00  0.00    +0.084 C 
ATOM     27  C   UNL     1      33.388  -6.724 -23.871  0.00  0.00    +0.012 C 
ATOM     28  C   UNL     1      33.128  -5.341 -24.101  0.00  0.00    +0.019 C 
ATOM     29  C   UNL     1      31.998  -4.911 -23.440  0.00  0.00    +0.087 C 
ENDBRANCH  22  26
ENDBRANCH  19  21
ENDBRANCH  18  19
ENDBRANCH   2  18
TORSDOF 6
ENDMDL
MODEL 7
REMARK VINA RESULT:     -10.5      4.524     10.046
REMARK  Name = 10250490
REMARK  6 active torsions:
REMARK  status: ('A' for Active; 'I' for Inactive)
REMARK    1  A    between atoms: N_2  and  C_18
REMARK    2  A    between atoms: C_3  and  C_6
REMARK    3  A    between atoms: C_5  and  N_12
REMARK    4  A    between atoms: C_18  and  C_19
REMARK    5  A    between atoms: C_19  and  N_21
REMARK    6  A    between atoms: C_22  and  C_26
REMARK                            x       y       z     vdW  Elec       q    Type
REMARK                         _______ _______ _______ _____ _____    ______ ____
ROOT
ATOM      1  O   UNL     1      33.119 -22.279 -19.124  0.00  0.00    -0.270 OA
ATOM      2  N   UNL     1      34.969 -20.928 -19.478  0.00  0.00    -0.299 N 
ATOM      3  C   UNL     1      34.247 -21.896 -18.771  0.00  0.00    +0.246 C 
ATOM      4  H   UNL     1      35.858 -20.671 -19.143  0.00  0.00    +0.150 HD
ENDROOT
BRANCH   3   6
ATOM      5  C   UNL     1      36.053 -23.468 -15.265  0.00  0.00    +0.058 C 
ATOM      6  C   UNL     1      34.866 -22.434 -17.569  0.00  0.00    +0.053 C 
ATOM      7  C   UNL     1      36.795 -22.668 -16.135  0.00  0.00    +0.015 C 
ATOM      8  C   UNL     1      34.716 -23.750 -15.549  0.00  0.00    +0.015 C 
ATOM      9  C   UNL     1      36.202 -22.151 -17.286  0.00  0.00    +0.006 C 
ATOM     10  C   UNL     1      34.123 -23.233 -16.701  0.00  0.00    +0.006 C 
BRANCH   5  12
ATOM     11  O   UNL     1      37.110 -26.145 -14.989  0.00  0.00    -0.269 OA
ATOM     12  N   UNL     1      36.670 -24.006 -14.069  0.00  0.00    -0.233 N 
ATOM     13  C   UNL     1      37.188 -25.327 -14.073  0.00  0.00    +0.257 C 
ATOM     14  C   UNL     1      36.740 -23.241 -12.903  0.00  0.00    +0.072 C 
ATOM     15  C   UNL     1      37.851 -25.786 -12.813  0.00  0.00    +0.059 C 
ATOM     16  C   UNL     1      37.308 -23.686 -11.777  0.00  0.00    +0.017 C 
ATOM     17  C   UNL     1      37.886 -24.996 -11.737  0.00  0.00    +0.006 C 
ENDBRANCH   5  12
ENDBRANCH   3   6
BRANCH   2  18
ATOM     18  C   UNL     1      34.480 -20.284 -20.676  0.00  0.00    +0.111 C 
BRANCH  18  19
ATOM     19  C   UNL     1      35.548 -19.440 -21.351  0.00  0.00    +0.111 C 
BRANCH  19  21
ATOM     20  O   UNL     1      35.071 -17.793 -23.653  0.00  0.00    -0.270 OA
ATOM     21  N   UNL     1      35.209 -18.042 -21.351  0.00  0.00    -0.299 N 
ATOM     22  C   UNL     1      34.995 -17.323 -22.521  0.00  0.00    +0.252 C 
ATOM     23  H   UNL     1      35.126 -17.576 -20.488  0.00  0.00    +0.150 HD
BRANCH  22  26
ATOM     24 CL   UNL     1      33.882 -12.061 -23.547  0.00  0.00    -0.075 Cl
ATOM     25  S   UNL     1      34.514 -14.955 -23.750  0.00  0.00    -0.071 S 
ATOM     26  C   UNL     1      34.679 -15.881 -22.353  0.00  0.00    +0.084 C 
ATOM     27  C   UNL     1      34.509 -15.224 -21.195  0.00  0.00    +0.012 C 
ATOM     28  C   UNL     1      34.219 -13.852 -21.449  0.00  0.00    +0.019 C 
ATOM     29  C   UNL     1      34.191 -13.570 -22.797  0.00  0.00    +0.087 C 
ENDBRANCH  22  26
ENDBRANCH  19  21
ENDBRANCH  18  19
ENDBRANCH   2  18
TORSDOF 6
ENDMDL
MODEL 8
REMARK VINA RESULT:     -10.4      3.049      4.806
REMARK  Name = 10250490
REMARK  6 active torsions:
REMARK  status: ('A' for Active; 'I' for Inactive)
REMARK    1  A    between atoms: N_2  and  C_18
REMARK    2  A    between atoms: C_3  and  C_6
REMARK    3  A    between atoms: C_5  and  N_12
REMARK    4  A    between atoms: C_18  and  C_19
REMARK    5  A    between atoms: C_19  and  N_21
REMARK    6  A    between atoms: C_22  and  C_26
REMARK                            x       y       z     vdW  Elec       q    Type
REMARK                         _______ _______ _______ _____ _____    ______ ____
ROOT
ATOM      1  O   UNL     1      37.398 -19.403 -20.285  0.00  0.00    -0.270 OA
ATOM      2  N   UNL     1      35.272 -20.328 -20.273  0.00  0.00    -0.299 N 
ATOM      3  C   UNL     1      36.210 -19.360 -20.649  0.00  0.00    +0.246 C 
ATOM      4  H   UNL     1      34.348 -20.233 -20.598  0.00  0.00    +0.150 HD
ENDROOT
BRANCH   3   6
ATOM      5  C   UNL     1      34.815 -16.163 -23.069  0.00  0.00    +0.058 C 
ATOM      6  C   UNL     1      35.732 -18.265 -21.479  0.00  0.00    +0.053 C 
ATOM      7  C   UNL     1      35.298 -17.330 -23.663  0.00  0.00    +0.015 C 
ATOM      8  C   UNL     1      34.791 -16.049 -21.678  0.00  0.00    +0.015 C 
ATOM      9  C   UNL     1      35.756 -18.380 -22.868  0.00  0.00    +0.006 C 
ATOM     10  C   UNL     1      35.249 -17.099 -20.884  0.00  0.00    +0.006 C 
BRANCH   5  12
ATOM     11  O   UNL     1      34.143 -16.361 -25.875  0.00  0.00    -0.269 OA
ATOM     12  N   UNL     1      34.341 -15.071 -23.896  0.00  0.00    -0.233 N 
ATOM     13  C   UNL     1      34.006 -15.306 -25.254  0.00  0.00    +0.257 C 
ATOM     14  C   UNL     1      34.232 -13.781 -23.372  0.00  0.00    +0.072 C 
ATOM     15  C   UNL     1      33.479 -14.136 -26.023  0.00  0.00    +0.059 C 
ATOM     16  C   UNL     1      33.790 -12.742 -24.089  0.00  0.00    +0.017 C 
ATOM     17  C   UNL     1      33.396 -12.931 -25.453  0.00  0.00    +0.006 C 
ENDBRANCH   5  12
ENDBRANCH   3   6
BRANCH   2  18
ATOM     18  C   UNL     1      35.587 -21.461 -19.433  0.00  0.00    +0.111 C 
BRANCH  18  19
ATOM     19  C   UNL     1      34.380 -22.353 -19.196  0.00  0.00    +0.111 C 
BRANCH  19  21
ATOM     20  O   UNL     1      31.995 -22.549 -17.610  0.00  0.00    -0.270 OA
ATOM     21  N   UNL     1      34.292 -22.788 -17.828  0.00  0.00    -0.299 N 
ATOM     22  C   UNL     1      33.088 -22.850 -17.137  0.00  0.00    +0.252 C 
ATOM     23  H   UNL     1      35.119 -23.051 -17.362  0.00  0.00    +0.150 HD
BRANCH  22  26
ATOM     24 CL   UNL     1      34.986 -24.571 -12.298  0.00  0.00    -0.075 Cl
ATOM     25  S   UNL     1      34.693 -23.671 -15.112  0.00  0.00    -0.071 S 
ATOM     26  C   UNL     1      33.169 -23.295 -15.722  0.00  0.00    +0.084 C 
ATOM     27  C   UNL     1      32.147 -23.433 -14.863  0.00  0.00    +0.012 C 
ATOM     28  C   UNL     1      32.628 -23.882 -13.598  0.00  0.00    +0.019 C 
ATOM     29  C   UNL     1      33.995 -24.051 -13.595  0.00  0.00    +0.087 C 
ENDBRANCH  22  26
ENDBRANCH  19  21
ENDBRANCH  18  19
ENDBRANCH   2  18
TORSDOF 6
ENDMDL
MODEL 9
REMARK VINA RESULT:     -10.4      7.458     12.567
REMARK  Name = 10250490
REMARK  6 active torsions:
REMARK  status: ('A' for Active; 'I' for Inactive)
REMARK    1  A    between atoms: N_2  and  C_18
REMARK    2  A    between atoms: C_3  and  C_6
REMARK    3  A    between atoms: C_5  and  N_12
REMARK    4  A    between atoms: C_18  and  C_19
REMARK    5  A    between atoms: C_19  and  N_21
REMARK    6  A    between atoms: C_22  and  C_26
REMARK                            x       y       z     vdW  Elec       q    Type
REMARK                         _______ _______ _______ _____ _____    ______ ____
ROOT
ATOM      1  O   UNL     1      33.787 -14.761 -25.663  0.00  0.00    -0.270 OA
ATOM      2  N   UNL     1      34.118 -13.322 -23.876  0.00  0.00    -0.299 N 
ATOM      3  C   UNL     1      34.102 -14.587 -24.473  0.00  0.00    +0.246 C 
ATOM      4  H   UNL     1      34.378 -13.256 -22.928  0.00  0.00    +0.150 HD
ENDROOT
BRANCH   3   6
ATOM      5  C   UNL     1      35.122 -17.890 -22.010  0.00  0.00    +0.058 C 
ATOM      6  C   UNL     1      34.453 -15.719 -23.630  0.00  0.00    +0.053 C 
ATOM      7  C   UNL     1      35.032 -18.052 -23.393  0.00  0.00    +0.015 C 
ATOM      8  C   UNL     1      34.878 -16.641 -21.437  0.00  0.00    +0.015 C 
ATOM      9  C   UNL     1      34.697 -16.967 -24.202  0.00  0.00    +0.006 C 
ATOM     10  C   UNL     1      34.543 -15.556 -22.247  0.00  0.00    +0.006 C 
BRANCH   5  12
ATOM     11  O   UNL     1      37.805 -18.621 -21.215  0.00  0.00    -0.269 OA
ATOM     12  N   UNL     1      35.469 -19.019 -21.169  0.00  0.00    -0.233 N 
ATOM     13  C   UNL     1      36.824 -19.248 -20.816  0.00  0.00    +0.257 C 
ATOM     14  C   UNL     1      34.481 -19.897 -20.720  0.00  0.00    +0.072 C 
ATOM     15  C   UNL     1      37.088 -20.406 -19.906  0.00  0.00    +0.059 C 
ATOM     16  C   UNL     1      34.746 -20.947 -19.934  0.00  0.00    +0.017 C 
ATOM     17  C   UNL     1      36.091 -21.202 -19.511  0.00  0.00    +0.006 C 
ENDBRANCH   5  12
ENDBRANCH   3   6
BRANCH   2  18
ATOM     18  C   UNL     1      33.772 -12.104 -24.575  0.00  0.00    +0.111 C 
BRANCH  18  19
ATOM     19  C   UNL     1      34.586 -10.915 -24.092  0.00  0.00    +0.111 C 
BRANCH  19  21
ATOM     20  O   UNL     1      35.193  -8.150 -23.616  0.00  0.00    -0.270 OA
ATOM     21  N   UNL     1      33.783  -9.974 -23.359  0.00  0.00    -0.299 N 
ATOM     22  C   UNL     1      34.159  -8.649 -23.179  0.00  0.00    +0.252 C 
ATOM     23  H   UNL     1      32.933 -10.282 -22.969  0.00  0.00    +0.150 HD
BRANCH  22  26
ATOM     24 CL   UNL     1      30.247  -5.106 -21.719  0.00  0.00    -0.075 Cl
ATOM     25  S   UNL     1      32.151  -6.827 -23.212  0.00  0.00    -0.071 S 
ATOM     26  C   UNL     1      33.232  -7.811 -22.375  0.00  0.00    +0.084 C 
ATOM     27  C   UNL     1      33.160  -7.748 -21.036  0.00  0.00    +0.012 C 
ATOM     28  C   UNL     1      32.145  -6.828 -20.643  0.00  0.00    +0.019 C 
ATOM     29  C   UNL     1      31.517  -6.256 -21.727  0.00  0.00    +0.087 C 
ENDBRANCH  22  26
ENDBRANCH  19  21
ENDBRANCH  18  19
ENDBRANCH   2  18
TORSDOF 6
ENDMDL
