MODEL 1
REMARK VINA RESULT:     -11.4      0.000      0.000
REMARK  Name = 447653
REMARK  8 active torsions:
REMARK  status: ('A' for Active; 'I' for Inactive)
REMARK    1  A    between atoms: N_2  and  C_20
REMARK    2  A    between atoms: C_4  and  C_11
REMARK    3  A    between atoms: C_19  and  O_25
REMARK    4  A    between atoms: O_25  and  C_26
REMARK    5  A    between atoms: C_26  and  C_27
REMARK    6  A    between atoms: C_27  and  O_28
REMARK    7  A    between atoms: C_27  and  C_30
REMARK    8  A    between atoms: C_30  and  N_31
REMARK                            x       y       z     vdW  Elec       q    Type
REMARK                         _______ _______ _______ _____ _____    ______ ____
ROOT
ATOM      1  N   UNL     1      34.544 -22.900 -16.742  0.00  0.00    -0.340 NA
ATOM      2  N   UNL     1      32.821 -22.126 -18.134  0.00  0.00    -0.247 N 
ATOM      3  N   UNL     1      32.235 -23.363 -16.228  0.00  0.00    -0.170 NA
ATOM      4  C   UNL     1      34.883 -23.581 -15.630  0.00  0.00    +0.148 C 
ATOM      5  C   UNL     1      33.978 -24.172 -14.779  0.00  0.00    +0.052 C 
ATOM      6  C   UNL     1      33.219 -22.831 -16.978  0.00  0.00    +0.148 C 
ATOM      7  C   UNL     1      32.652 -24.029 -15.132  0.00  0.00    +0.114 C 
ATOM      8  H   UNL     1      31.846 -22.101 -18.266  0.00  0.00    +0.165 HD
ENDROOT
BRANCH   4  11
ATOM      9  N   UNL     1      36.948 -24.736 -14.840  0.00  0.00    -0.251 N 
ATOM     10  N   UNL     1      38.521 -23.194 -15.226  0.00  0.00    -0.393 NA
ATOM     11  C   UNL     1      36.305 -23.652 -15.381  0.00  0.00    +0.181 C 
ATOM     12  C   UNL     1      38.299 -24.407 -14.764  0.00  0.00    +0.187 C 
ATOM     13  C   UNL     1      37.291 -22.722 -15.609  0.00  0.00    +0.114 C 
ATOM     14  C   UNL     1      36.427 -25.958 -14.422  0.00  0.00    +0.068 C 
ATOM     15  C   UNL     1      39.176 -25.395 -14.225  0.00  0.00    +0.048 C 
ATOM     16  C   UNL     1      37.166 -21.370 -16.179  0.00  0.00    +0.064 C 
ATOM     17  C   UNL     1      37.260 -26.882 -13.916  0.00  0.00    +0.016 C 
ATOM     18  C   UNL     1      38.679 -26.579 -13.820  0.00  0.00    +0.005 C 
ENDBRANCH   4  11
BRANCH   2  20
ATOM     19  C   UNL     1      34.979 -20.111 -21.122  0.00  0.00    +0.139 C 
ATOM     20  C   UNL     1      33.545 -21.452 -19.136  0.00  0.00    +0.058 C 
ATOM     21  C   UNL     1      35.640 -20.966 -20.240  0.00  0.00    +0.038 C 
ATOM     22  C   UNL     1      33.601 -19.925 -21.011  0.00  0.00    +0.038 C 
ATOM     23  C   UNL     1      34.924 -21.636 -19.248  0.00  0.00    +0.018 C 
ATOM     24  C   UNL     1      32.884 -20.594 -20.019  0.00  0.00    +0.018 C 
BRANCH  19  25
ATOM     25  O   UNL     1      35.679 -19.458 -22.090  0.00  0.00    -0.473 OA
BRANCH  25  26
ATOM     26  C   UNL     1      34.923 -18.822 -23.120  0.00  0.00    +0.232 C 
BRANCH  26  27
ATOM     27  C   UNL     1      35.100 -17.311 -23.000  0.00  0.00    +0.133 C 
BRANCH  27  28
ATOM     28  O   UNL     1      36.406 -17.042 -22.482  0.00  0.00    -0.383 OA
ATOM     29  H   UNL     1      36.669 -16.139 -22.720  0.00  0.00    +0.210 HD
ENDBRANCH  27  28
BRANCH  27  30
ATOM     30  C   UNL     1      34.955 -16.576 -24.335  0.00  0.00    -0.044 C 
BRANCH  30  31
ATOM     31  N   UNL     1      33.954 -15.519 -24.273  0.00  0.00    +0.386 N 
ATOM     32  C   UNL     1      34.402 -14.436 -23.395  0.00  0.00    -0.101 C 
ATOM     33  C   UNL     1      33.667 -15.001 -25.612  0.00  0.00    -0.101 C 
ATOM     34  H   UNL     1      33.099 -15.917 -23.886  0.00  0.00    -0.080 HD
ENDBRANCH  30  31
ENDBRANCH  27  30
ENDBRANCH  26  27
ENDBRANCH  25  26
ENDBRANCH  19  25
ENDBRANCH   2  20
TORSDOF 8
ENDMDL
MODEL 2
REMARK VINA RESULT:     -11.1      1.616      1.829
REMARK  Name = 447653
REMARK  8 active torsions:
REMARK  status: ('A' for Active; 'I' for Inactive)
REMARK    1  A    between atoms: N_2  and  C_20
REMARK    2  A    between atoms: C_4  and  C_11
REMARK    3  A    between atoms: C_19  and  O_25
REMARK    4  A    between atoms: O_25  and  C_26
REMARK    5  A    between atoms: C_26  and  C_27
REMARK    6  A    between atoms: C_27  and  O_28
REMARK    7  A    between atoms: C_27  and  C_30
REMARK    8  A    between atoms: C_30  and  N_31
REMARK                            x       y       z     vdW  Elec       q    Type
REMARK                         _______ _______ _______ _____ _____    ______ ____
ROOT
ATOM      1  N   UNL     1      34.051 -22.847 -16.318  0.00  0.00    -0.340 NA
ATOM      2  N   UNL     1      32.626 -22.391 -18.125  0.00  0.00    -0.247 N 
ATOM      3  N   UNL     1      31.764 -23.608 -16.312  0.00  0.00    -0.170 NA
ATOM      4  C   UNL     1      34.199 -23.420 -15.108  0.00  0.00    +0.148 C 
ATOM      5  C   UNL     1      33.200 -24.093 -14.443  0.00  0.00    +0.052 C 
ATOM      6  C   UNL     1      32.823 -22.977 -16.856  0.00  0.00    +0.148 C 
ATOM      7  C   UNL     1      31.989 -24.156 -15.101  0.00  0.00    +0.114 C 
ATOM      8  H   UNL     1      31.714 -22.510 -18.478  0.00  0.00    +0.165 HD
ENDROOT
BRANCH   4  11
ATOM      9  N   UNL     1      35.847 -23.613 -13.245  0.00  0.00    -0.251 N 
ATOM     10  N   UNL     1      37.718 -22.842 -14.198  0.00  0.00    -0.393 NA
ATOM     11  C   UNL     1      35.518 -23.278 -14.534  0.00  0.00    +0.181 C 
ATOM     12  C   UNL     1      37.201 -23.327 -13.088  0.00  0.00    +0.187 C 
ATOM     13  C   UNL     1      36.681 -22.809 -15.096  0.00  0.00    +0.114 C 
ATOM     14  C   UNL     1      35.048 -24.138 -12.234  0.00  0.00    +0.068 C 
ATOM     15  C   UNL     1      37.775 -23.597 -11.811  0.00  0.00    +0.048 C 
ATOM     16  C   UNL     1      36.906 -22.311 -16.463  0.00  0.00    +0.064 C 
ATOM     17  C   UNL     1      35.596 -24.389 -11.034  0.00  0.00    +0.016 C 
ATOM     18  C   UNL     1      37.007 -24.105 -10.828  0.00  0.00    +0.005 C 
ENDBRANCH   4  11
BRANCH   2  20
ATOM     19  C   UNL     1      35.160 -20.232 -20.686  0.00  0.00    +0.139 C 
ATOM     20  C   UNL     1      33.475 -21.668 -18.983  0.00  0.00    +0.058 C 
ATOM     21  C   UNL     1      35.678 -21.253 -19.888  0.00  0.00    +0.038 C 
ATOM     22  C   UNL     1      33.799 -19.929 -20.632  0.00  0.00    +0.038 C 
ATOM     23  C   UNL     1      34.837 -21.970 -19.038  0.00  0.00    +0.018 C 
ATOM     24  C   UNL     1      32.958 -20.646 -19.781  0.00  0.00    +0.018 C 
BRANCH  19  25
ATOM     25  O   UNL     1      35.982 -19.533 -21.515  0.00  0.00    -0.473 OA
BRANCH  25  26
ATOM     26  C   UNL     1      35.992 -18.113 -21.372  0.00  0.00    +0.232 C 
BRANCH  26  27
ATOM     27  C   UNL     1      35.563 -17.482 -22.694  0.00  0.00    +0.133 C 
BRANCH  27  28
ATOM     28  O   UNL     1      34.947 -18.486 -23.504  0.00  0.00    -0.383 OA
ATOM     29  H   UNL     1      34.284 -18.076 -24.081  0.00  0.00    +0.210 HD
ENDBRANCH  27  28
BRANCH  27  30
ATOM     30  C   UNL     1      34.568 -16.332 -22.521  0.00  0.00    -0.044 C 
BRANCH  30  31
ATOM     31  N   UNL     1      34.863 -15.214 -23.408  0.00  0.00    +0.386 N 
ATOM     32  C   UNL     1      34.114 -15.338 -24.661  0.00  0.00    -0.101 C 
ATOM     33  C   UNL     1      34.551 -13.941 -22.756  0.00  0.00    -0.101 C 
ATOM     34  H   UNL     1      35.859 -15.235 -23.623  0.00  0.00    -0.080 HD
ENDBRANCH  30  31
ENDBRANCH  27  30
ENDBRANCH  26  27
ENDBRANCH  25  26
ENDBRANCH  19  25
ENDBRANCH   2  20
TORSDOF 8
ENDMDL
MODEL 3
REMARK VINA RESULT:     -10.6      2.897     11.568
REMARK  Name = 447653
REMARK  8 active torsions:
REMARK  status: ('A' for Active; 'I' for Inactive)
REMARK    1  A    between atoms: N_2  and  C_20
REMARK    2  A    between atoms: C_4  and  C_11
REMARK    3  A    between atoms: C_19  and  O_25
REMARK    4  A    between atoms: O_25  and  C_26
REMARK    5  A    between atoms: C_26  and  C_27
REMARK    6  A    between atoms: C_27  and  O_28
REMARK    7  A    between atoms: C_27  and  C_30
REMARK    8  A    between atoms: C_30  and  N_31
REMARK                            x       y       z     vdW  Elec       q    Type
REMARK                         _______ _______ _______ _____ _____    ______ ____
ROOT
ATOM      1  N   UNL     1      33.808 -15.036 -23.323  0.00  0.00    -0.340 NA
ATOM      2  N   UNL     1      34.816 -16.895 -24.339  0.00  0.00    -0.247 N 
ATOM      3  N   UNL     1      34.149 -15.109 -25.708  0.00  0.00    -0.170 NA
ATOM      4  C   UNL     1      33.255 -13.819 -23.483  0.00  0.00    +0.148 C 
ATOM      5  C   UNL     1      33.112 -13.187 -24.698  0.00  0.00    +0.052 C 
ATOM      6  C   UNL     1      34.229 -15.617 -24.463  0.00  0.00    +0.148 C 
ATOM      7  C   UNL     1      33.583 -13.888 -25.789  0.00  0.00    +0.114 C 
ATOM      8  H   UNL     1      35.109 -17.281 -25.197  0.00  0.00    +0.165 HD
ENDROOT
BRANCH   4  11
ATOM      9  N   UNL     1      32.556 -11.858 -22.109  0.00  0.00    -0.251 N 
ATOM     10  N   UNL     1      32.127 -12.806 -20.129  0.00  0.00    -0.393 NA
ATOM     11  C   UNL     1      32.805 -13.198 -22.258  0.00  0.00    +0.181 C 
ATOM     12  C   UNL     1      32.146 -11.668 -20.792  0.00  0.00    +0.187 C 
ATOM     13  C   UNL     1      32.534 -13.756 -21.031  0.00  0.00    +0.114 C 
ATOM     14  C   UNL     1      32.667 -10.827 -23.038  0.00  0.00    +0.068 C 
ATOM     15  C   UNL     1      31.828 -10.334 -20.399  0.00  0.00    +0.048 C 
ATOM     16  C   UNL     1      32.632 -15.167 -20.622  0.00  0.00    +0.064 C 
ATOM     17  C   UNL     1      32.366  -9.574 -22.660  0.00  0.00    +0.016 C 
ATOM     18  C   UNL     1      31.933  -9.332 -21.293  0.00  0.00    +0.005 C 
ENDBRANCH   4  11
BRANCH   2  20
ATOM     19  C   UNL     1      35.561 -19.372 -21.030  0.00  0.00    +0.139 C 
ATOM     20  C   UNL     1      35.066 -17.726 -23.231  0.00  0.00    +0.058 C 
ATOM     21  C   UNL     1      34.943 -19.893 -22.167  0.00  0.00    +0.038 C 
ATOM     22  C   UNL     1      35.930 -18.027 -20.992  0.00  0.00    +0.038 C 
ATOM     23  C   UNL     1      34.696 -19.071 -23.266  0.00  0.00    +0.018 C 
ATOM     24  C   UNL     1      35.682 -17.205 -22.091  0.00  0.00    +0.018 C 
BRANCH  19  25
ATOM     25  O   UNL     1      35.801 -20.175 -19.957  0.00  0.00    -0.473 OA
BRANCH  25  26
ATOM     26  C   UNL     1      35.304 -21.510 -20.022  0.00  0.00    +0.232 C 
BRANCH  26  27
ATOM     27  C   UNL     1      34.229 -21.688 -18.953  0.00  0.00    +0.133 C 
BRANCH  27  28
ATOM     28  O   UNL     1      33.048 -20.998 -19.369  0.00  0.00    -0.383 OA
ATOM     29  H   UNL     1      32.478 -21.603 -19.869  0.00  0.00    +0.210 HD
ENDBRANCH  27  28
BRANCH  27  30
ATOM     30  C   UNL     1      33.862 -23.153 -18.701  0.00  0.00    -0.044 C 
BRANCH  30  31
ATOM     31  N   UNL     1      33.925 -23.498 -17.287  0.00  0.00    +0.386 N 
ATOM     32  C   UNL     1      35.030 -22.793 -16.633  0.00  0.00    -0.101 C 
ATOM     33  C   UNL     1      32.659 -23.185 -16.621  0.00  0.00    -0.101 C 
ATOM     34  H   UNL     1      34.092 -24.501 -17.214  0.00  0.00    -0.080 HD
ENDBRANCH  30  31
ENDBRANCH  27  30
ENDBRANCH  26  27
ENDBRANCH  25  26
ENDBRANCH  19  25
ENDBRANCH   2  20
TORSDOF 8
ENDMDL
MODEL 4
REMARK VINA RESULT:     -10.5      2.876     11.302
REMARK  Name = 447653
REMARK  8 active torsions:
REMARK  status: ('A' for Active; 'I' for Inactive)
REMARK    1  A    between atoms: N_2  and  C_20
REMARK    2  A    between atoms: C_4  and  C_11
REMARK    3  A    between atoms: C_19  and  O_25
REMARK    4  A    between atoms: O_25  and  C_26
REMARK    5  A    between atoms: C_26  and  C_27
REMARK    6  A    between atoms: C_27  and  O_28
REMARK    7  A    between atoms: C_27  and  C_30
REMARK    8  A    between atoms: C_30  and  N_31
REMARK                            x       y       z     vdW  Elec       q    Type
REMARK                         _______ _______ _______ _____ _____    ______ ____
ROOT
ATOM      1  N   UNL     1      34.166 -15.710 -22.974  0.00  0.00    -0.340 NA
ATOM      2  N   UNL     1      35.302 -17.541 -23.902  0.00  0.00    -0.247 N 
ATOM      3  N   UNL     1      34.526 -15.867 -25.352  0.00  0.00    -0.170 NA
ATOM      4  C   UNL     1      33.533 -14.542 -23.190  0.00  0.00    +0.148 C 
ATOM      5  C   UNL     1      33.356 -13.975 -24.432  0.00  0.00    +0.052 C 
ATOM      6  C   UNL     1      34.632 -16.312 -24.085  0.00  0.00    +0.148 C 
ATOM      7  C   UNL     1      33.879 -14.691 -25.489  0.00  0.00    +0.114 C 
ATOM      8  H   UNL     1      35.626 -17.944 -24.741  0.00  0.00    +0.165 HD
ENDROOT
BRANCH   4  11
ATOM      9  N   UNL     1      32.687 -12.575 -21.909  0.00  0.00    -0.251 N 
ATOM     10  N   UNL     1      32.323 -13.458 -19.887  0.00  0.00    -0.393 NA
ATOM     11  C   UNL     1      33.034 -13.899 -21.995  0.00  0.00    +0.181 C 
ATOM     12  C   UNL     1      32.260 -12.354 -20.602  0.00  0.00    +0.187 C 
ATOM     13  C   UNL     1      32.801 -14.418 -20.744  0.00  0.00    +0.114 C 
ATOM     14  C   UNL     1      32.725 -11.583 -22.885  0.00  0.00    +0.068 C 
ATOM     15  C   UNL     1      31.844 -11.030 -20.273  0.00  0.00    +0.048 C 
ATOM     16  C   UNL     1      33.001 -15.796 -20.268  0.00  0.00    +0.064 C 
ATOM     17  C   UNL     1      32.332 -10.340 -22.567  0.00  0.00    +0.016 C 
ATOM     18  C   UNL     1      31.878 -10.067 -21.213  0.00  0.00    +0.005 C 
ENDBRANCH   4  11
BRANCH   2  20
ATOM     19  C   UNL     1      36.191 -19.816 -20.486  0.00  0.00    +0.139 C 
ATOM     20  C   UNL     1      35.600 -18.303 -22.757  0.00  0.00    +0.058 C 
ATOM     21  C   UNL     1      37.129 -18.913 -20.986  0.00  0.00    +0.038 C 
ATOM     22  C   UNL     1      34.958 -19.964 -21.121  0.00  0.00    +0.038 C 
ATOM     23  C   UNL     1      36.834 -18.157 -22.120  0.00  0.00    +0.018 C 
ATOM     24  C   UNL     1      34.663 -19.209 -22.256  0.00  0.00    +0.018 C 
BRANCH  19  25
ATOM     25  O   UNL     1      36.479 -20.554 -19.378  0.00  0.00    -0.473 OA
BRANCH  25  26
ATOM     26  C   UNL     1      35.959 -21.882 -19.330  0.00  0.00    +0.232 C 
BRANCH  26  27
ATOM     27  C   UNL     1      35.340 -22.119 -17.955  0.00  0.00    +0.133 C 
BRANCH  27  28
ATOM     28  O   UNL     1      34.561 -23.317 -18.003  0.00  0.00    -0.383 OA
ATOM     29  H   UNL     1      33.659 -23.107 -18.291  0.00  0.00    +0.210 HD
ENDBRANCH  27  28
BRANCH  27  30
ATOM     30  C   UNL     1      36.377 -22.268 -16.840  0.00  0.00    -0.044 C 
BRANCH  30  31
ATOM     31  N   UNL     1      36.001 -23.292 -15.875  0.00  0.00    +0.386 N 
ATOM     32  C   UNL     1      37.182 -23.801 -15.175  0.00  0.00    -0.101 C 
ATOM     33  C   UNL     1      35.031 -22.764 -14.914  0.00  0.00    -0.101 C 
ATOM     34  H   UNL     1      35.569 -24.063 -16.384  0.00  0.00    -0.080 HD
ENDBRANCH  30  31
ENDBRANCH  27  30
ENDBRANCH  26  27
ENDBRANCH  25  26
ENDBRANCH  19  25
ENDBRANCH   2  20
TORSDOF 8
ENDMDL
MODEL 5
REMARK VINA RESULT:     -10.2      1.896      2.801
REMARK  Name = 447653
REMARK  8 active torsions:
REMARK  status: ('A' for Active; 'I' for Inactive)
REMARK    1  A    between atoms: N_2  and  C_20
REMARK    2  A    between atoms: C_4  and  C_11
REMARK    3  A    between atoms: C_19  and  O_25
REMARK    4  A    between atoms: O_25  and  C_26
REMARK    5  A    between atoms: C_26  and  C_27
REMARK    6  A    between atoms: C_27  and  O_28
REMARK    7  A    between atoms: C_27  and  C_30
REMARK    8  A    between atoms: C_30  and  N_31
REMARK                            x       y       z     vdW  Elec       q    Type
REMARK                         _______ _______ _______ _____ _____    ______ ____
ROOT
ATOM      1  N   UNL     1      34.134 -23.923 -15.406  0.00  0.00    -0.340 NA
ATOM      2  N   UNL     1      32.617 -22.832 -16.826  0.00  0.00    -0.247 N 
ATOM      3  N   UNL     1      31.766 -23.966 -14.955  0.00  0.00    -0.170 NA
ATOM      4  C   UNL     1      34.315 -24.668 -14.299  0.00  0.00    +0.148 C 
ATOM      5  C   UNL     1      33.295 -25.096 -13.479  0.00  0.00    +0.052 C 
ATOM      6  C   UNL     1      32.850 -23.612 -15.672  0.00  0.00    +0.148 C 
ATOM      7  C   UNL     1      32.027 -24.711 -13.862  0.00  0.00    +0.114 C 
ATOM      8  H   UNL     1      31.666 -22.629 -16.980  0.00  0.00    +0.165 HD
ENDROOT
BRANCH   4  11
ATOM      9  N   UNL     1      36.458 -24.397 -13.051  0.00  0.00    -0.251 N 
ATOM     10  N   UNL     1      37.763 -25.925 -14.032  0.00  0.00    -0.393 NA
ATOM     11  C   UNL     1      35.693 -24.999 -14.017  0.00  0.00    +0.181 C 
ATOM     12  C   UNL     1      37.714 -24.996 -13.100  0.00  0.00    +0.187 C 
ATOM     13  C   UNL     1      36.516 -25.932 -14.603  0.00  0.00    +0.114 C 
ATOM     14  C   UNL     1      36.121 -23.383 -12.159  0.00  0.00    +0.068 C 
ATOM     15  C   UNL     1      38.691 -24.525 -12.174  0.00  0.00    +0.048 C 
ATOM     16  C   UNL     1      36.213 -26.865 -15.701  0.00  0.00    +0.064 C 
ATOM     17  C   UNL     1      37.047 -22.945 -11.291  0.00  0.00    +0.016 C 
ATOM     18  C   UNL     1      38.372 -23.544 -11.308  0.00  0.00    +0.005 C 
ENDBRANCH   4  11
BRANCH   2  20
ATOM     19  C   UNL     1      35.181 -21.203 -19.726  0.00  0.00    +0.139 C 
ATOM     20  C   UNL     1      33.477 -22.287 -17.797  0.00  0.00    +0.058 C 
ATOM     21  C   UNL     1      35.708 -21.932 -18.659  0.00  0.00    +0.038 C 
ATOM     22  C   UNL     1      33.803 -21.015 -19.829  0.00  0.00    +0.038 C 
ATOM     23  C   UNL     1      34.856 -22.474 -17.696  0.00  0.00    +0.018 C 
ATOM     24  C   UNL     1      32.951 -21.556 -18.865  0.00  0.00    +0.018 C 
BRANCH  19  25
ATOM     25  O   UNL     1      36.013 -20.675 -20.666  0.00  0.00    -0.473 OA
BRANCH  25  26
ATOM     26  C   UNL     1      37.064 -19.831 -20.200  0.00  0.00    +0.232 C 
BRANCH  26  27
ATOM     27  C   UNL     1      37.017 -18.514 -20.971  0.00  0.00    +0.133 C 
BRANCH  27  28
ATOM     28  O   UNL     1      37.913 -18.602 -22.083  0.00  0.00    -0.383 OA
ATOM     29  H   UNL     1      38.816 -18.412 -21.787  0.00  0.00    +0.210 HD
ENDBRANCH  27  28
BRANCH  27  30
ATOM     30  C   UNL     1      35.624 -18.175 -21.506  0.00  0.00    -0.044 C 
BRANCH  30  31
ATOM     31  N   UNL     1      35.574 -18.205 -22.962  0.00  0.00    +0.386 N 
ATOM     32  C   UNL     1      34.751 -19.324 -23.427  0.00  0.00    -0.101 C 
ATOM     33  C   UNL     1      35.054 -16.941 -23.487  0.00  0.00    -0.101 C 
ATOM     34  H   UNL     1      36.524 -18.335 -23.308  0.00  0.00    -0.080 HD
ENDBRANCH  30  31
ENDBRANCH  27  30
ENDBRANCH  26  27
ENDBRANCH  25  26
ENDBRANCH  19  25
ENDBRANCH   2  20
TORSDOF 8
ENDMDL
MODEL 6
REMARK VINA RESULT:      -9.7      1.752      4.113
REMARK  Name = 447653
REMARK  8 active torsions:
REMARK  status: ('A' for Active; 'I' for Inactive)
REMARK    1  A    between atoms: N_2  and  C_20
REMARK    2  A    between atoms: C_4  and  C_11
REMARK    3  A    between atoms: C_19  and  O_25
REMARK    4  A    between atoms: O_25  and  C_26
REMARK    5  A    between atoms: C_26  and  C_27
REMARK    6  A    between atoms: C_27  and  O_28
REMARK    7  A    between atoms: C_27  and  C_30
REMARK    8  A    between atoms: C_30  and  N_31
REMARK                            x       y       z     vdW  Elec       q    Type
REMARK                         _______ _______ _______ _____ _____    ______ ____
ROOT
ATOM      1  N   UNL     1      35.147 -22.406 -17.011  0.00  0.00    -0.340 NA
ATOM      2  N   UNL     1      37.066 -21.567 -18.069  0.00  0.00    -0.247 N 
ATOM      3  N   UNL     1      37.341 -22.823 -16.105  0.00  0.00    -0.170 NA
ATOM      4  C   UNL     1      34.636 -23.113 -15.985  0.00  0.00    +0.148 C 
ATOM      5  C   UNL     1      35.393 -23.697 -14.995  0.00  0.00    +0.052 C 
ATOM      6  C   UNL     1      36.490 -22.301 -17.010  0.00  0.00    +0.148 C 
ATOM      7  C   UNL     1      36.757 -23.516 -15.108  0.00  0.00    +0.114 C 
ATOM      8  H   UNL     1      38.049 -21.518 -18.028  0.00  0.00    +0.165 HD
ENDROOT
BRANCH   4  11
ATOM      9  N   UNL     1      32.458 -23.851 -15.020  0.00  0.00    -0.251 N 
ATOM     10  N   UNL     1      30.996 -23.079 -16.525  0.00  0.00    -0.393 NA
ATOM     11  C   UNL     1      33.195 -23.223 -15.990  0.00  0.00    +0.181 C 
ATOM     12  C   UNL     1      31.121 -23.737 -15.392  0.00  0.00    +0.187 C 
ATOM     13  C   UNL     1      32.276 -22.758 -16.901  0.00  0.00    +0.114 C 
ATOM     14  C   UNL     1      32.883 -24.498 -13.863  0.00  0.00    +0.068 C 
ATOM     15  C   UNL     1      30.155 -24.325 -14.522  0.00  0.00    +0.048 C 
ATOM     16  C   UNL     1      32.513 -22.008 -18.145  0.00  0.00    +0.064 C 
ATOM     17  C   UNL     1      31.968 -25.049 -13.050  0.00  0.00    +0.016 C 
ATOM     18  C   UNL     1      30.560 -24.952 -13.402  0.00  0.00    +0.005 C 
ENDBRANCH   4  11
BRANCH   2  20
ATOM     19  C   UNL     1      35.415 -19.555 -21.365  0.00  0.00    +0.139 C 
ATOM     20  C   UNL     1      36.512 -20.893 -19.173  0.00  0.00    +0.058 C 
ATOM     21  C   UNL     1      34.673 -20.533 -20.701  0.00  0.00    +0.038 C 
ATOM     22  C   UNL     1      36.704 -19.246 -20.934  0.00  0.00    +0.038 C 
ATOM     23  C   UNL     1      35.222 -21.201 -19.606  0.00  0.00    +0.018 C 
ATOM     24  C   UNL     1      37.253 -19.914 -19.839  0.00  0.00    +0.018 C 
BRANCH  19  25
ATOM     25  O   UNL     1      34.879 -18.903 -22.433  0.00  0.00    -0.473 OA
BRANCH  25  26
ATOM     26  C   UNL     1      35.548 -17.723 -22.875  0.00  0.00    +0.232 C 
BRANCH  26  27
ATOM     27  C   UNL     1      34.661 -16.515 -22.583  0.00  0.00    +0.133 C 
BRANCH  27  28
ATOM     28  O   UNL     1      34.950 -16.042 -21.265  0.00  0.00    -0.383 OA
ATOM     29  H   UNL     1      34.645 -15.125 -21.176  0.00  0.00    +0.210 HD
ENDBRANCH  27  28
BRANCH  27  30
ATOM     30  C   UNL     1      34.872 -15.358 -23.563  0.00  0.00    -0.044 C 
BRANCH  30  31
ATOM     31  N   UNL     1      33.667 -14.556 -23.730  0.00  0.00    +0.386 N 
ATOM     32  C   UNL     1      33.883 -13.193 -23.238  0.00  0.00    -0.101 C 
ATOM     33  C   UNL     1      33.255 -14.528 -25.134  0.00  0.00    -0.101 C 
ATOM     34  H   UNL     1      32.923 -14.985 -23.180  0.00  0.00    -0.080 HD
ENDBRANCH  30  31
ENDBRANCH  27  30
ENDBRANCH  26  27
ENDBRANCH  25  26
ENDBRANCH  19  25
ENDBRANCH   2  20
TORSDOF 8
ENDMDL
MODEL 7
REMARK VINA RESULT:      -9.6      2.850     11.221
REMARK  Name = 447653
REMARK  8 active torsions:
REMARK  status: ('A' for Active; 'I' for Inactive)
REMARK    1  A    between atoms: N_2  and  C_20
REMARK    2  A    between atoms: C_4  and  C_11
REMARK    3  A    between atoms: C_19  and  O_25
REMARK    4  A    between atoms: O_25  and  C_26
REMARK    5  A    between atoms: C_26  and  C_27
REMARK    6  A    between atoms: C_27  and  O_28
REMARK    7  A    between atoms: C_27  and  C_30
REMARK    8  A    between atoms: C_30  and  N_31
REMARK                            x       y       z     vdW  Elec       q    Type
REMARK                         _______ _______ _______ _____ _____    ______ ____
ROOT
ATOM      1  N   UNL     1      33.998 -14.834 -24.082  0.00  0.00    -0.340 NA
ATOM      2  N   UNL     1      34.756 -16.916 -24.852  0.00  0.00    -0.247 N 
ATOM      3  N   UNL     1      34.255 -15.261 -26.440  0.00  0.00    -0.170 NA
ATOM      4  C   UNL     1      33.582 -13.592 -24.396  0.00  0.00    +0.148 C 
ATOM      5  C   UNL     1      33.476 -13.114 -25.682  0.00  0.00    +0.052 C 
ATOM      6  C   UNL     1      34.315 -15.606 -25.139  0.00  0.00    +0.148 C 
ATOM      7  C   UNL     1      33.829 -14.004 -26.676  0.00  0.00    +0.114 C 
ATOM      8  H   UNL     1      34.976 -17.444 -25.654  0.00  0.00    +0.165 HD
ENDROOT
BRANCH   4  11
ATOM      9  N   UNL     1      32.878 -13.247 -22.028  0.00  0.00    -0.251 N 
ATOM     10  N   UNL     1      32.833 -11.016 -21.876  0.00  0.00    -0.393 NA
ATOM     11  C   UNL     1      33.244 -12.766 -23.259  0.00  0.00    +0.181 C 
ATOM     12  C   UNL     1      32.636 -12.140 -21.219  0.00  0.00    +0.187 C 
ATOM     13  C   UNL     1      33.209 -11.397 -23.140  0.00  0.00    +0.114 C 
ATOM     14  C   UNL     1      32.748 -14.563 -21.593  0.00  0.00    +0.068 C 
ATOM     15  C   UNL     1      32.236 -12.397 -19.874  0.00  0.00    +0.048 C 
ATOM     16  C   UNL     1      33.512 -10.378 -24.158  0.00  0.00    +0.064 C 
ATOM     17  C   UNL     1      32.370 -14.796 -20.326  0.00  0.00    +0.016 C 
ATOM     18  C   UNL     1      32.109 -13.668 -19.447  0.00  0.00    +0.005 C 
ENDBRANCH   4  11
BRANCH   2  20
ATOM     19  C   UNL     1      35.316 -19.008 -21.253  0.00  0.00    +0.139 C 
ATOM     20  C   UNL     1      34.943 -17.616 -23.646  0.00  0.00    +0.058 C 
ATOM     21  C   UNL     1      35.508 -17.626 -21.295  0.00  0.00    +0.038 C 
ATOM     22  C   UNL     1      34.938 -19.694 -22.407  0.00  0.00    +0.038 C 
ATOM     23  C   UNL     1      35.321 -16.932 -22.490  0.00  0.00    +0.018 C 
ATOM     24  C   UNL     1      34.752 -18.999 -23.603  0.00  0.00    +0.018 C 
BRANCH  19  25
ATOM     25  O   UNL     1      35.498 -19.685 -20.087  0.00  0.00    -0.473 OA
BRANCH  25  26
ATOM     26  C   UNL     1      35.299 -21.097 -20.119  0.00  0.00    +0.232 C 
BRANCH  26  27
ATOM     27  C   UNL     1      34.197 -21.463 -19.128  0.00  0.00    +0.133 C 
BRANCH  27  28
ATOM     28  O   UNL     1      32.961 -20.915 -19.593  0.00  0.00    -0.383 OA
ATOM     29  H   UNL     1      32.473 -21.592 -20.087  0.00  0.00    +0.210 HD
ENDBRANCH  27  28
BRANCH  27  30
ATOM     30  C   UNL     1      34.015 -22.973 -18.954  0.00  0.00    -0.044 C 
BRANCH  30  31
ATOM     31  N   UNL     1      34.066 -23.374 -17.555  0.00  0.00    +0.386 N 
ATOM     32  C   UNL     1      35.126 -22.650 -16.849  0.00  0.00    -0.101 C 
ATOM     33  C   UNL     1      32.775 -23.143 -16.904  0.00  0.00    -0.101 C 
ATOM     34  H   UNL     1      34.276 -24.371 -17.519  0.00  0.00    -0.080 HD
ENDBRANCH  30  31
ENDBRANCH  27  30
ENDBRANCH  26  27
ENDBRANCH  25  26
ENDBRANCH  19  25
ENDBRANCH   2  20
TORSDOF 8
ENDMDL
MODEL 8
REMARK VINA RESULT:      -9.6      7.002     15.656
REMARK  Name = 447653
REMARK  8 active torsions:
REMARK  status: ('A' for Active; 'I' for Inactive)
REMARK    1  A    between atoms: N_2  and  C_20
REMARK    2  A    between atoms: C_4  and  C_11
REMARK    3  A    between atoms: C_19  and  O_25
REMARK    4  A    between atoms: O_25  and  C_26
REMARK    5  A    between atoms: C_26  and  C_27
REMARK    6  A    between atoms: C_27  and  O_28
REMARK    7  A    between atoms: C_27  and  C_30
REMARK    8  A    between atoms: C_30  and  N_31
REMARK                            x       y       z     vdW  Elec       q    Type
REMARK                         _______ _______ _______ _____ _____    ______ ____
ROOT
ATOM      1  N   UNL     1      32.772  -8.066 -22.206  0.00  0.00    -0.340 NA
ATOM      2  N   UNL     1      32.007  -9.861 -20.904  0.00  0.00    -0.247 N 
ATOM      3  N   UNL     1      31.628  -7.682 -20.120  0.00  0.00    -0.170 NA
ATOM      4  C   UNL     1      32.882  -6.731 -22.343  0.00  0.00    +0.148 C 
ATOM      5  C   UNL     1      32.401  -5.818 -21.432  0.00  0.00    +0.052 C 
ATOM      6  C   UNL     1      32.142  -8.468 -21.085  0.00  0.00    +0.148 C 
ATOM      7  C   UNL     1      31.776  -6.357 -20.327  0.00  0.00    +0.114 C 
ATOM      8  H   UNL     1      31.540 -10.109 -20.072  0.00  0.00    +0.165 HD
ENDROOT
BRANCH   4  11
ATOM      9  N   UNL     1      33.177  -5.237 -24.318  0.00  0.00    -0.251 N 
ATOM     10  N   UNL     1      34.986  -6.113 -25.298  0.00  0.00    -0.393 NA
ATOM     11  C   UNL     1      33.558  -6.304 -23.546  0.00  0.00    +0.181 C 
ATOM     12  C   UNL     1      34.080  -5.161 -25.376  0.00  0.00    +0.187 C 
ATOM     13  C   UNL     1      34.669  -6.824 -24.168  0.00  0.00    +0.114 C 
ATOM     14  C   UNL     1      32.114  -4.355 -24.148  0.00  0.00    +0.068 C 
ATOM     15  C   UNL     1      33.880  -4.113 -26.323  0.00  0.00    +0.048 C 
ATOM     16  C   UNL     1      35.489  -7.980 -23.770  0.00  0.00    +0.064 C 
ATOM     17  C   UNL     1      31.933  -3.371 -25.044  0.00  0.00    +0.016 C 
ATOM     18  C   UNL     1      32.853  -3.257 -26.164  0.00  0.00    +0.005 C 
ENDBRANCH   4  11
BRANCH   2  20
ATOM     19  C   UNL     1      33.199 -13.161 -23.212  0.00  0.00    +0.139 C 
ATOM     20  C   UNL     1      32.407 -10.967 -21.677  0.00  0.00    +0.058 C 
ATOM     21  C   UNL     1      33.559 -11.871 -23.601  0.00  0.00    +0.038 C 
ATOM     22  C   UNL     1      32.443 -13.355 -22.056  0.00  0.00    +0.038 C 
ATOM     23  C   UNL     1      33.164 -10.775 -22.834  0.00  0.00    +0.018 C 
ATOM     24  C   UNL     1      32.047 -12.259 -21.290  0.00  0.00    +0.018 C 
BRANCH  19  25
ATOM     25  O   UNL     1      33.586 -14.231 -23.961  0.00  0.00    -0.473 OA
BRANCH  25  26
ATOM     26  C   UNL     1      34.703 -14.982 -23.490  0.00  0.00    +0.232 C 
BRANCH  26  27
ATOM     27  C   UNL     1      34.589 -16.413 -24.008  0.00  0.00    +0.133 C 
BRANCH  27  28
ATOM     28  O   UNL     1      34.999 -16.439 -25.378  0.00  0.00    -0.383 OA
ATOM     29  H   UNL     1      35.714 -15.798 -25.515  0.00  0.00    +0.210 HD
ENDBRANCH  27  28
BRANCH  27  30
ATOM     30  C   UNL     1      35.453 -17.410 -23.233  0.00  0.00    -0.044 C 
BRANCH  30  31
ATOM     31  N   UNL     1      34.681 -18.549 -22.754  0.00  0.00    +0.386 N 
ATOM     32  C   UNL     1      34.804 -19.680 -23.676  0.00  0.00    -0.101 C 
ATOM     33  C   UNL     1      35.116 -18.940 -21.412  0.00  0.00    -0.101 C 
ATOM     34  H   UNL     1      33.701 -18.271 -22.711  0.00  0.00    -0.080 HD
ENDBRANCH  30  31
ENDBRANCH  27  30
ENDBRANCH  26  27
ENDBRANCH  25  26
ENDBRANCH  19  25
ENDBRANCH   2  20
TORSDOF 8
ENDMDL
MODEL 9
REMARK VINA RESULT:      -9.2      1.548      2.445
REMARK  Name = 447653
REMARK  8 active torsions:
REMARK  status: ('A' for Active; 'I' for Inactive)
REMARK    1  A    between atoms: N_2  and  C_20
REMARK    2  A    between atoms: C_4  and  C_11
REMARK    3  A    between atoms: C_19  and  O_25
REMARK    4  A    between atoms: O_25  and  C_26
REMARK    5  A    between atoms: C_26  and  C_27
REMARK    6  A    between atoms: C_27  and  O_28
REMARK    7  A    between atoms: C_27  and  C_30
REMARK    8  A    between atoms: C_30  and  N_31
REMARK                            x       y       z     vdW  Elec       q    Type
REMARK                         _______ _______ _______ _____ _____    ______ ____
ROOT
ATOM      1  N   UNL     1      33.345 -22.886 -16.320  0.00  0.00    -0.340 NA
ATOM      2  N   UNL     1      32.172 -22.073 -18.181  0.00  0.00    -0.247 N 
ATOM      3  N   UNL     1      30.950 -23.107 -16.465  0.00  0.00    -0.170 NA
ATOM      4  C   UNL     1      33.287 -23.507 -15.126  0.00  0.00    +0.148 C 
ATOM      5  C   UNL     1      32.124 -23.952 -14.541  0.00  0.00    +0.052 C 
ATOM      6  C   UNL     1      32.154 -22.721 -16.927  0.00  0.00    +0.148 C 
ATOM      7  C   UNL     1      30.971 -23.722 -15.265  0.00  0.00    +0.114 C 
ATOM      8  H   UNL     1      31.280 -21.974 -18.588  0.00  0.00    +0.165 HD
ENDROOT
BRANCH   4  11
ATOM      9  N   UNL     1      35.773 -23.327 -15.024  0.00  0.00    -0.251 N 
ATOM     10  N   UNL     1      36.220 -24.192 -13.011  0.00  0.00    -0.393 NA
ATOM     11  C   UNL     1      34.567 -23.683 -14.478  0.00  0.00    +0.181 C 
ATOM     12  C   UNL     1      36.752 -23.658 -14.091  0.00  0.00    +0.187 C 
ATOM     13  C   UNL     1      34.868 -24.210 -13.244  0.00  0.00    +0.114 C 
ATOM     14  C   UNL     1      36.050 -22.745 -16.258  0.00  0.00    +0.068 C 
ATOM     15  C   UNL     1      38.105 -23.376 -14.444  0.00  0.00    +0.048 C 
ATOM     16  C   UNL     1      33.952 -24.752 -12.227  0.00  0.00    +0.064 C 
ATOM     17  C   UNL     1      37.326 -22.483 -16.583  0.00  0.00    +0.016 C 
ATOM     18  C   UNL     1      38.379 -22.814 -15.637  0.00  0.00    +0.005 C 
ENDBRANCH   4  11
BRANCH   2  20
ATOM     19  C   UNL     1      35.277 -20.484 -20.520  0.00  0.00    +0.139 C 
ATOM     20  C   UNL     1      33.212 -21.542 -18.965  0.00  0.00    +0.058 C 
ATOM     21  C   UNL     1      35.534 -21.537 -19.642  0.00  0.00    +0.038 C 
ATOM     22  C   UNL     1      33.989 -19.959 -20.621  0.00  0.00    +0.038 C 
ATOM     23  C   UNL     1      34.502 -22.065 -18.865  0.00  0.00    +0.018 C 
ATOM     24  C   UNL     1      32.957 -20.487 -19.845  0.00  0.00    +0.018 C 
BRANCH  19  25
ATOM     25  O   UNL     1      36.284 -19.969 -21.278  0.00  0.00    -0.473 OA
BRANCH  25  26
ATOM     26  C   UNL     1      36.437 -18.550 -21.275  0.00  0.00    +0.232 C 
BRANCH  26  27
ATOM     27  C   UNL     1      36.091 -18.014 -22.662  0.00  0.00    +0.133 C 
BRANCH  27  28
ATOM     28  O   UNL     1      35.589 -19.091 -23.458  0.00  0.00    -0.383 OA
ATOM     29  H   UNL     1      35.053 -18.736 -24.184  0.00  0.00    +0.210 HD
ENDBRANCH  27  28
BRANCH  27  30
ATOM     30  C   UNL     1      35.034 -16.908 -22.637  0.00  0.00    -0.044 C 
BRANCH  30  31
ATOM     31  N   UNL     1      35.316 -15.858 -23.607  0.00  0.00    +0.386 N 
ATOM     32  C   UNL     1      34.862 -16.254 -24.942  0.00  0.00    -0.101 C 
ATOM     33  C   UNL     1      34.681 -14.601 -23.208  0.00  0.00    -0.101 C 
ATOM     34  H   UNL     1      36.326 -15.718 -23.636  0.00  0.00    -0.080 HD
ENDBRANCH  30  31
ENDBRANCH  27  30
ENDBRANCH  26  27
ENDBRANCH  25  26
ENDBRANCH  19  25
ENDBRANCH   2  20
TORSDOF 8
ENDMDL
