MODEL 1
REMARK VINA RESULT:     -12.1      0.000      0.000
REMARK  Name = 446752
REMARK  3 active torsions:
REMARK  status: ('A' for Active; 'I' for Inactive)
REMARK    1  A    between atoms: C_6  and  C_18
REMARK    2  A    between atoms: C_18  and  N_19
REMARK    3  A    between atoms: N_19  and  C_22
REMARK                            x       y       z     vdW  Elec       q    Type
REMARK                         _______ _______ _______ _____ _____    ______ ____
ROOT
ATOM      1  N   UNL     1      32.656 -20.906 -19.840  0.00  0.00    -0.182 NA
ATOM      2  N   UNL     1      32.459 -22.307 -18.008  0.00  0.00    -0.273 NA
ATOM      3  N   UNL     1      34.395 -23.100 -16.816  0.00  0.00    -0.312 NA
ATOM      4  N   UNL     1      36.540 -22.486 -17.464  0.00  0.00    -0.332 N 
ATOM      5  N   UNL     1      32.239 -23.727 -16.152  0.00  0.00    -0.283 N 
ATOM      6  C   UNL     1      34.814 -20.191 -20.620  0.00  0.00    +0.010 C 
ATOM      7  C   UNL     1      35.420 -20.916 -19.619  0.00  0.00    -0.009 C 
ATOM      8  C   UNL     1      34.621 -21.640 -18.723  0.00  0.00    +0.115 C 
ATOM      9  C   UNL     1      33.228 -21.617 -18.859  0.00  0.00    +0.104 C 
ATOM     10  C   UNL     1      33.445 -20.212 -20.696  0.00  0.00    +0.107 C 
ATOM     11  C   UNL     1      36.917 -20.875 -19.561  0.00  0.00    +0.032 C 
ATOM     12  C   UNL     1      35.147 -22.400 -17.682  0.00  0.00    +0.201 C 
ATOM     13  C   UNL     1      33.076 -23.009 -17.034  0.00  0.00    +0.206 C 
ATOM     14  H   UNL     1      36.889 -23.029 -16.721  0.00  0.00    +0.145 HD
ATOM     15  H   UNL     1      37.161 -22.003 -18.057  0.00  0.00    +0.145 HD
ATOM     16  H   UNL     1      31.262 -23.697 -16.265  0.00  0.00    +0.156 HD
ATOM     17  H   UNL     1      32.634 -24.258 -15.422  0.00  0.00    +0.156 HD
ENDROOT
BRANCH   6  18
ATOM     18  C   UNL     1      35.599 -19.389 -21.621  0.00  0.00    +0.097 C 
BRANCH  18  19
ATOM     19  N   UNL     1      35.437 -17.992 -21.380  0.00  0.00    -0.288 NA
ATOM     20  H   UNL     1      35.635 -17.642 -20.480  0.00  0.00    +0.124 HD
BRANCH  19  22
ATOM     21  N   UNL     1      33.305 -13.847 -22.796  0.00  0.00    -0.248 NA
ATOM     22  C   UNL     1      35.004 -17.087 -22.379  0.00  0.00    +0.101 C 
ATOM     23  C   UNL     1      34.353 -15.886 -22.054  0.00  0.00    +0.010 C 
ATOM     24  C   UNL     1      33.932 -15.005 -23.072  0.00  0.00    +0.061 C 
ATOM     25  C   UNL     1      35.244 -17.421 -23.709  0.00  0.00    -0.010 C 
ATOM     26  C   UNL     1      34.099 -15.525 -20.724  0.00  0.00    +0.000 C 
ATOM     27  C   UNL     1      34.183 -15.364 -24.394  0.00  0.00    +0.071 C 
ATOM     28  C   UNL     1      34.833 -16.558 -24.717  0.00  0.00    -0.023 C 
ATOM     29  C   UNL     1      33.453 -14.332 -20.436  0.00  0.00    +0.020 C 
ATOM     30  C   UNL     1      33.079 -13.535 -21.498  0.00  0.00    +0.098 C 
ENDBRANCH  19  22
ENDBRANCH  18  19
ENDBRANCH   6  18
TORSDOF 3
ENDMDL
MODEL 2
REMARK VINA RESULT:     -11.7      1.091      2.995
REMARK  Name = 446752
REMARK  3 active torsions:
REMARK  status: ('A' for Active; 'I' for Inactive)
REMARK    1  A    between atoms: C_6  and  C_18
REMARK    2  A    between atoms: C_18  and  N_19
REMARK    3  A    between atoms: N_19  and  C_22
REMARK                            x       y       z     vdW  Elec       q    Type
REMARK                         _______ _______ _______ _____ _____    ______ ____
ROOT
ATOM      1  N   UNL     1      37.156 -20.574 -19.502  0.00  0.00    -0.182 NA
ATOM      2  N   UNL     1      36.760 -21.977 -17.704  0.00  0.00    -0.273 NA
ATOM      3  N   UNL     1      34.546 -22.775 -17.194  0.00  0.00    -0.312 NA
ATOM      4  N   UNL     1      32.719 -22.162 -18.493  0.00  0.00    -0.332 N 
ATOM      5  N   UNL     1      36.378 -23.399 -15.876  0.00  0.00    -0.283 N 
ATOM      6  C   UNL     1      35.358 -19.860 -20.929  0.00  0.00    +0.010 C 
ATOM      7  C   UNL     1      34.466 -20.586 -20.175  0.00  0.00    -0.009 C 
ATOM      8  C   UNL     1      34.939 -21.312 -19.072  0.00  0.00    +0.115 C 
ATOM      9  C   UNL     1      36.302 -21.287 -18.756  0.00  0.00    +0.104 C 
ATOM     10  C   UNL     1      36.680 -19.878 -20.564  0.00  0.00    +0.107 C 
ATOM     11  C   UNL     1      33.029 -20.547 -20.598  0.00  0.00    +0.032 C 
ATOM     12  C   UNL     1      34.108 -22.075 -18.254  0.00  0.00    +0.201 C 
ATOM     13  C   UNL     1      35.865 -22.683 -16.980  0.00  0.00    +0.206 C 
ATOM     14  H   UNL     1      32.152 -22.707 -17.901  0.00  0.00    +0.145 HD
ATOM     15  H   UNL     1      32.319 -21.676 -19.250  0.00  0.00    +0.145 HD
ATOM     16  H   UNL     1      37.340 -23.368 -15.672  0.00  0.00    +0.156 HD
ATOM     17  H   UNL     1      35.772 -23.932 -15.312  0.00  0.00    +0.156 HD
ENDROOT
BRANCH   6  18
ATOM     18  C   UNL     1      34.933 -19.055 -22.126  0.00  0.00    +0.097 C 
BRANCH  18  19
ATOM     19  N   UNL     1      35.573 -17.779 -22.124  0.00  0.00    -0.288 NA
ATOM     20  H   UNL     1      36.553 -17.742 -22.215  0.00  0.00    +0.124 HD
BRANCH  19  22
ATOM     21  N   UNL     1      33.238 -13.942 -24.011  0.00  0.00    -0.248 NA
ATOM     22  C   UNL     1      34.857 -16.564 -21.995  0.00  0.00    +0.101 C 
ATOM     23  C   UNL     1      34.399 -15.855 -23.117  0.00  0.00    +0.010 C 
ATOM     24  C   UNL     1      33.690 -14.647 -22.957  0.00  0.00    +0.061 C 
ATOM     25  C   UNL     1      34.615 -16.084 -20.711  0.00  0.00    -0.010 C 
ATOM     26  C   UNL     1      34.629 -16.316 -24.421  0.00  0.00    +0.000 C 
ATOM     27  C   UNL     1      33.463 -14.188 -21.662  0.00  0.00    +0.071 C 
ATOM     28  C   UNL     1      33.916 -14.894 -20.545  0.00  0.00    -0.023 C 
ATOM     29  C   UNL     1      34.165 -15.593 -25.509  0.00  0.00    +0.020 C 
ATOM     30  C   UNL     1      33.481 -14.422 -25.253  0.00  0.00    +0.098 C 
ENDBRANCH  19  22
ENDBRANCH  18  19
ENDBRANCH   6  18
TORSDOF 3
ENDMDL
MODEL 3
REMARK VINA RESULT:     -11.6      0.666      2.089
REMARK  Name = 446752
REMARK  3 active torsions:
REMARK  status: ('A' for Active; 'I' for Inactive)
REMARK    1  A    between atoms: C_6  and  C_18
REMARK    2  A    between atoms: C_18  and  N_19
REMARK    3  A    between atoms: N_19  and  C_22
REMARK                            x       y       z     vdW  Elec       q    Type
REMARK                         _______ _______ _______ _____ _____    ______ ____
ROOT
ATOM      1  N   UNL     1      32.698 -20.747 -20.145  0.00  0.00    -0.182 NA
ATOM      2  N   UNL     1      32.635 -22.160 -18.313  0.00  0.00    -0.273 NA
ATOM      3  N   UNL     1      34.649 -22.864 -17.196  0.00  0.00    -0.312 NA
ATOM      4  N   UNL     1      36.737 -22.148 -17.921  0.00  0.00    -0.332 N 
ATOM      5  N   UNL     1      32.551 -23.594 -16.456  0.00  0.00    -0.283 N 
ATOM      6  C   UNL     1      34.790 -19.930 -21.001  0.00  0.00    +0.010 C 
ATOM      7  C   UNL     1      35.466 -20.628 -20.027  0.00  0.00    -0.009 C 
ATOM      8  C   UNL     1      34.735 -21.391 -19.104  0.00  0.00    +0.115 C 
ATOM      9  C   UNL     1      33.338 -21.433 -19.189  0.00  0.00    +0.104 C 
ATOM     10  C   UNL     1      33.421 -20.016 -21.027  0.00  0.00    +0.107 C 
ATOM     11  C   UNL     1      36.960 -20.516 -20.023  0.00  0.00    +0.032 C 
ATOM     12  C   UNL     1      35.335 -22.127 -18.086  0.00  0.00    +0.201 C 
ATOM     13  C   UNL     1      33.320 -22.835 -17.365  0.00  0.00    +0.206 C 
ATOM     14  H   UNL     1      37.139 -22.676 -17.193  0.00  0.00    +0.145 HD
ATOM     15  H   UNL     1      37.312 -21.635 -18.533  0.00  0.00    +0.145 HD
ATOM     16  H   UNL     1      31.570 -23.609 -16.533  0.00  0.00    +0.156 HD
ATOM     17  H   UNL     1      32.997 -24.107 -15.743  0.00  0.00    +0.156 HD
ENDROOT
BRANCH   6  18
ATOM     18  C   UNL     1      35.499 -19.089 -22.028  0.00  0.00    +0.097 C 
BRANCH  18  19
ATOM     19  N   UNL     1      35.840 -17.816 -21.482  0.00  0.00    -0.288 NA
ATOM     20  H   UNL     1      36.698 -17.720 -21.006  0.00  0.00    +0.124 HD
BRANCH  19  22
ATOM     21  N   UNL     1      33.418 -14.501 -24.105  0.00  0.00    -0.248 NA
ATOM     22  C   UNL     1      34.997 -16.684 -21.594  0.00  0.00    +0.101 C 
ATOM     23  C   UNL     1      34.629 -16.159 -22.844  0.00  0.00    +0.010 C 
ATOM     24  C   UNL     1      33.789 -15.030 -22.924  0.00  0.00    +0.061 C 
ATOM     25  C   UNL     1      34.535 -16.097 -20.419  0.00  0.00    -0.010 C 
ATOM     26  C   UNL     1      35.080 -16.730 -24.041  0.00  0.00    +0.000 C 
ATOM     27  C   UNL     1      33.342 -14.461 -21.734  0.00  0.00    +0.071 C 
ATOM     28  C   UNL     1      33.706 -14.984 -20.490  0.00  0.00    -0.023 C 
ATOM     29  C   UNL     1      34.701 -16.189 -25.260  0.00  0.00    +0.020 C 
ATOM     30  C   UNL     1      33.875 -15.083 -25.238  0.00  0.00    +0.098 C 
ENDBRANCH  19  22
ENDBRANCH  18  19
ENDBRANCH   6  18
TORSDOF 3
ENDMDL
MODEL 4
REMARK VINA RESULT:     -11.5      1.001      2.236
REMARK  Name = 446752
REMARK  3 active torsions:
REMARK  status: ('A' for Active; 'I' for Inactive)
REMARK    1  A    between atoms: C_6  and  C_18
REMARK    2  A    between atoms: C_18  and  N_19
REMARK    3  A    between atoms: N_19  and  C_22
REMARK                            x       y       z     vdW  Elec       q    Type
REMARK                         _______ _______ _______ _____ _____    ______ ____
ROOT
ATOM      1  N   UNL     1      37.137 -20.593 -19.494  0.00  0.00    -0.182 NA
ATOM      2  N   UNL     1      36.787 -21.981 -17.676  0.00  0.00    -0.273 NA
ATOM      3  N   UNL     1      34.590 -22.793 -17.117  0.00  0.00    -0.312 NA
ATOM      4  N   UNL     1      32.734 -22.209 -18.387  0.00  0.00    -0.332 N 
ATOM      5  N   UNL     1      36.451 -23.389 -15.827  0.00  0.00    -0.283 N 
ATOM      6  C   UNL     1      35.307 -19.909 -20.895  0.00  0.00    +0.010 C 
ATOM      7  C   UNL     1      34.436 -20.635 -20.117  0.00  0.00    -0.009 C 
ATOM      8  C   UNL     1      34.935 -21.346 -19.016  0.00  0.00    +0.115 C 
ATOM      9  C   UNL     1      36.304 -21.306 -18.725  0.00  0.00    +0.104 C 
ATOM     10  C   UNL     1      36.636 -19.912 -20.554  0.00  0.00    +0.107 C 
ATOM     11  C   UNL     1      32.991 -20.613 -20.513  0.00  0.00    +0.032 C 
ATOM     12  C   UNL     1      34.127 -22.107 -18.176  0.00  0.00    +0.201 C 
ATOM     13  C   UNL     1      35.912 -22.688 -16.928  0.00  0.00    +0.206 C 
ATOM     14  H   UNL     1      32.183 -22.753 -17.780  0.00  0.00    +0.145 HD
ATOM     15  H   UNL     1      32.316 -21.735 -19.142  0.00  0.00    +0.145 HD
ATOM     16  H   UNL     1      37.417 -23.347 -15.641  0.00  0.00    +0.156 HD
ATOM     17  H   UNL     1      35.860 -23.921 -15.246  0.00  0.00    +0.156 HD
ENDROOT
BRANCH   6  18
ATOM     18  C   UNL     1      34.853 -19.119 -22.092  0.00  0.00    +0.097 C 
BRANCH  18  19
ATOM     19  N   UNL     1      35.311 -17.771 -22.004  0.00  0.00    -0.288 NA
ATOM     20  H   UNL     1      36.007 -17.550 -21.342  0.00  0.00    +0.124 HD
BRANCH  19  22
ATOM     21  N   UNL     1      33.003 -13.530 -22.659  0.00  0.00    -0.248 NA
ATOM     22  C   UNL     1      34.808 -16.736 -22.829  0.00  0.00    +0.101 C 
ATOM     23  C   UNL     1      34.139 -15.623 -22.292  0.00  0.00    +0.010 C 
ATOM     24  C   UNL     1      33.649 -14.608 -23.140  0.00  0.00    +0.061 C 
ATOM     25  C   UNL     1      34.997 -16.848 -24.204  0.00  0.00    -0.010 C 
ATOM     26  C   UNL     1      33.936 -15.485 -20.912  0.00  0.00    +0.000 C 
ATOM     27  C   UNL     1      33.850 -14.747 -24.510  0.00  0.00    +0.071 C 
ATOM     28  C   UNL     1      34.517 -15.852 -25.045  0.00  0.00    -0.023 C 
ATOM     29  C   UNL     1      33.271 -14.375 -20.413  0.00  0.00    +0.020 C 
ATOM     30  C   UNL     1      32.828 -13.434 -21.320  0.00  0.00    +0.098 C 
ENDBRANCH  19  22
ENDBRANCH  18  19
ENDBRANCH   6  18
TORSDOF 3
ENDMDL
MODEL 5
REMARK VINA RESULT:     -11.3      3.581      7.068
REMARK  Name = 446752
REMARK  3 active torsions:
REMARK  status: ('A' for Active; 'I' for Inactive)
REMARK    1  A    between atoms: C_6  and  C_18
REMARK    2  A    between atoms: C_18  and  N_19
REMARK    3  A    between atoms: N_19  and  C_22
REMARK                            x       y       z     vdW  Elec       q    Type
REMARK                         _______ _______ _______ _____ _____    ______ ____
ROOT
ATOM      1  N   UNL     1      34.490 -15.293 -20.380  0.00  0.00    -0.182 NA
ATOM      2  N   UNL     1      35.351 -17.427 -20.637  0.00  0.00    -0.273 NA
ATOM      3  N   UNL     1      35.541 -18.455 -22.805  0.00  0.00    -0.312 NA
ATOM      4  N   UNL     1      34.864 -17.340 -24.727  0.00  0.00    -0.332 N 
ATOM      5  N   UNL     1      36.227 -19.591 -20.876  0.00  0.00    -0.283 N 
ATOM      6  C   UNL     1      33.751 -14.025 -22.284  0.00  0.00    +0.010 C 
ATOM      7  C   UNL     1      34.093 -15.066 -23.115  0.00  0.00    -0.009 C 
ATOM      8  C   UNL     1      34.641 -16.231 -22.559  0.00  0.00    +0.115 C 
ATOM      9  C   UNL     1      34.829 -16.318 -21.174  0.00  0.00    +0.104 C 
ATOM     10  C   UNL     1      33.961 -14.176 -20.937  0.00  0.00    +0.107 C 
ATOM     11  C   UNL     1      33.851 -14.873 -24.581  0.00  0.00    +0.032 C 
ATOM     12  C   UNL     1      35.016 -17.333 -23.324  0.00  0.00    +0.201 C 
ATOM     13  C   UNL     1      35.680 -18.435 -21.473  0.00  0.00    +0.206 C 
ATOM     14  H   UNL     1      35.136 -18.130 -25.248  0.00  0.00    +0.145 HD
ATOM     15  H   UNL     1      34.484 -16.555 -25.185  0.00  0.00    +0.145 HD
ATOM     16  H   UNL     1      36.351 -19.631 -19.900  0.00  0.00    +0.156 HD
ATOM     17  H   UNL     1      36.485 -20.359 -21.437  0.00  0.00    +0.156 HD
ENDROOT
BRANCH   6  18
ATOM     18  C   UNL     1      33.157 -12.743 -22.801  0.00  0.00    +0.097 C 
BRANCH  18  19
ATOM     19  N   UNL     1      31.937 -12.448 -22.122  0.00  0.00    -0.288 NA
ATOM     20  H   UNL     1      31.128 -12.956 -22.362  0.00  0.00    +0.124 HD
BRANCH  19  22
ATOM     21  N   UNL     1      32.045  -7.808 -20.639  0.00  0.00    -0.248 NA
ATOM     22  C   UNL     1      31.841 -11.454 -21.118  0.00  0.00    +0.101 C 
ATOM     23  C   UNL     1      31.999 -10.090 -21.413  0.00  0.00    +0.010 C 
ATOM     24  C   UNL     1      31.898  -9.123 -20.391  0.00  0.00    +0.061 C 
ATOM     25  C   UNL     1      31.580 -11.867 -19.815  0.00  0.00    -0.010 C 
ATOM     26  C   UNL     1      32.262  -9.646 -22.716  0.00  0.00    +0.000 C 
ATOM     27  C   UNL     1      31.638  -9.564 -19.097  0.00  0.00    +0.071 C 
ATOM     28  C   UNL     1      31.479 -10.921 -18.803  0.00  0.00    -0.023 C 
ATOM     29  C   UNL     1      32.414  -8.292 -22.975  0.00  0.00    +0.020 C 
ATOM     30  C   UNL     1      32.297  -7.421 -21.911  0.00  0.00    +0.098 C 
ENDBRANCH  19  22
ENDBRANCH  18  19
ENDBRANCH   6  18
TORSDOF 3
ENDMDL
MODEL 6
REMARK VINA RESULT:     -10.8      3.713      7.036
REMARK  Name = 446752
REMARK  3 active torsions:
REMARK  status: ('A' for Active; 'I' for Inactive)
REMARK    1  A    between atoms: C_6  and  C_18
REMARK    2  A    between atoms: C_18  and  N_19
REMARK    3  A    between atoms: N_19  and  C_22
REMARK                            x       y       z     vdW  Elec       q    Type
REMARK                         _______ _______ _______ _____ _____    ______ ____
ROOT
ATOM      1  N   UNL     1      34.584 -14.912 -21.063  0.00  0.00    -0.182 NA
ATOM      2  N   UNL     1      35.164 -17.135 -20.778  0.00  0.00    -0.273 NA
ATOM      3  N   UNL     1      35.283 -18.653 -22.643  0.00  0.00    -0.312 NA
ATOM      4  N   UNL     1      34.818 -17.940 -24.804  0.00  0.00    -0.332 N 
ATOM      5  N   UNL     1      35.753 -19.386 -20.469  0.00  0.00    -0.283 N 
ATOM      6  C   UNL     1      34.078 -14.039 -23.244  0.00  0.00    +0.010 C 
ATOM      7  C   UNL     1      34.305 -15.278 -23.797  0.00  0.00    -0.009 C 
ATOM      8  C   UNL     1      34.677 -16.340 -22.960  0.00  0.00    +0.115 C 
ATOM      9  C   UNL     1      34.810 -16.126 -21.583  0.00  0.00    +0.104 C 
ATOM     10  C   UNL     1      34.225 -13.899 -21.888  0.00  0.00    +0.107 C 
ATOM     11  C   UNL     1      34.136 -15.402 -25.281  0.00  0.00    +0.032 C 
ATOM     12  C   UNL     1      34.927 -17.626 -23.432  0.00  0.00    +0.201 C 
ATOM     13  C   UNL     1      35.382 -18.341 -21.344  0.00  0.00    +0.206 C 
ATOM     14  H   UNL     1      35.000 -18.857 -25.115  0.00  0.00    +0.145 HD
ATOM     15  H   UNL     1      34.560 -17.243 -25.450  0.00  0.00    +0.145 HD
ATOM     16  H   UNL     1      35.841 -19.213 -19.504  0.00  0.00    +0.156 HD
ATOM     17  H   UNL     1      35.925 -20.288 -20.826  0.00  0.00    +0.156 HD
ENDROOT
BRANCH   6  18
ATOM     18  C   UNL     1      33.675 -12.849 -24.072  0.00  0.00    +0.097 C 
BRANCH  18  19
ATOM     19  N   UNL     1      33.367 -11.738 -23.233  0.00  0.00    -0.288 NA
ATOM     20  H   UNL     1      32.742 -11.872 -22.482  0.00  0.00    +0.124 HD
BRANCH  19  22
ATOM     21  N   UNL     1      33.414  -6.918 -22.522  0.00  0.00    -0.248 NA
ATOM     22  C   UNL     1      33.921 -10.450 -23.433  0.00  0.00    +0.101 C 
ATOM     23  C   UNL     1      33.356  -9.305 -22.848  0.00  0.00    +0.010 C 
ATOM     24  C   UNL     1      33.930  -8.036 -23.066  0.00  0.00    +0.061 C 
ATOM     25  C   UNL     1      35.055 -10.346 -24.233  0.00  0.00    -0.010 C 
ATOM     26  C   UNL     1      32.214  -9.381 -22.038  0.00  0.00    +0.000 C 
ATOM     27  C   UNL     1      35.063  -7.960 -23.871  0.00  0.00    +0.071 C 
ATOM     28  C   UNL     1      35.627  -9.099 -24.452  0.00  0.00    -0.023 C 
ATOM     29  C   UNL     1      31.679  -8.232 -21.475  0.00  0.00    +0.020 C 
ATOM     30  C   UNL     1      32.311  -7.036 -21.745  0.00  0.00    +0.098 C 
ENDBRANCH  19  22
ENDBRANCH  18  19
ENDBRANCH   6  18
TORSDOF 3
ENDMDL
MODEL 7
REMARK VINA RESULT:     -10.7      3.659      7.185
REMARK  Name = 446752
REMARK  3 active torsions:
REMARK  status: ('A' for Active; 'I' for Inactive)
REMARK    1  A    between atoms: C_6  and  C_18
REMARK    2  A    between atoms: C_18  and  N_19
REMARK    3  A    between atoms: N_19  and  C_22
REMARK                            x       y       z     vdW  Elec       q    Type
REMARK                         _______ _______ _______ _____ _____    ______ ____
ROOT
ATOM      1  N   UNL     1      34.602 -14.933 -21.096  0.00  0.00    -0.182 NA
ATOM      2  N   UNL     1      35.203 -17.152 -20.823  0.00  0.00    -0.273 NA
ATOM      3  N   UNL     1      35.321 -18.664 -22.693  0.00  0.00    -0.312 NA
ATOM      4  N   UNL     1      34.832 -17.948 -24.848  0.00  0.00    -0.332 N 
ATOM      5  N   UNL     1      35.814 -19.399 -20.525  0.00  0.00    -0.283 N 
ATOM      6  C   UNL     1      34.071 -14.058 -23.271  0.00  0.00    +0.010 C 
ATOM      7  C   UNL     1      34.304 -15.294 -23.829  0.00  0.00    -0.009 C 
ATOM      8  C   UNL     1      34.692 -16.355 -22.998  0.00  0.00    +0.115 C 
ATOM      9  C   UNL     1      34.834 -16.144 -21.621  0.00  0.00    +0.104 C 
ATOM     10  C   UNL     1      34.228 -13.920 -21.915  0.00  0.00    +0.107 C 
ATOM     11  C   UNL     1      34.124 -15.415 -25.312  0.00  0.00    +0.032 C 
ATOM     12  C   UNL     1      34.949 -17.637 -23.476  0.00  0.00    +0.201 C 
ATOM     13  C   UNL     1      35.427 -18.355 -21.393  0.00  0.00    +0.206 C 
ATOM     14  H   UNL     1      35.019 -18.862 -25.164  0.00  0.00    +0.145 HD
ATOM     15  H   UNL     1      34.563 -17.251 -25.489  0.00  0.00    +0.145 HD
ATOM     16  H   UNL     1      35.909 -19.228 -19.560  0.00  0.00    +0.156 HD
ATOM     17  H   UNL     1      35.991 -20.298 -20.886  0.00  0.00    +0.156 HD
ENDROOT
BRANCH   6  18
ATOM     18  C   UNL     1      33.651 -12.870 -24.092  0.00  0.00    +0.097 C 
BRANCH  18  19
ATOM     19  N   UNL     1      34.239 -11.675 -23.579  0.00  0.00    -0.288 NA
ATOM     20  H   UNL     1      35.221 -11.589 -23.590  0.00  0.00    +0.124 HD
BRANCH  19  22
ATOM     21  N   UNL     1      33.431  -6.934 -22.803  0.00  0.00    -0.248 NA
ATOM     22  C   UNL     1      33.471 -10.608 -23.055  0.00  0.00    +0.101 C 
ATOM     23  C   UNL     1      33.867  -9.269 -23.209  0.00  0.00    +0.010 C 
ATOM     24  C   UNL     1      33.080  -8.227 -22.675  0.00  0.00    +0.061 C 
ATOM     25  C   UNL     1      32.297 -10.922 -22.375  0.00  0.00    -0.010 C 
ATOM     26  C   UNL     1      35.043  -8.924 -23.889  0.00  0.00    +0.000 C 
ATOM     27  C   UNL     1      31.913  -8.569 -21.998  0.00  0.00    +0.071 C 
ATOM     28  C   UNL     1      31.518  -9.901 -21.846  0.00  0.00    -0.023 C 
ATOM     29  C   UNL     1      35.407  -7.593 -24.023  0.00  0.00    +0.020 C 
ATOM     30  C   UNL     1      34.574  -6.644 -23.467  0.00  0.00    +0.098 C 
ENDBRANCH  19  22
ENDBRANCH  18  19
ENDBRANCH   6  18
TORSDOF 3
ENDMDL
MODEL 8
REMARK VINA RESULT:     -10.7      1.597      8.226
REMARK  Name = 446752
REMARK  3 active torsions:
REMARK  status: ('A' for Active; 'I' for Inactive)
REMARK    1  A    between atoms: C_6  and  C_18
REMARK    2  A    between atoms: C_18  and  N_19
REMARK    3  A    between atoms: N_19  and  C_22
REMARK                            x       y       z     vdW  Elec       q    Type
REMARK                         _______ _______ _______ _____ _____    ______ ____
ROOT
ATOM      1  N   UNL     1      34.947 -17.209 -24.796  0.00  0.00    -0.182 NA
ATOM      2  N   UNL     1      33.902 -15.427 -25.840  0.00  0.00    -0.273 NA
ATOM      3  N   UNL     1      33.132 -13.515 -24.595  0.00  0.00    -0.312 NA
ATOM      4  N   UNL     1      33.410 -13.389 -22.292  0.00  0.00    -0.332 N 
ATOM      5  N   UNL     1      32.843 -13.630 -26.916  0.00  0.00    -0.283 N 
ATOM      6  C   UNL     1      35.301 -17.211 -22.418  0.00  0.00    +0.010 C 
ATOM      7  C   UNL     1      34.699 -15.978 -22.324  0.00  0.00    -0.009 C 
ATOM      8  C   UNL     1      34.219 -15.363 -23.489  0.00  0.00    +0.115 C 
ATOM      9  C   UNL     1      34.358 -16.008 -24.724  0.00  0.00    +0.104 C 
ATOM     10  C   UNL     1      35.404 -17.788 -23.659  0.00  0.00    +0.107 C 
ATOM     11  C   UNL     1      34.600 -15.373 -20.957  0.00  0.00    +0.032 C 
ATOM     12  C   UNL     1      33.597 -14.117 -23.488  0.00  0.00    +0.201 C 
ATOM     13  C   UNL     1      33.315 -14.217 -25.722  0.00  0.00    +0.206 C 
ATOM     14  H   UNL     1      32.968 -12.510 -22.315  0.00  0.00    +0.145 HD
ATOM     15  H   UNL     1      33.722 -13.762 -21.436  0.00  0.00    +0.145 HD
ATOM     16  H   UNL     1      32.951 -14.101 -27.773  0.00  0.00    +0.156 HD
ATOM     17  H   UNL     1      32.406 -12.747 -26.891  0.00  0.00    +0.156 HD
ENDROOT
BRANCH   6  18
ATOM     18  C   UNL     1      35.841 -17.938 -21.217  0.00  0.00    +0.097 C 
BRANCH  18  19
ATOM     19  N   UNL     1      35.698 -19.348 -21.381  0.00  0.00    -0.288 NA
ATOM     20  H   UNL     1      36.234 -19.800 -22.073  0.00  0.00    +0.124 HD
BRANCH  19  22
ATOM     21  N   UNL     1      34.794 -22.420 -17.709  0.00  0.00    -0.248 NA
ATOM     22  C   UNL     1      34.819 -20.126 -20.589  0.00  0.00    +0.101 C 
ATOM     23  C   UNL     1      35.283 -20.901 -19.514  0.00  0.00    +0.010 C 
ATOM     24  C   UNL     1      34.382 -21.666 -18.745  0.00  0.00    +0.061 C 
ATOM     25  C   UNL     1      33.463 -20.101 -20.907  0.00  0.00    -0.010 C 
ATOM     26  C   UNL     1      36.642 -20.944 -19.173  0.00  0.00    +0.000 C 
ATOM     27  C   UNL     1      33.033 -21.625 -19.084  0.00  0.00    +0.071 C 
ATOM     28  C   UNL     1      32.570 -20.852 -20.153  0.00  0.00    -0.023 C 
ATOM     29  C   UNL     1      37.070 -21.719 -18.107  0.00  0.00    +0.020 C 
ATOM     30  C   UNL     1      36.115 -22.433 -17.412  0.00  0.00    +0.098 C 
ENDBRANCH  19  22
ENDBRANCH  18  19
ENDBRANCH   6  18
TORSDOF 3
ENDMDL
MODEL 9
REMARK VINA RESULT:     -10.6      1.468      7.984
REMARK  Name = 446752
REMARK  3 active torsions:
REMARK  status: ('A' for Active; 'I' for Inactive)
REMARK    1  A    between atoms: C_6  and  C_18
REMARK    2  A    between atoms: C_18  and  N_19
REMARK    3  A    between atoms: N_19  and  C_22
REMARK                            x       y       z     vdW  Elec       q    Type
REMARK                         _______ _______ _______ _____ _____    ______ ____
ROOT
ATOM      1  N   UNL     1      34.636 -15.704 -20.794  0.00  0.00    -0.182 NA
ATOM      2  N   UNL     1      33.685 -13.757 -21.608  0.00  0.00    -0.273 NA
ATOM      3  N   UNL     1      33.247 -13.457 -23.956  0.00  0.00    -0.312 NA
ATOM      4  N   UNL     1      33.765 -15.117 -25.497  0.00  0.00    -0.332 N 
ATOM      5  N   UNL     1      32.721 -11.775 -22.415  0.00  0.00    -0.283 N 
ATOM      6  C   UNL     1      35.222 -17.503 -22.276  0.00  0.00    +0.010 C 
ATOM      7  C   UNL     1      34.766 -16.774 -23.349  0.00  0.00    -0.009 C 
ATOM      8  C   UNL     1      34.239 -15.493 -23.127  0.00  0.00    +0.115 C 
ATOM      9  C   UNL     1      34.186 -14.978 -21.827  0.00  0.00    +0.104 C 
ATOM     10  C   UNL     1      35.143 -16.939 -21.028  0.00  0.00    +0.107 C 
ATOM     11  C   UNL     1      34.866 -17.415 -24.699  0.00  0.00    +0.032 C 
ATOM     12  C   UNL     1      33.754 -14.685 -24.153  0.00  0.00    +0.201 C 
ATOM     13  C   UNL     1      33.242 -13.060 -22.677  0.00  0.00    +0.206 C 
ATOM     14  H   UNL     1      33.416 -14.528 -26.206  0.00  0.00    +0.145 HD
ATOM     15  H   UNL     1      34.121 -16.005 -25.725  0.00  0.00    +0.145 HD
ATOM     16  H   UNL     1      32.693 -11.432 -21.492  0.00  0.00    +0.156 HD
ATOM     17  H   UNL     1      32.383 -11.221 -23.156  0.00  0.00    +0.156 HD
ENDROOT
BRANCH   6  18
ATOM     18  C   UNL     1      35.803 -18.883 -22.428  0.00  0.00    +0.097 C 
BRANCH  18  19
ATOM     19  N   UNL     1      36.049 -19.466 -21.149  0.00  0.00    -0.288 NA
ATOM     20  H   UNL     1      36.937 -19.345 -20.739  0.00  0.00    +0.124 HD
BRANCH  19  22
ATOM     21  N   UNL     1      34.695 -22.506 -17.590  0.00  0.00    -0.248 NA
ATOM     22  C   UNL     1      35.071 -20.209 -20.445  0.00  0.00    +0.101 C 
ATOM     23  C   UNL     1      35.405 -21.004 -19.336  0.00  0.00    +0.010 C 
ATOM     24  C   UNL     1      34.409 -21.734 -18.656  0.00  0.00    +0.061 C 
ATOM     25  C   UNL     1      33.752 -20.131 -20.884  0.00  0.00    -0.010 C 
ATOM     26  C   UNL     1      36.725 -21.100 -18.873  0.00  0.00    +0.000 C 
ATOM     27  C   UNL     1      33.099 -21.639 -19.116  0.00  0.00    +0.071 C 
ATOM     28  C   UNL     1      32.765 -20.848 -20.219  0.00  0.00    -0.023 C 
ATOM     29  C   UNL     1      37.024 -21.894 -17.776  0.00  0.00    +0.020 C 
ATOM     30  C   UNL     1      35.982 -22.570 -17.175  0.00  0.00    +0.098 C 
ENDBRANCH  19  22
ENDBRANCH  18  19
ENDBRANCH   6  18
TORSDOF 3
ENDMDL
