MODEL 1
REMARK VINA RESULT:     -12.5      0.000      0.000
REMARK  Name = 445480
REMARK  5 active torsions:
REMARK  status: ('A' for Active; 'I' for Inactive)
REMARK    1  A    between atoms: N_2  and  C_21
REMARK    2  A    between atoms: C_3  and  N_7
REMARK    3  A    between atoms: N_7  and  S_9
REMARK    4  A    between atoms: S_9  and  C_14
REMARK    5  A    between atoms: C_21  and  C_24
REMARK                            x       y       z     vdW  Elec       q    Type
REMARK                         _______ _______ _______ _____ _____    ______ ____
ROOT
ATOM      1  O   UNL     1      36.215 -21.303 -20.037  0.00  0.00    -0.273 OA
ATOM      2  N   UNL     1      34.088 -21.950 -19.268  0.00  0.00    -0.274 N 
ATOM      3  C   UNL     1      34.265 -19.881 -20.326  0.00  0.00    +0.153 C 
ATOM      4  C   UNL     1      32.809 -20.329 -20.324  0.00  0.00    +0.048 C 
ATOM      5  C   UNL     1      32.761 -21.380 -19.231  0.00  0.00    +0.096 C 
ATOM      6  C   UNL     1      35.016 -21.114 -19.890  0.00  0.00    +0.242 C 
ENDROOT
BRANCH   3   7
ATOM      7  N   UNL     1      34.698 -19.498 -21.674  0.00  0.00    -0.171 NA
ATOM      8  H   UNL     1      35.108 -20.325 -22.108  0.00  0.00    +0.149 HD
BRANCH   7   9
ATOM      9  S   UNL     1      35.837 -18.226 -21.826  0.00  0.00    +0.066 S 
ATOM     10  O   UNL     1      37.040 -18.734 -22.458  0.00  0.00    -0.152 OA
ATOM     11  O   UNL     1      35.896 -17.490 -20.578  0.00  0.00    -0.152 OA
BRANCH   9  14
ATOM     12  S   UNL     1      34.656 -15.592 -22.261  0.00  0.00    -0.066 S 
ATOM     13  N   UNL     1      34.062 -15.622 -26.106  0.00  0.00    -0.243 NA
ATOM     14  C   UNL     1      35.154 -17.040 -22.984  0.00  0.00    +0.153 C 
ATOM     15  C   UNL     1      34.963 -17.089 -24.322  0.00  0.00    +0.046 C 
ATOM     16  C   UNL     1      34.377 -15.882 -24.807  0.00  0.00    +0.089 C 
ATOM     17  C   UNL     1      34.151 -14.964 -23.780  0.00  0.00    +0.048 C 
ATOM     18  C   UNL     1      33.579 -13.716 -24.067  0.00  0.00    +0.010 C 
ATOM     19  C   UNL     1      33.256 -13.446 -25.389  0.00  0.00    +0.021 C 
ATOM     20  C   UNL     1      33.514 -14.414 -26.344  0.00  0.00    +0.099 C 
ENDBRANCH   9  14
ENDBRANCH   7   9
ENDBRANCH   3   7
BRANCH   2  21
ATOM     21  C   UNL     1      34.395 -23.198 -18.605  0.00  0.00    +0.120 C 
BRANCH  21  24
ATOM     22  N   UNL     1      29.945 -23.050 -14.298  0.00  0.00    -0.230 NA
ATOM     23  N   UNL     1      29.629 -22.925 -16.628  0.00  0.00    -0.343 N 
ATOM     24  C   UNL     1      33.812 -23.216 -17.219  0.00  0.00    -0.002 C 
ATOM     25  C   UNL     1      32.438 -23.119 -17.053  0.00  0.00    +0.000 C 
ATOM     26  C   UNL     1      34.656 -23.328 -16.124  0.00  0.00    -0.003 C 
ATOM     27  C   UNL     1      31.886 -23.134 -15.761  0.00  0.00    +0.031 C 
ATOM     28  C   UNL     1      32.733 -23.246 -14.638  0.00  0.00    +0.004 C 
ATOM     29  C   UNL     1      34.121 -23.343 -14.836  0.00  0.00    -0.000 C 
ATOM     30  C   UNL     1      30.514 -23.040 -15.525  0.00  0.00    +0.125 C 
ATOM     31  C   UNL     1      32.164 -23.259 -13.359  0.00  0.00    +0.021 C 
ATOM     32  C   UNL     1      30.786 -23.159 -13.248  0.00  0.00    +0.100 C 
ATOM     33  H   UNL     1      28.658 -22.858 -16.476  0.00  0.00    +0.144 HD
ATOM     34  H   UNL     1      29.986 -22.912 -17.545  0.00  0.00    +0.144 HD
ENDBRANCH  21  24
ENDBRANCH   2  21
TORSDOF 5
ENDMDL
MODEL 2
REMARK VINA RESULT:     -12.5      2.867     10.513
REMARK  Name = 445480
REMARK  5 active torsions:
REMARK  status: ('A' for Active; 'I' for Inactive)
REMARK    1  A    between atoms: N_2  and  C_21
REMARK    2  A    between atoms: C_3  and  N_7
REMARK    3  A    between atoms: N_7  and  S_9
REMARK    4  A    between atoms: S_9  and  C_14
REMARK    5  A    between atoms: C_21  and  C_24
REMARK                            x       y       z     vdW  Elec       q    Type
REMARK                         _______ _______ _______ _____ _____    ______ ____
ROOT
ATOM      1  O   UNL     1      36.835 -20.657 -19.651  0.00  0.00    -0.273 OA
ATOM      2  N   UNL     1      35.218 -19.675 -21.048  0.00  0.00    -0.274 N 
ATOM      3  C   UNL     1      34.545 -21.469 -19.721  0.00  0.00    +0.153 C 
ATOM      4  C   UNL     1      33.320 -20.686 -20.179  0.00  0.00    +0.048 C 
ATOM      5  C   UNL     1      33.828 -19.896 -21.371  0.00  0.00    +0.096 C 
ATOM      6  C   UNL     1      35.699 -20.570 -20.093  0.00  0.00    +0.242 C 
ENDROOT
BRANCH   3   7
ATOM      7  N   UNL     1      34.532 -21.668 -18.268  0.00  0.00    -0.171 NA
ATOM      8  H   UNL     1      35.488 -21.885 -17.982  0.00  0.00    +0.149 HD
BRANCH   7   9
ATOM      9  S   UNL     1      33.520 -22.897 -17.631  0.00  0.00    +0.066 S 
ATOM     10  O   UNL     1      33.707 -24.115 -18.397  0.00  0.00    -0.152 OA
ATOM     11  O   UNL     1      32.198 -22.350 -17.398  0.00  0.00    -0.152 OA
BRANCH   9  14
ATOM     12  S   UNL     1      35.754 -22.899 -15.752  0.00  0.00    -0.066 S 
ATOM     13  N   UNL     1      34.100 -24.397 -12.565  0.00  0.00    -0.243 NA
ATOM     14  C   UNL     1      34.119 -23.272 -15.983  0.00  0.00    +0.153 C 
ATOM     15  C   UNL     1      33.508 -23.796 -14.896  0.00  0.00    +0.046 C 
ATOM     16  C   UNL     1      34.411 -23.908 -13.797  0.00  0.00    +0.089 C 
ATOM     17  C   UNL     1      35.689 -23.450 -14.125  0.00  0.00    +0.048 C 
ATOM     18  C   UNL     1      36.713 -23.482 -13.168  0.00  0.00    +0.010 C 
ATOM     19  C   UNL     1      36.401 -23.980 -11.910  0.00  0.00    +0.021 C 
ATOM     20  C   UNL     1      35.109 -24.412 -11.671  0.00  0.00    +0.099 C 
ENDBRANCH   9  14
ENDBRANCH   7   9
ENDBRANCH   3   7
BRANCH   2  21
ATOM     21  C   UNL     1      36.014 -18.699 -21.759  0.00  0.00    +0.120 C 
BRANCH  21  24
ATOM     22  N   UNL     1      33.298 -13.865 -24.521  0.00  0.00    -0.230 NA
ATOM     23  N   UNL     1      34.292 -15.705 -25.603  0.00  0.00    -0.343 N 
ATOM     24  C   UNL     1      35.287 -17.386 -21.845  0.00  0.00    -0.002 C 
ATOM     25  C   UNL     1      34.972 -16.856 -23.089  0.00  0.00    +0.000 C 
ATOM     26  C   UNL     1      34.941 -16.719 -20.679  0.00  0.00    -0.003 C 
ATOM     27  C   UNL     1      34.294 -15.629 -23.177  0.00  0.00    +0.031 C 
ATOM     28  C   UNL     1      33.936 -14.940 -21.999  0.00  0.00    +0.004 C 
ATOM     29  C   UNL     1      34.268 -15.499 -20.753  0.00  0.00    -0.000 C 
ATOM     30  C   UNL     1      33.949 -15.043 -24.395  0.00  0.00    +0.125 C 
ATOM     31  C   UNL     1      33.261 -13.719 -22.107  0.00  0.00    +0.021 C 
ATOM     32  C   UNL     1      32.971 -13.234 -23.373  0.00  0.00    +0.100 C 
ATOM     33  H   UNL     1      34.055 -15.303 -26.469  0.00  0.00    +0.144 HD
ATOM     34  H   UNL     1      34.767 -16.567 -25.573  0.00  0.00    +0.144 HD
ENDBRANCH  21  24
ENDBRANCH   2  21
TORSDOF 5
ENDMDL
MODEL 3
REMARK VINA RESULT:     -12.4      2.206      3.361
REMARK  Name = 445480
REMARK  5 active torsions:
REMARK  status: ('A' for Active; 'I' for Inactive)
REMARK    1  A    between atoms: N_2  and  C_21
REMARK    2  A    between atoms: C_3  and  N_7
REMARK    3  A    between atoms: N_7  and  S_9
REMARK    4  A    between atoms: S_9  and  C_14
REMARK    5  A    between atoms: C_21  and  C_24
REMARK                            x       y       z     vdW  Elec       q    Type
REMARK                         _______ _______ _______ _____ _____    ______ ____
ROOT
ATOM      1  O   UNL     1      32.583 -20.526 -19.855  0.00  0.00    -0.273 OA
ATOM      2  N   UNL     1      34.010 -21.995 -18.699  0.00  0.00    -0.274 N 
ATOM      3  C   UNL     1      34.930 -20.757 -20.445  0.00  0.00    +0.153 C 
ATOM      4  C   UNL     1      36.045 -21.269 -19.542  0.00  0.00    +0.048 C 
ATOM      5  C   UNL     1      35.392 -22.408 -18.782  0.00  0.00    +0.096 C 
ATOM      6  C   UNL     1      33.676 -21.035 -19.653  0.00  0.00    +0.242 C 
ENDROOT
BRANCH   3   7
ATOM      7  N   UNL     1      35.054 -19.312 -20.670  0.00  0.00    -0.171 NA
ATOM      8  H   UNL     1      34.116 -18.914 -20.611  0.00  0.00    +0.149 HD
BRANCH   7   9
ATOM      9  S   UNL     1      35.740 -18.781 -22.149  0.00  0.00    +0.066 S 
ATOM     10  O   UNL     1      35.263 -19.625 -23.228  0.00  0.00    -0.152 OA
ATOM     11  O   UNL     1      37.155 -18.536 -21.954  0.00  0.00    -0.152 OA
BRANCH   9  14
ATOM     12  S   UNL     1      34.616 -16.302 -21.093  0.00  0.00    -0.066 S 
ATOM     13  N   UNL     1      33.977 -14.278 -24.353  0.00  0.00    -0.243 NA
ATOM     14  C   UNL     1      35.071 -17.152 -22.485  0.00  0.00    +0.153 C 
ATOM     15  C   UNL     1      34.864 -16.480 -23.640  0.00  0.00    +0.046 C 
ATOM     16  C   UNL     1      34.300 -15.192 -23.397  0.00  0.00    +0.089 C 
ATOM     17  C   UNL     1      34.108 -14.957 -22.035  0.00  0.00    +0.048 C 
ATOM     18  C   UNL     1      33.563 -13.739 -21.603  0.00  0.00    +0.010 C 
ATOM     19  C   UNL     1      33.231 -12.803 -22.573  0.00  0.00    +0.021 C 
ATOM     20  C   UNL     1      33.455 -13.120 -23.901  0.00  0.00    +0.099 C 
ENDBRANCH   9  14
ENDBRANCH   7   9
ENDBRANCH   3   7
BRANCH   2  21
ATOM     21  C   UNL     1      33.083 -22.632 -17.789  0.00  0.00    +0.120 C 
BRANCH  21  24
ATOM     22  N   UNL     1      37.831 -23.415 -13.888  0.00  0.00    -0.230 NA
ATOM     23  N   UNL     1      37.976 -22.711 -16.130  0.00  0.00    -0.343 N 
ATOM     24  C   UNL     1      33.764 -22.970 -16.492  0.00  0.00    -0.002 C 
ATOM     25  C   UNL     1      35.146 -22.877 -16.400  0.00  0.00    +0.000 C 
ATOM     26  C   UNL     1      33.003 -23.373 -15.405  0.00  0.00    -0.003 C 
ATOM     27  C   UNL     1      35.790 -23.193 -15.192  0.00  0.00    +0.031 C 
ATOM     28  C   UNL     1      35.028 -23.603 -14.078  0.00  0.00    +0.004 C 
ATOM     29  C   UNL     1      33.631 -23.689 -14.200  0.00  0.00    -0.000 C 
ATOM     30  C   UNL     1      37.175 -23.120 -15.032  0.00  0.00    +0.125 C 
ATOM     31  C   UNL     1      35.688 -23.914 -12.883  0.00  0.00    +0.021 C 
ATOM     32  C   UNL     1      37.069 -23.804 -12.843  0.00  0.00    +0.100 C 
ATOM     33  H   UNL     1      38.954 -22.656 -16.032  0.00  0.00    +0.144 HD
ATOM     34  H   UNL     1      37.553 -22.483 -16.989  0.00  0.00    +0.144 HD
ENDBRANCH  21  24
ENDBRANCH   2  21
TORSDOF 5
ENDMDL
MODEL 4
REMARK VINA RESULT:     -12.3      3.061     10.511
REMARK  Name = 445480
REMARK  5 active torsions:
REMARK  status: ('A' for Active; 'I' for Inactive)
REMARK    1  A    between atoms: N_2  and  C_21
REMARK    2  A    between atoms: C_3  and  N_7
REMARK    3  A    between atoms: N_7  and  S_9
REMARK    4  A    between atoms: S_9  and  C_14
REMARK    5  A    between atoms: C_21  and  C_24
REMARK                            x       y       z     vdW  Elec       q    Type
REMARK                         _______ _______ _______ _____ _____    ______ ____
ROOT
ATOM      1  O   UNL     1      36.557 -21.011 -19.236  0.00  0.00    -0.273 OA
ATOM      2  N   UNL     1      35.258 -19.861 -20.824  0.00  0.00    -0.274 N 
ATOM      3  C   UNL     1      34.191 -21.481 -19.533  0.00  0.00    +0.153 C 
ATOM      4  C   UNL     1      33.151 -20.547 -20.140  0.00  0.00    +0.048 C 
ATOM      5  C   UNL     1      33.891 -19.890 -21.290  0.00  0.00    +0.096 C 
ATOM      6  C   UNL     1      35.498 -20.777 -19.801  0.00  0.00    +0.242 C 
ENDROOT
BRANCH   3   7
ATOM      7  N   UNL     1      33.998 -21.616 -18.085  0.00  0.00    -0.171 NA
ATOM      8  H   UNL     1      34.916 -21.538 -17.647  0.00  0.00    +0.149 HD
BRANCH   7   9
ATOM      9  S   UNL     1      33.274 -23.055 -17.497  0.00  0.00    +0.066 S 
ATOM     10  O   UNL     1      33.686 -24.171 -18.328  0.00  0.00    -0.152 OA
ATOM     11  O   UNL     1      31.874 -22.801 -17.217  0.00  0.00    -0.152 OA
BRANCH   9  14
ATOM     12  S   UNL     1      35.597 -22.903 -15.737  0.00  0.00    -0.066 S 
ATOM     13  N   UNL     1      34.204 -24.470 -12.460  0.00  0.00    -0.243 NA
ATOM     14  C   UNL     1      33.978 -23.378 -15.881  0.00  0.00    +0.153 C 
ATOM     15  C   UNL     1      33.457 -23.928 -14.761  0.00  0.00    +0.046 C 
ATOM     16  C   UNL     1      34.421 -23.974 -13.709  0.00  0.00    +0.089 C 
ATOM     17  C   UNL     1      35.649 -23.442 -14.105  0.00  0.00    +0.048 C 
ATOM     18  C   UNL     1      36.721 -23.402 -13.202  0.00  0.00    +0.010 C 
ATOM     19  C   UNL     1      36.505 -23.907 -11.926  0.00  0.00    +0.021 C 
ATOM     20  C   UNL     1      35.256 -24.416 -11.619  0.00  0.00    +0.099 C 
ENDBRANCH   9  14
ENDBRANCH   7   9
ENDBRANCH   3   7
BRANCH   2  21
ATOM     21  C   UNL     1      36.261 -19.043 -21.471  0.00  0.00    +0.120 C 
BRANCH  21  24
ATOM     22  N   UNL     1      33.608 -13.556 -22.582  0.00  0.00    -0.230 NA
ATOM     23  N   UNL     1      34.392 -14.324 -20.499  0.00  0.00    -0.343 N 
ATOM     24  C   UNL     1      35.612 -17.963 -22.291  0.00  0.00    -0.002 C 
ATOM     25  C   UNL     1      35.221 -16.779 -21.679  0.00  0.00    +0.000 C 
ATOM     26  C   UNL     1      35.410 -18.164 -23.648  0.00  0.00    -0.003 C 
ATOM     27  C   UNL     1      34.612 -15.766 -22.439  0.00  0.00    +0.031 C 
ATOM     28  C   UNL     1      34.401 -15.958 -23.821  0.00  0.00    +0.004 C 
ATOM     29  C   UNL     1      34.805 -17.165 -24.413  0.00  0.00    -0.000 C 
ATOM     30  C   UNL     1      34.197 -14.554 -21.886  0.00  0.00    +0.125 C 
ATOM     31  C   UNL     1      33.792 -14.937 -24.560  0.00  0.00    +0.021 C 
ATOM     32  C   UNL     1      33.422 -13.774 -23.902  0.00  0.00    +0.100 C 
ATOM     33  H   UNL     1      34.103 -13.474 -20.096  0.00  0.00    +0.144 HD
ATOM     34  H   UNL     1      34.816 -15.015 -19.941  0.00  0.00    +0.144 HD
ENDBRANCH  21  24
ENDBRANCH   2  21
TORSDOF 5
ENDMDL
MODEL 5
REMARK VINA RESULT:     -12.1      4.319      7.091
REMARK  Name = 445480
REMARK  5 active torsions:
REMARK  status: ('A' for Active; 'I' for Inactive)
REMARK    1  A    between atoms: N_2  and  C_21
REMARK    2  A    between atoms: C_3  and  N_7
REMARK    3  A    between atoms: N_7  and  S_9
REMARK    4  A    between atoms: S_9  and  C_14
REMARK    5  A    between atoms: C_21  and  C_24
REMARK                            x       y       z     vdW  Elec       q    Type
REMARK                         _______ _______ _______ _____ _____    ______ ____
ROOT
ATOM      1  O   UNL     1      33.618 -14.621 -24.103  0.00  0.00    -0.273 OA
ATOM      2  N   UNL     1      34.438 -15.928 -22.327  0.00  0.00    -0.274 N 
ATOM      3  C   UNL     1      33.488 -13.868 -21.796  0.00  0.00    +0.153 C 
ATOM      4  C   UNL     1      33.526 -14.747 -20.552  0.00  0.00    +0.048 C 
ATOM      5  C   UNL     1      34.561 -15.802 -20.894  0.00  0.00    +0.096 C 
ATOM      6  C   UNL     1      33.825 -14.822 -22.915  0.00  0.00    +0.242 C 
ENDROOT
BRANCH   3   7
ATOM      7  N   UNL     1      32.145 -13.317 -22.013  0.00  0.00    -0.171 NA
ATOM      8  H   UNL     1      32.049 -13.137 -23.013  0.00  0.00    +0.149 HD
BRANCH   7   9
ATOM      9  S   UNL     1      31.723 -11.872 -21.192  0.00  0.00    +0.066 S 
ATOM     10  O   UNL     1      32.245 -11.921 -19.839  0.00  0.00    -0.152 OA
ATOM     11  O   UNL     1      30.328 -11.570 -21.450  0.00  0.00    -0.152 OA
BRANCH   9  14
ATOM     12  S   UNL     1      32.107  -8.994 -21.489  0.00  0.00    -0.066 S 
ATOM     13  N   UNL     1      34.928  -8.850 -24.164  0.00  0.00    -0.243 NA
ATOM     14  C   UNL     1      32.602 -10.533 -21.995  0.00  0.00    +0.153 C 
ATOM     15  C   UNL     1      33.582 -10.524 -22.926  0.00  0.00    +0.046 C 
ATOM     16  C   UNL     1      33.968  -9.191 -23.261  0.00  0.00    +0.089 C 
ATOM     17  C   UNL     1      33.237  -8.243 -22.544  0.00  0.00    +0.048 C 
ATOM     18  C   UNL     1      33.479  -6.875 -22.740  0.00  0.00    +0.010 C 
ATOM     19  C   UNL     1      34.456  -6.521 -23.661  0.00  0.00    +0.021 C 
ATOM     20  C   UNL     1      35.132  -7.527 -24.327  0.00  0.00    +0.099 C 
ENDBRANCH   9  14
ENDBRANCH   7   9
ENDBRANCH   3   7
BRANCH   2  21
ATOM     21  C   UNL     1      35.019 -17.043 -23.042  0.00  0.00    +0.120 C 
BRANCH  21  24
ATOM     22  N   UNL     1      34.219 -21.788 -19.140  0.00  0.00    -0.230 NA
ATOM     23  N   UNL     1      32.521 -20.641 -20.300  0.00  0.00    -0.343 N 
ATOM     24  C   UNL     1      35.426 -18.129 -22.085  0.00  0.00    -0.002 C 
ATOM     25  C   UNL     1      34.454 -18.938 -21.513  0.00  0.00    +0.000 C 
ATOM     26  C   UNL     1      36.769 -18.306 -21.783  0.00  0.00    -0.003 C 
ATOM     27  C   UNL     1      34.827 -19.953 -20.616  0.00  0.00    +0.031 C 
ATOM     28  C   UNL     1      36.189 -20.144 -20.300  0.00  0.00    +0.004 C 
ATOM     29  C   UNL     1      37.151 -19.310 -20.893  0.00  0.00    -0.000 C 
ATOM     30  C   UNL     1      33.900 -20.801 -20.008  0.00  0.00    +0.125 C 
ATOM     31  C   UNL     1      36.540 -21.161 -19.404  0.00  0.00    +0.021 C 
ATOM     32  C   UNL     1      35.531 -21.942 -18.862  0.00  0.00    +0.100 C 
ATOM     33  H   UNL     1      31.856 -21.231 -19.878  0.00  0.00    +0.144 HD
ATOM     34  H   UNL     1      32.229 -19.938 -20.925  0.00  0.00    +0.144 HD
ENDBRANCH  21  24
ENDBRANCH   2  21
TORSDOF 5
ENDMDL
MODEL 6
REMARK VINA RESULT:     -12.0      2.133      2.907
REMARK  Name = 445480
REMARK  5 active torsions:
REMARK  status: ('A' for Active; 'I' for Inactive)
REMARK    1  A    between atoms: N_2  and  C_21
REMARK    2  A    between atoms: C_3  and  N_7
REMARK    3  A    between atoms: N_7  and  S_9
REMARK    4  A    between atoms: S_9  and  C_14
REMARK    5  A    between atoms: C_21  and  C_24
REMARK                            x       y       z     vdW  Elec       q    Type
REMARK                         _______ _______ _______ _____ _____    ______ ____
ROOT
ATOM      1  O   UNL     1      32.604 -20.572 -19.647  0.00  0.00    -0.273 OA
ATOM      2  N   UNL     1      34.210 -22.056 -18.782  0.00  0.00    -0.274 N 
ATOM      3  C   UNL     1      34.862 -20.673 -20.540  0.00  0.00    +0.153 C 
ATOM      4  C   UNL     1      36.098 -21.199 -19.820  0.00  0.00    +0.048 C 
ATOM      5  C   UNL     1      35.582 -22.409 -19.065  0.00  0.00    +0.096 C 
ATOM      6  C   UNL     1      33.728 -21.050 -19.619  0.00  0.00    +0.242 C 
ENDROOT
BRANCH   3   7
ATOM      7  N   UNL     1      34.912 -19.213 -20.679  0.00  0.00    -0.171 NA
ATOM      8  H   UNL     1      33.950 -18.875 -20.680  0.00  0.00    +0.149 HD
BRANCH   7   9
ATOM      9  S   UNL     1      35.683 -18.560 -22.064  0.00  0.00    +0.066 S 
ATOM     10  O   UNL     1      35.283 -19.317 -23.235  0.00  0.00    -0.152 OA
ATOM     11  O   UNL     1      37.081 -18.323 -21.761  0.00  0.00    -0.152 OA
BRANCH   9  14
ATOM     12  S   UNL     1      34.891 -16.467 -23.938  0.00  0.00    -0.066 S 
ATOM     13  N   UNL     1      33.670 -13.671 -21.525  0.00  0.00    -0.243 NA
ATOM     14  C   UNL     1      35.019 -16.913 -22.309  0.00  0.00    +0.153 C 
ATOM     15  C   UNL     1      34.604 -15.966 -21.438  0.00  0.00    +0.046 C 
ATOM     16  C   UNL     1      34.149 -14.797 -22.120  0.00  0.00    +0.089 C 
ATOM     17  C   UNL     1      34.250 -14.931 -23.506  0.00  0.00    +0.048 C 
ATOM     18  C   UNL     1      33.848 -13.881 -24.344  0.00  0.00    +0.010 C 
ATOM     19  C   UNL     1      33.359 -12.730 -23.742  0.00  0.00    +0.021 C 
ATOM     20  C   UNL     1      33.294 -12.683 -22.361  0.00  0.00    +0.099 C 
ENDBRANCH   9  14
ENDBRANCH   7   9
ENDBRANCH   3   7
BRANCH   2  21
ATOM     21  C   UNL     1      33.426 -22.786 -17.810  0.00  0.00    +0.120 C 
BRANCH  21  24
ATOM     22  N   UNL     1      34.463 -24.644 -11.992  0.00  0.00    -0.230 NA
ATOM     23  N   UNL     1      32.500 -25.011 -13.238  0.00  0.00    -0.343 N 
ATOM     24  C   UNL     1      34.197 -22.958 -16.531  0.00  0.00    -0.002 C 
ATOM     25  C   UNL     1      33.618 -23.635 -15.466  0.00  0.00    +0.000 C 
ATOM     26  C   UNL     1      35.478 -22.435 -16.430  0.00  0.00    -0.003 C 
ATOM     27  C   UNL     1      34.333 -23.798 -14.268  0.00  0.00    +0.031 C 
ATOM     28  C   UNL     1      35.636 -23.271 -14.152  0.00  0.00    +0.004 C 
ATOM     29  C   UNL     1      36.198 -22.590 -15.245  0.00  0.00    -0.000 C 
ATOM     30  C   UNL     1      33.808 -24.467 -13.161  0.00  0.00    +0.125 C 
ATOM     31  C   UNL     1      36.332 -23.444 -12.949  0.00  0.00    +0.021 C 
ATOM     32  C   UNL     1      35.708 -24.128 -11.918  0.00  0.00    +0.100 C 
ATOM     33  H   UNL     1      32.117 -25.485 -12.465  0.00  0.00    +0.144 HD
ATOM     34  H   UNL     1      31.975 -24.913 -14.065  0.00  0.00    +0.144 HD
ENDBRANCH  21  24
ENDBRANCH   2  21
TORSDOF 5
ENDMDL
MODEL 7
REMARK VINA RESULT:     -12.0      1.229      1.746
REMARK  Name = 445480
REMARK  5 active torsions:
REMARK  status: ('A' for Active; 'I' for Inactive)
REMARK    1  A    between atoms: N_2  and  C_21
REMARK    2  A    between atoms: C_3  and  N_7
REMARK    3  A    between atoms: N_7  and  S_9
REMARK    4  A    between atoms: S_9  and  C_14
REMARK    5  A    between atoms: C_21  and  C_24
REMARK                            x       y       z     vdW  Elec       q    Type
REMARK                         _______ _______ _______ _____ _____    ______ ____
ROOT
ATOM      1  O   UNL     1      36.303 -20.917 -19.727  0.00  0.00    -0.273 OA
ATOM      2  N   UNL     1      34.199 -21.766 -19.105  0.00  0.00    -0.274 N 
ATOM      3  C   UNL     1      34.237 -19.831 -20.404  0.00  0.00    +0.153 C 
ATOM      4  C   UNL     1      32.860 -20.479 -20.494  0.00  0.00    +0.048 C 
ATOM      5  C   UNL     1      32.816 -21.391 -19.282  0.00  0.00    +0.096 C 
ATOM      6  C   UNL     1      35.081 -20.886 -19.732  0.00  0.00    +0.242 C 
ENDROOT
BRANCH   3   7
ATOM      7  N   UNL     1      34.777 -19.551 -21.739  0.00  0.00    -0.171 NA
ATOM      8  H   UNL     1      35.240 -20.401 -22.064  0.00  0.00    +0.149 HD
BRANCH   7   9
ATOM      9  S   UNL     1      35.901 -18.267 -21.902  0.00  0.00    +0.066 S 
ATOM     10  O   UNL     1      37.102 -18.761 -22.548  0.00  0.00    -0.152 OA
ATOM     11  O   UNL     1      35.965 -17.531 -20.654  0.00  0.00    -0.152 OA
BRANCH   9  14
ATOM     12  S   UNL     1      34.675 -15.650 -22.320  0.00  0.00    -0.066 S 
ATOM     13  N   UNL     1      34.057 -15.676 -26.160  0.00  0.00    -0.243 NA
ATOM     14  C   UNL     1      35.191 -17.088 -23.051  0.00  0.00    +0.153 C 
ATOM     15  C   UNL     1      34.993 -17.135 -24.388  0.00  0.00    +0.046 C 
ATOM     16  C   UNL     1      34.384 -15.935 -24.864  0.00  0.00    +0.089 C 
ATOM     17  C   UNL     1      34.150 -15.025 -23.833  0.00  0.00    +0.048 C 
ATOM     18  C   UNL     1      33.557 -13.785 -24.111  0.00  0.00    +0.010 C 
ATOM     19  C   UNL     1      33.221 -13.515 -25.431  0.00  0.00    +0.021 C 
ATOM     20  C   UNL     1      33.488 -14.475 -26.390  0.00  0.00    +0.099 C 
ENDBRANCH   9  14
ENDBRANCH   7   9
ENDBRANCH   3   7
BRANCH   2  21
ATOM     21  C   UNL     1      34.581 -22.871 -18.254  0.00  0.00    +0.120 C 
BRANCH  21  24
ATOM     22  N   UNL     1      32.479 -24.657 -12.707  0.00  0.00    -0.230 NA
ATOM     23  N   UNL     1      34.676 -24.920 -13.510  0.00  0.00    -0.343 N 
ATOM     24  C   UNL     1      33.575 -23.061 -17.153  0.00  0.00    -0.002 C 
ATOM     25  C   UNL     1      33.961 -23.673 -15.969  0.00  0.00    +0.000 C 
ATOM     26  C   UNL     1      32.271 -22.624 -17.336  0.00  0.00    -0.003 C 
ATOM     27  C   UNL     1      33.026 -23.856 -14.937  0.00  0.00    +0.031 C 
ATOM     28  C   UNL     1      31.697 -23.416 -15.110  0.00  0.00    +0.004 C 
ATOM     29  C   UNL     1      31.333 -22.800 -16.319  0.00  0.00    -0.000 C 
ATOM     30  C   UNL     1      33.350 -24.463 -13.723  0.00  0.00    +0.125 C 
ATOM     31  C   UNL     1      30.779 -23.607 -14.070  0.00  0.00    +0.021 C 
ATOM     32  C   UNL     1      31.217 -24.223 -12.908  0.00  0.00    +0.100 C 
ATOM     33  H   UNL     1      34.919 -25.350 -12.659  0.00  0.00    +0.144 HD
ATOM     34  H   UNL     1      35.354 -24.806 -14.215  0.00  0.00    +0.144 HD
ENDBRANCH  21  24
ENDBRANCH   2  21
TORSDOF 5
ENDMDL
MODEL 8
REMARK VINA RESULT:     -11.7      3.346     10.188
REMARK  Name = 445480
REMARK  5 active torsions:
REMARK  status: ('A' for Active; 'I' for Inactive)
REMARK    1  A    between atoms: N_2  and  C_21
REMARK    2  A    between atoms: C_3  and  N_7
REMARK    3  A    between atoms: N_7  and  S_9
REMARK    4  A    between atoms: S_9  and  C_14
REMARK    5  A    between atoms: C_21  and  C_24
REMARK                            x       y       z     vdW  Elec       q    Type
REMARK                         _______ _______ _______ _____ _____    ______ ____
ROOT
ATOM      1  O   UNL     1      37.364 -18.628 -20.430  0.00  0.00    -0.273 OA
ATOM      2  N   UNL     1      35.583 -18.357 -21.942  0.00  0.00    -0.274 N 
ATOM      3  C   UNL     1      35.718 -20.380 -20.792  0.00  0.00    +0.153 C 
ATOM      4  C   UNL     1      34.308 -20.198 -21.340  0.00  0.00    +0.048 C 
ATOM      5  C   UNL     1      34.480 -19.154 -22.427  0.00  0.00    +0.096 C 
ATOM      6  C   UNL     1      36.352 -19.024 -20.989  0.00  0.00    +0.242 C 
ENDROOT
BRANCH   3   7
ATOM      7  N   UNL     1      35.692 -20.702 -19.361  0.00  0.00    -0.171 NA
ATOM      8  H   UNL     1      36.650 -20.908 -19.078  0.00  0.00    +0.149 HD
BRANCH   7   9
ATOM      9  S   UNL     1      34.716 -22.015 -18.847  0.00  0.00    +0.066 S 
ATOM     10  O   UNL     1      34.980 -23.166 -19.691  0.00  0.00    -0.152 OA
ATOM     11  O   UNL     1      33.365 -21.542 -18.620  0.00  0.00    -0.152 OA
BRANCH   9  14
ATOM     12  S   UNL     1      34.089 -23.233 -16.269  0.00  0.00    -0.066 S 
ATOM     13  N   UNL     1      37.483 -22.899 -14.396  0.00  0.00    -0.243 NA
ATOM     14  C   UNL     1      35.281 -22.483 -17.211  0.00  0.00    +0.153 C 
ATOM     15  C   UNL     1      36.476 -22.349 -16.594  0.00  0.00    +0.046 C 
ATOM     16  C   UNL     1      36.440 -22.883 -15.271  0.00  0.00    +0.089 C 
ATOM     17  C   UNL     1      35.184 -23.406 -14.955  0.00  0.00    +0.048 C 
ATOM     18  C   UNL     1      34.959 -23.977 -13.695  0.00  0.00    +0.010 C 
ATOM     19  C   UNL     1      36.019 -23.995 -12.798  0.00  0.00    +0.021 C 
ATOM     20  C   UNL     1      37.229 -23.455 -13.195  0.00  0.00    +0.099 C 
ENDBRANCH   9  14
ENDBRANCH   7   9
ENDBRANCH   3   7
BRANCH   2  21
ATOM     21  C   UNL     1      35.890 -17.063 -22.511  0.00  0.00    +0.120 C 
BRANCH  21  24
ATOM     22  N   UNL     1      32.597 -11.816 -22.554  0.00  0.00    -0.230 NA
ATOM     23  N   UNL     1      33.989 -12.597 -24.285  0.00  0.00    -0.343 N 
ATOM     24  C   UNL     1      34.951 -16.017 -21.979  0.00  0.00    -0.002 C 
ATOM     25  C   UNL     1      34.652 -14.905 -22.755  0.00  0.00    +0.000 C 
ATOM     26  C   UNL     1      34.396 -16.175 -20.718  0.00  0.00    -0.003 C 
ATOM     27  C   UNL     1      33.776 -13.923 -22.263  0.00  0.00    +0.031 C 
ATOM     28  C   UNL     1      33.205 -14.071 -20.982  0.00  0.00    +0.004 C 
ATOM     29  C   UNL     1      33.525 -15.206 -20.218  0.00  0.00    -0.000 C 
ATOM     30  C   UNL     1      33.435 -12.783 -22.992  0.00  0.00    +0.125 C 
ATOM     31  C   UNL     1      32.335 -13.082 -20.510  0.00  0.00    +0.021 C 
ATOM     32  C   UNL     1      32.069 -11.992 -21.324  0.00  0.00    +0.100 C 
ATOM     33  H   UNL     1      33.758 -11.797 -24.810  0.00  0.00    +0.144 HD
ATOM     34  H   UNL     1      34.606 -13.269 -24.656  0.00  0.00    +0.144 HD
ENDBRANCH  21  24
ENDBRANCH   2  21
TORSDOF 5
ENDMDL
MODEL 9
REMARK VINA RESULT:     -11.5      6.785     14.206
REMARK  Name = 445480
REMARK  5 active torsions:
REMARK  status: ('A' for Active; 'I' for Inactive)
REMARK    1  A    between atoms: N_2  and  C_21
REMARK    2  A    between atoms: C_3  and  N_7
REMARK    3  A    between atoms: N_7  and  S_9
REMARK    4  A    between atoms: S_9  and  C_14
REMARK    5  A    between atoms: C_21  and  C_24
REMARK                            x       y       z     vdW  Elec       q    Type
REMARK                         _______ _______ _______ _____ _____    ______ ____
ROOT
ATOM      1  O   UNL     1      35.855  -9.891 -24.744  0.00  0.00    -0.273 OA
ATOM      2  N   UNL     1      34.430  -8.678 -23.319  0.00  0.00    -0.274 N 
ATOM      3  C   UNL     1      33.756 -10.819 -23.945  0.00  0.00    +0.153 C 
ATOM      4  C   UNL     1      32.989 -10.387 -22.701  0.00  0.00    +0.048 C 
ATOM      5  C   UNL     1      33.143  -8.878 -22.694  0.00  0.00    +0.096 C 
ATOM      6  C   UNL     1      34.840  -9.777 -24.073  0.00  0.00    +0.242 C 
ENDROOT
BRANCH   3   7
ATOM      7  N   UNL     1      34.368 -12.139 -23.757  0.00  0.00    -0.171 NA
ATOM      8  H   UNL     1      35.280 -12.119 -24.214  0.00  0.00    +0.149 HD
BRANCH   7   9
ATOM      9  S   UNL     1      33.529 -13.510 -24.354  0.00  0.00    +0.066 S 
ATOM     10  O   UNL     1      33.859 -13.699 -25.755  0.00  0.00    -0.152 OA
ATOM     11  O   UNL     1      32.152 -13.457 -23.906  0.00  0.00    -0.152 OA
BRANCH   9  14
ATOM     12  S   UNL     1      34.643 -16.201 -24.552  0.00  0.00    -0.066 S 
ATOM     13  N   UNL     1      35.284 -17.063 -20.813  0.00  0.00    -0.243 NA
ATOM     14  C   UNL     1      34.194 -14.944 -23.509  0.00  0.00    +0.153 C 
ATOM     15  C   UNL     1      34.402 -15.207 -22.199  0.00  0.00    +0.046 C 
ATOM     16  C   UNL     1      34.961 -16.506 -22.013  0.00  0.00    +0.089 C 
ATOM     17  C   UNL     1      35.149 -17.171 -23.225  0.00  0.00    +0.048 C 
ATOM     18  C   UNL     1      35.691 -18.464 -23.241  0.00  0.00    +0.010 C 
ATOM     19  C   UNL     1      36.022 -19.037 -22.020  0.00  0.00    +0.021 C 
ATOM     20  C   UNL     1      35.801 -18.307 -20.866  0.00  0.00    +0.099 C 
ENDBRANCH   9  14
ENDBRANCH   7   9
ENDBRANCH   3   7
BRANCH   2  21
ATOM     21  C   UNL     1      35.120  -7.408 -23.243  0.00  0.00    +0.120 C 
BRANCH  21  24
ATOM     22  N   UNL     1      30.555  -3.260 -23.819  0.00  0.00    -0.230 NA
ATOM     23  N   UNL     1      30.915  -4.683 -21.979  0.00  0.00    -0.343 N 
ATOM     24  C   UNL     1      34.310  -6.328 -23.905  0.00  0.00    -0.002 C 
ATOM     25  C   UNL     1      33.201  -5.806 -23.252  0.00  0.00    +0.000 C 
ATOM     26  C   UNL     1      34.679  -5.869 -25.160  0.00  0.00    -0.003 C 
ATOM     27  C   UNL     1      32.439  -4.798 -23.865  0.00  0.00    +0.031 C 
ATOM     28  C   UNL     1      32.803  -4.321 -25.142  0.00  0.00    +0.004 C 
ATOM     29  C   UNL     1      33.929  -4.868 -25.779  0.00  0.00    -0.000 C 
ATOM     30  C   UNL     1      31.314  -4.231 -23.263  0.00  0.00    +0.125 C 
ATOM     31  C   UNL     1      32.030  -3.316 -25.736  0.00  0.00    +0.021 C 
ATOM     32  C   UNL     1      30.934  -2.829 -25.041  0.00  0.00    +0.100 C 
ATOM     33  H   UNL     1      30.124  -4.292 -21.543  0.00  0.00    +0.144 HD
ATOM     34  H   UNL     1      31.430  -5.389 -21.524  0.00  0.00    +0.144 HD
ENDBRANCH  21  24
ENDBRANCH   2  21
TORSDOF 5
ENDMDL
