MODEL 1
REMARK VINA RESULT:     -11.3      0.000      0.000
REMARK  Name = 6852141
REMARK  6 active torsions:
REMARK  status: ('A' for Active; 'I' for Inactive)
REMARK    1  A    between atoms: C_3  and  N_18
REMARK    2  A    between atoms: C_7  and  C_31
REMARK    3  A    between atoms: C_9  and  C_13
REMARK    4  A    between atoms: C_19  and  C_21
REMARK    5  A    between atoms: C_24  and  O_28
REMARK    6  A    between atoms: C_31  and  O_32
REMARK                            x       y       z     vdW  Elec       q    Type
REMARK                         _______ _______ _______ _____ _____    ______ ____
ROOT
ATOM      1  C   UNL     1      32.536 -23.590 -15.139  0.00  0.00    +0.014 C 
ATOM      2  C   UNL     1      32.449 -24.420 -13.997  0.00  0.00    +0.001 C 
ATOM      3  C   UNL     1      33.801 -23.269 -15.659  0.00  0.00    +0.051 C 
ATOM      4  C   UNL     1      31.358 -23.104 -15.728  0.00  0.00    +0.004 C 
ATOM      5  C   UNL     1      33.627 -24.906 -13.408  0.00  0.00    +0.007 C 
ATOM      6  C   UNL     1      34.962 -23.762 -15.062  0.00  0.00    +0.021 C 
ATOM      7  C   UNL     1      34.875 -24.578 -13.938  0.00  0.00    +0.077 C 
ATOM      8  C   UNL     1      31.184 -24.740 -13.476  0.00  0.00    +0.000 C 
ATOM      9  C   UNL     1      30.110 -23.432 -15.197  0.00  0.00    +0.031 C 
ATOM     10  C   UNL     1      30.023 -24.249 -14.074  0.00  0.00    +0.003 C 
ENDROOT
BRANCH   9  13
ATOM     11  N   UNL     1      28.535 -23.295 -17.112  0.00  0.00    -0.343 N 
ATOM     12  N   UNL     1      28.122 -22.081 -15.158  0.00  0.00    -0.285 NA
ATOM     13  C   UNL     1      28.899 -22.921 -15.820  0.00  0.00    +0.117 C 
ATOM     14  H   UNL     1      27.711 -22.937 -17.514  0.00  0.00    +0.144 HD
ATOM     15  H   UNL     1      29.103 -23.917 -17.622  0.00  0.00    +0.144 HD
ATOM     16  H   UNL     1      27.302 -21.734 -15.577  0.00  0.00    +0.188 HD
ENDBRANCH   9  13
BRANCH   3  18
ATOM     17  O   UNL     1      33.719 -23.954 -18.576  0.00  0.00    -0.270 OA
ATOM     18  N   UNL     1      33.951 -22.451 -16.786  0.00  0.00    -0.280 N 
ATOM     19  C   UNL     1      33.903 -22.828 -18.131  0.00  0.00    +0.249 C 
ATOM     20  H   UNL     1      34.109 -21.496 -16.609  0.00  0.00    +0.155 HD
BRANCH  19  21
ATOM     21  C   UNL     1      34.129 -21.727 -19.105  0.00  0.00    +0.053 C 
ATOM     22  C   UNL     1      35.404 -21.253 -19.334  0.00  0.00    +0.016 C 
ATOM     23  C   UNL     1      33.026 -21.211 -19.757  0.00  0.00    +0.004 C 
ATOM     24  C   UNL     1      35.586 -20.219 -20.253  0.00  0.00    +0.130 C 
ATOM     25  C   UNL     1      36.588 -21.824 -18.618  0.00  0.00    +0.034 C 
ATOM     26  C   UNL     1      33.208 -20.177 -20.676  0.00  0.00    +0.003 C 
ATOM     27  C   UNL     1      34.488 -19.683 -20.924  0.00  0.00    +0.036 C 
BRANCH  24  28
ATOM     28  O   UNL     1      36.829 -19.723 -20.509  0.00  0.00    -0.506 OA
ATOM     29  H   UNL     1      36.940 -19.044 -21.145  0.00  0.00    +0.292 HD
ENDBRANCH  24  28
ENDBRANCH  19  21
ENDBRANCH   3  18
BRANCH   7  31
ATOM     30  O   UNL     1      36.243 -25.229 -12.096  0.00  0.00    -0.245 OA
ATOM     31  C   UNL     1      36.087 -25.090 -13.317  0.00  0.00    +0.341 C 
BRANCH  31  32
ATOM     32  O   UNL     1      37.038 -25.401 -14.250  0.00  0.00    -0.441 OA
ATOM     33  C   UNL     1      37.134 -26.774 -14.643  0.00  0.00    +0.256 C 
ENDBRANCH  31  32
ENDBRANCH   7  31
TORSDOF 6
ENDMDL
MODEL 2
REMARK VINA RESULT:     -11.3      2.458      5.358
REMARK  Name = 6852141
REMARK  6 active torsions:
REMARK  status: ('A' for Active; 'I' for Inactive)
REMARK    1  A    between atoms: C_3  and  N_18
REMARK    2  A    between atoms: C_7  and  C_31
REMARK    3  A    between atoms: C_9  and  C_13
REMARK    4  A    between atoms: C_19  and  C_21
REMARK    5  A    between atoms: C_24  and  O_28
REMARK    6  A    between atoms: C_31  and  O_32
REMARK                            x       y       z     vdW  Elec       q    Type
REMARK                         _______ _______ _______ _____ _____    ______ ____
ROOT
ATOM      1  C   UNL     1      32.262 -23.466 -15.360  0.00  0.00    +0.014 C 
ATOM      2  C   UNL     1      31.237 -24.070 -14.595  0.00  0.00    +0.001 C 
ATOM      3  C   UNL     1      31.926 -22.777 -16.538  0.00  0.00    +0.051 C 
ATOM      4  C   UNL     1      33.594 -23.568 -14.927  0.00  0.00    +0.004 C 
ATOM      5  C   UNL     1      29.905 -23.968 -15.028  0.00  0.00    +0.007 C 
ATOM      6  C   UNL     1      30.597 -22.685 -16.953  0.00  0.00    +0.021 C 
ATOM      7  C   UNL     1      29.589 -23.280 -16.200  0.00  0.00    +0.077 C 
ATOM      8  C   UNL     1      31.573 -24.759 -13.418  0.00  0.00    +0.000 C 
ATOM      9  C   UNL     1      33.910 -24.256 -13.755  0.00  0.00    +0.031 C 
ATOM     10  C   UNL     1      32.901 -24.850 -13.002  0.00  0.00    +0.003 C 
ENDROOT
BRANCH   9  13
ATOM     11  N   UNL     1      35.961 -23.255 -12.776  0.00  0.00    -0.343 N 
ATOM     12  N   UNL     1      35.945 -25.496 -13.440  0.00  0.00    -0.285 NA
ATOM     13  C   UNL     1      35.294 -24.352 -13.319  0.00  0.00    +0.117 C 
ATOM     14  H   UNL     1      36.897 -23.342 -12.488  0.00  0.00    +0.144 HD
ATOM     15  H   UNL     1      35.493 -22.393 -12.681  0.00  0.00    +0.144 HD
ATOM     16  H   UNL     1      36.882 -25.563 -13.146  0.00  0.00    +0.188 HD
ENDBRANCH   9  13
BRANCH   3  18
ATOM     17  O   UNL     1      33.552 -23.875 -18.804  0.00  0.00    -0.270 OA
ATOM     18  N   UNL     1      32.898 -22.161 -17.336  0.00  0.00    -0.280 N 
ATOM     19  C   UNL     1      33.628 -22.726 -18.385  0.00  0.00    +0.249 C 
ATOM     20  H   UNL     1      33.089 -21.217 -17.133  0.00  0.00    +0.155 HD
BRANCH  19  21
ATOM     21  C   UNL     1      34.616 -21.819 -19.027  0.00  0.00    +0.053 C 
ATOM     22  C   UNL     1      34.195 -20.848 -19.912  0.00  0.00    +0.016 C 
ATOM     23  C   UNL     1      35.948 -21.988 -18.704  0.00  0.00    +0.004 C 
ATOM     24  C   UNL     1      35.144 -20.011 -20.499  0.00  0.00    +0.130 C 
ATOM     25  C   UNL     1      32.747 -20.677 -20.251  0.00  0.00    +0.034 C 
ATOM     26  C   UNL     1      36.897 -21.151 -19.291  0.00  0.00    +0.003 C 
ATOM     27  C   UNL     1      36.494 -20.163 -20.188  0.00  0.00    +0.036 C 
BRANCH  24  28
ATOM     28  O   UNL     1      34.770 -19.038 -21.378  0.00  0.00    -0.506 OA
ATOM     29  H   UNL     1      34.177 -19.239 -22.075  0.00  0.00    +0.292 HD
ENDBRANCH  24  28
ENDBRANCH  19  21
ENDBRANCH   3  18
BRANCH   7  31
ATOM     30  O   UNL     1      27.567 -24.108 -17.156  0.00  0.00    -0.245 OA
ATOM     31  C   UNL     1      28.204 -23.183 -16.636  0.00  0.00    +0.341 C 
BRANCH  31  32
ATOM     32  O   UNL     1      27.688 -21.938 -16.398  0.00  0.00    -0.441 OA
ATOM     33  C   UNL     1      26.459 -21.611 -17.056  0.00  0.00    +0.256 C 
ENDBRANCH  31  32
ENDBRANCH   7  31
TORSDOF 6
ENDMDL
MODEL 3
REMARK VINA RESULT:     -11.1      2.440      4.924
REMARK  Name = 6852141
REMARK  6 active torsions:
REMARK  status: ('A' for Active; 'I' for Inactive)
REMARK    1  A    between atoms: C_3  and  N_18
REMARK    2  A    between atoms: C_7  and  C_31
REMARK    3  A    between atoms: C_9  and  C_13
REMARK    4  A    between atoms: C_19  and  C_21
REMARK    5  A    between atoms: C_24  and  O_28
REMARK    6  A    between atoms: C_31  and  O_32
REMARK                            x       y       z     vdW  Elec       q    Type
REMARK                         _______ _______ _______ _____ _____    ______ ____
ROOT
ATOM      1  C   UNL     1      33.507 -23.435 -15.161  0.00  0.00    +0.014 C 
ATOM      2  C   UNL     1      32.950 -24.225 -14.128  0.00  0.00    +0.001 C 
ATOM      3  C   UNL     1      32.671 -22.945 -16.179  0.00  0.00    +0.051 C 
ATOM      4  C   UNL     1      34.884 -23.159 -15.148  0.00  0.00    +0.004 C 
ATOM      5  C   UNL     1      31.573 -24.501 -14.141  0.00  0.00    +0.007 C 
ATOM      6  C   UNL     1      31.305 -23.229 -16.175  0.00  0.00    +0.021 C 
ATOM      7  C   UNL     1      30.757 -24.006 -15.159  0.00  0.00    +0.077 C 
ATOM      8  C   UNL     1      33.786 -24.715 -13.111  0.00  0.00    +0.000 C 
ATOM      9  C   UNL     1      35.699 -23.653 -14.130  0.00  0.00    +0.031 C 
ATOM     10  C   UNL     1      35.151 -24.430 -13.113  0.00  0.00    +0.003 C 
ENDROOT
BRANCH   9  13
ATOM     11  N   UNL     1      37.874 -23.411 -15.303  0.00  0.00    -0.343 N 
ATOM     12  N   UNL     1      37.729 -23.033 -13.001  0.00  0.00    -0.285 NA
ATOM     13  C   UNL     1      37.123 -23.357 -14.130  0.00  0.00    +0.117 C 
ATOM     14  H   UNL     1      38.836 -23.206 -15.281  0.00  0.00    +0.144 HD
ATOM     15  H   UNL     1      37.441 -23.654 -16.154  0.00  0.00    +0.144 HD
ATOM     16  H   UNL     1      38.692 -22.832 -12.999  0.00  0.00    +0.188 HD
ENDBRANCH   9  13
BRANCH   3  18
ATOM     17  O   UNL     1      33.688 -23.743 -18.883  0.00  0.00    -0.270 OA
ATOM     18  N   UNL     1      33.167 -22.160 -17.228  0.00  0.00    -0.280 N 
ATOM     19  C   UNL     1      33.630 -22.589 -18.474  0.00  0.00    +0.249 C 
ATOM     20  H   UNL     1      33.192 -21.190 -17.066  0.00  0.00    +0.155 HD
BRANCH  19  21
ATOM     21  C   UNL     1      34.123 -21.511 -19.371  0.00  0.00    +0.053 C 
ATOM     22  C   UNL     1      35.459 -21.164 -19.370  0.00  0.00    +0.016 C 
ATOM     23  C   UNL     1      33.204 -20.885 -20.188  0.00  0.00    +0.004 C 
ATOM     24  C   UNL     1      35.894 -20.149 -20.222  0.00  0.00    +0.130 C 
ATOM     25  C   UNL     1      36.443 -21.854 -18.478  0.00  0.00    +0.034 C 
ATOM     26  C   UNL     1      33.639 -19.869 -21.040  0.00  0.00    +0.003 C 
ATOM     27  C   UNL     1      34.983 -19.502 -21.056  0.00  0.00    +0.036 C 
BRANCH  24  28
ATOM     28  O   UNL     1      37.205 -19.776 -20.253  0.00  0.00    -0.506 OA
ATOM     29  H   UNL     1      37.871 -20.420 -20.392  0.00  0.00    +0.292 HD
ENDBRANCH  24  28
ENDBRANCH  19  21
ENDBRANCH   3  18
BRANCH   7  31
ATOM     30  O   UNL     1      28.798 -25.173 -14.459  0.00  0.00    -0.245 OA
ATOM     31  C   UNL     1      29.333 -24.302 -15.159  0.00  0.00    +0.341 C 
BRANCH  31  32
ATOM     32  O   UNL     1      28.651 -23.496 -16.030  0.00  0.00    -0.441 OA
ATOM     33  C   UNL     1      27.586 -22.710 -15.486  0.00  0.00    +0.256 C 
ENDBRANCH  31  32
ENDBRANCH   7  31
TORSDOF 6
ENDMDL
MODEL 4
REMARK VINA RESULT:     -10.8      2.512      6.149
REMARK  Name = 6852141
REMARK  6 active torsions:
REMARK  status: ('A' for Active; 'I' for Inactive)
REMARK    1  A    between atoms: C_3  and  N_18
REMARK    2  A    between atoms: C_7  and  C_31
REMARK    3  A    between atoms: C_9  and  C_13
REMARK    4  A    between atoms: C_19  and  C_21
REMARK    5  A    between atoms: C_24  and  O_28
REMARK    6  A    between atoms: C_31  and  O_32
REMARK                            x       y       z     vdW  Elec       q    Type
REMARK                         _______ _______ _______ _____ _____    ______ ____
ROOT
ATOM      1  C   UNL     1      35.019 -22.442 -17.321  0.00  0.00    +0.014 C 
ATOM      2  C   UNL     1      36.416 -22.218 -17.368  0.00  0.00    +0.001 C 
ATOM      3  C   UNL     1      34.479 -23.190 -16.262  0.00  0.00    +0.051 C 
ATOM      4  C   UNL     1      34.205 -21.912 -18.334  0.00  0.00    +0.004 C 
ATOM      5  C   UNL     1      37.231 -22.747 -16.354  0.00  0.00    +0.007 C 
ATOM      6  C   UNL     1      35.304 -23.708 -15.264  0.00  0.00    +0.021 C 
ATOM      7  C   UNL     1      36.677 -23.488 -15.310  0.00  0.00    +0.077 C 
ATOM      8  C   UNL     1      36.956 -21.470 -18.427  0.00  0.00    +0.000 C 
ATOM      9  C   UNL     1      34.758 -21.171 -19.379  0.00  0.00    +0.031 C 
ATOM     10  C   UNL     1      36.131 -20.950 -19.425  0.00  0.00    +0.003 C 
ENDROOT
BRANCH   9  13
ATOM     11  N   UNL     1      34.429 -19.945 -21.513  0.00  0.00    -0.343 N 
ATOM     12  N   UNL     1      32.589 -20.777 -20.337  0.00  0.00    -0.285 NA
ATOM     13  C   UNL     1      33.900 -20.629 -20.420  0.00  0.00    +0.117 C 
ATOM     14  H   UNL     1      33.830 -19.586 -22.206  0.00  0.00    +0.144 HD
ATOM     15  H   UNL     1      35.404 -19.822 -21.591  0.00  0.00    +0.144 HD
ATOM     16  H   UNL     1      32.007 -20.410 -21.040  0.00  0.00    +0.188 HD
ENDBRANCH   9  13
BRANCH   3  18
ATOM     17  O   UNL     1      32.474 -22.257 -14.239  0.00  0.00    -0.270 OA
ATOM     18  N   UNL     1      33.105 -23.446 -16.164  0.00  0.00    -0.280 N 
ATOM     19  C   UNL     1      32.215 -22.981 -15.193  0.00  0.00    +0.249 C 
ATOM     20  H   UNL     1      32.722 -24.023 -16.863  0.00  0.00    +0.155 HD
BRANCH  19  21
ATOM     21  C   UNL     1      30.813 -23.454 -15.343  0.00  0.00    +0.053 C 
ATOM     22  C   UNL     1      30.352 -24.511 -14.585  0.00  0.00    +0.016 C 
ATOM     23  C   UNL     1      30.009 -22.799 -16.255  0.00  0.00    +0.004 C 
ATOM     24  C   UNL     1      29.032 -24.932 -14.747  0.00  0.00    +0.130 C 
ATOM     25  C   UNL     1      31.236 -25.208 -13.600  0.00  0.00    +0.034 C 
ATOM     26  C   UNL     1      28.690 -23.221 -16.417  0.00  0.00    +0.003 C 
ATOM     27  C   UNL     1      28.202 -24.287 -15.663  0.00  0.00    +0.036 C 
BRANCH  24  28
ATOM     28  O   UNL     1      28.536 -25.972 -14.018  0.00  0.00    -0.506 OA
ATOM     29  H   UNL     1      28.501 -25.914 -13.083  0.00  0.00    +0.292 HD
ENDBRANCH  24  28
ENDBRANCH  19  21
ENDBRANCH   3  18
BRANCH   7  31
ATOM     30  O   UNL     1      37.998 -23.370 -13.327  0.00  0.00    -0.245 OA
ATOM     31  C   UNL     1      37.536 -24.030 -14.268  0.00  0.00    +0.341 C 
BRANCH  31  32
ATOM     32  O   UNL     1      37.771 -25.365 -14.454  0.00  0.00    -0.441 OA
ATOM     33  C   UNL     1      37.750 -26.194 -13.287  0.00  0.00    +0.256 C 
ENDBRANCH  31  32
ENDBRANCH   7  31
TORSDOF 6
ENDMDL
MODEL 5
REMARK VINA RESULT:     -10.5      2.301      6.440
REMARK  Name = 6852141
REMARK  6 active torsions:
REMARK  status: ('A' for Active; 'I' for Inactive)
REMARK    1  A    between atoms: C_3  and  N_18
REMARK    2  A    between atoms: C_7  and  C_31
REMARK    3  A    between atoms: C_9  and  C_13
REMARK    4  A    between atoms: C_19  and  C_21
REMARK    5  A    between atoms: C_24  and  O_28
REMARK    6  A    between atoms: C_31  and  O_32
REMARK                            x       y       z     vdW  Elec       q    Type
REMARK                         _______ _______ _______ _____ _____    ______ ____
ROOT
ATOM      1  C   UNL     1      33.436 -23.292 -16.195  0.00  0.00    +0.014 C 
ATOM      2  C   UNL     1      32.414 -22.678 -16.956  0.00  0.00    +0.001 C 
ATOM      3  C   UNL     1      34.770 -23.182 -16.622  0.00  0.00    +0.051 C 
ATOM      4  C   UNL     1      33.096 -23.998 -15.030  0.00  0.00    +0.004 C 
ATOM      5  C   UNL     1      32.753 -21.971 -18.121  0.00  0.00    +0.007 C 
ATOM      6  C   UNL     1      35.090 -22.475 -17.782  0.00  0.00    +0.021 C 
ATOM      7  C   UNL     1      34.083 -21.871 -18.530  0.00  0.00    +0.077 C 
ATOM      8  C   UNL     1      31.080 -22.788 -16.529  0.00  0.00    +0.000 C 
ATOM      9  C   UNL     1      31.766 -24.098 -14.621  0.00  0.00    +0.031 C 
ATOM     10  C   UNL     1      30.760 -23.493 -15.369  0.00  0.00    +0.003 C 
ENDROOT
BRANCH   9  13
ATOM     11  N   UNL     1      30.105 -25.066 -13.049  0.00  0.00    -0.343 N 
ATOM     12  N   UNL     1      32.393 -25.290 -12.630  0.00  0.00    -0.285 NA
ATOM     13  C   UNL     1      31.431 -24.832 -13.412  0.00  0.00    +0.117 C 
ATOM     14  H   UNL     1      29.901 -25.565 -12.227  0.00  0.00    +0.144 HD
ATOM     15  H   UNL     1      29.373 -24.730 -13.617  0.00  0.00    +0.144 HD
ATOM     16  H   UNL     1      32.169 -25.787 -11.812  0.00  0.00    +0.188 HD
ENDBRANCH   9  13
BRANCH   3  18
ATOM     17  O   UNL     1      37.145 -21.929 -15.290  0.00  0.00    -0.270 OA
ATOM     18  N   UNL     1      35.824 -23.769 -15.911  0.00  0.00    -0.280 N 
ATOM     19  C   UNL     1      36.912 -23.131 -15.308  0.00  0.00    +0.249 C 
ATOM     20  H   UNL     1      35.795 -24.749 -15.827  0.00  0.00    +0.155 HD
BRANCH  19  21
ATOM     21  C   UNL     1      37.888 -24.036 -14.647  0.00  0.00    +0.053 C 
ATOM     22  C   UNL     1      37.598 -24.594 -13.419  0.00  0.00    +0.016 C 
ATOM     23  C   UNL     1      39.076 -24.289 -15.305  0.00  0.00    +0.004 C 
ATOM     24  C   UNL     1      38.533 -25.440 -12.823  0.00  0.00    +0.130 C 
ATOM     25  C   UNL     1      36.306 -24.310 -12.720  0.00  0.00    +0.034 C 
ATOM     26  C   UNL     1      40.011 -25.135 -14.709  0.00  0.00    +0.003 C 
ATOM     27  C   UNL     1      39.739 -25.710 -13.468  0.00  0.00    +0.036 C 
BRANCH  24  28
ATOM     28  O   UNL     1      38.285 -26.013 -11.611  0.00  0.00    -0.506 OA
ATOM     29  H   UNL     1      38.838 -26.701 -11.296  0.00  0.00    +0.292 HD
ENDBRANCH  24  28
ENDBRANCH  19  21
ENDBRANCH   3  18
BRANCH   7  31
ATOM     30  O   UNL     1      33.589 -20.607 -20.491  0.00  0.00    -0.245 OA
ATOM     31  C   UNL     1      34.420 -21.135 -19.739  0.00  0.00    +0.341 C 
BRANCH  31  32
ATOM     32  O   UNL     1      35.772 -21.097 -19.946  0.00  0.00    -0.441 OA
ATOM     33  C   UNL     1      36.293 -19.937 -20.603  0.00  0.00    +0.256 C 
ENDBRANCH  31  32
ENDBRANCH   7  31
TORSDOF 6
ENDMDL
MODEL 6
REMARK VINA RESULT:     -10.2      2.997      6.057
REMARK  Name = 6852141
REMARK  6 active torsions:
REMARK  status: ('A' for Active; 'I' for Inactive)
REMARK    1  A    between atoms: C_3  and  N_18
REMARK    2  A    between atoms: C_7  and  C_31
REMARK    3  A    between atoms: C_9  and  C_13
REMARK    4  A    between atoms: C_19  and  C_21
REMARK    5  A    between atoms: C_24  and  O_28
REMARK    6  A    between atoms: C_31  and  O_32
REMARK                            x       y       z     vdW  Elec       q    Type
REMARK                         _______ _______ _______ _____ _____    ______ ____
ROOT
ATOM      1  C   UNL     1      35.489 -23.053 -15.389  0.00  0.00    +0.014 C 
ATOM      2  C   UNL     1      36.840 -22.778 -15.071  0.00  0.00    +0.001 C 
ATOM      3  C   UNL     1      34.668 -23.666 -14.427  0.00  0.00    +0.051 C 
ATOM      4  C   UNL     1      34.998 -22.708 -16.658  0.00  0.00    +0.004 C 
ATOM      5  C   UNL     1      37.332 -23.123 -13.802  0.00  0.00    +0.007 C 
ATOM      6  C   UNL     1      35.173 -24.001 -13.171  0.00  0.00    +0.021 C 
ATOM      7  C   UNL     1      36.503 -23.731 -12.859  0.00  0.00    +0.077 C 
ATOM      8  C   UNL     1      37.661 -22.166 -16.033  0.00  0.00    +0.000 C 
ATOM      9  C   UNL     1      35.827 -22.100 -17.601  0.00  0.00    +0.031 C 
ATOM     10  C   UNL     1      37.156 -21.829 -17.289  0.00  0.00    +0.003 C 
ENDROOT
BRANCH   9  13
ATOM     11  N   UNL     1      35.995 -20.890 -19.763  0.00  0.00    -0.343 N 
ATOM     12  N   UNL     1      34.144 -22.242 -19.311  0.00  0.00    -0.285 NA
ATOM     13  C   UNL     1      35.302 -21.748 -18.911  0.00  0.00    +0.117 C 
ATOM     14  H   UNL     1      35.622 -20.665 -20.645  0.00  0.00    +0.144 HD
ATOM     15  H   UNL     1      36.859 -20.509 -19.481  0.00  0.00    +0.144 HD
ATOM     16  H   UNL     1      33.787 -22.005 -20.197  0.00  0.00    +0.188 HD
ENDBRANCH   9  13
BRANCH   3  18
ATOM     17  O   UNL     1      32.181 -22.776 -13.012  0.00  0.00    -0.270 OA
ATOM     18  N   UNL     1      33.324 -23.964 -14.685  0.00  0.00    -0.280 N 
ATOM     19  C   UNL     1      32.199 -23.518 -13.987  0.00  0.00    +0.249 C 
ATOM     20  H   UNL     1      33.153 -24.559 -15.450  0.00  0.00    +0.155 HD
BRANCH  19  21
ATOM     21  C   UNL     1      30.898 -24.035 -14.488  0.00  0.00    +0.053 C 
ATOM     22  C   UNL     1      30.356 -23.538 -15.655  0.00  0.00    +0.016 C 
ATOM     23  C   UNL     1      30.270 -25.017 -13.747  0.00  0.00    +0.004 C 
ATOM     24  C   UNL     1      29.134 -24.043 -16.101  0.00  0.00    +0.130 C 
ATOM     25  C   UNL     1      31.050 -22.475 -16.446  0.00  0.00    +0.034 C 
ATOM     26  C   UNL     1      29.048 -25.521 -14.193  0.00  0.00    +0.003 C 
ATOM     27  C   UNL     1      28.481 -25.034 -15.370  0.00  0.00    +0.036 C 
BRANCH  24  28
ATOM     28  O   UNL     1      28.564 -23.580 -17.249  0.00  0.00    -0.506 OA
ATOM     29  H   UNL     1      27.634 -23.619 -17.359  0.00  0.00    +0.292 HD
ENDBRANCH  24  28
ENDBRANCH  19  21
ENDBRANCH   3  18
BRANCH   7  31
ATOM     30  O   UNL     1      37.542 -23.277 -10.760  0.00  0.00    -0.245 OA
ATOM     31  C   UNL     1      37.027 -24.083 -11.548  0.00  0.00    +0.341 C 
BRANCH  31  32
ATOM     32  O   UNL     1      36.881 -25.418 -11.289  0.00  0.00    -0.441 OA
ATOM     33  C   UNL     1      37.693 -26.318 -12.051  0.00  0.00    +0.256 C 
ENDBRANCH  31  32
ENDBRANCH   7  31
TORSDOF 6
ENDMDL
MODEL 7
REMARK VINA RESULT:     -10.1      2.556      6.984
REMARK  Name = 6852141
REMARK  6 active torsions:
REMARK  status: ('A' for Active; 'I' for Inactive)
REMARK    1  A    between atoms: C_3  and  N_18
REMARK    2  A    between atoms: C_7  and  C_31
REMARK    3  A    between atoms: C_9  and  C_13
REMARK    4  A    between atoms: C_19  and  C_21
REMARK    5  A    between atoms: C_24  and  O_28
REMARK    6  A    between atoms: C_31  and  O_32
REMARK                            x       y       z     vdW  Elec       q    Type
REMARK                         _______ _______ _______ _____ _____    ______ ____
ROOT
ATOM      1  C   UNL     1      35.329 -23.198 -15.934  0.00  0.00    +0.014 C 
ATOM      2  C   UNL     1      36.650 -22.786 -16.228  0.00  0.00    +0.001 C 
ATOM      3  C   UNL     1      34.292 -22.866 -16.821  0.00  0.00    +0.051 C 
ATOM      4  C   UNL     1      35.083 -23.930 -14.761  0.00  0.00    +0.004 C 
ATOM      5  C   UNL     1      36.897 -22.055 -17.401  0.00  0.00    +0.007 C 
ATOM      6  C   UNL     1      34.556 -22.139 -17.983  0.00  0.00    +0.021 C 
ATOM      7  C   UNL     1      35.855 -21.733 -18.272  0.00  0.00    +0.077 C 
ATOM      8  C   UNL     1      37.687 -23.118 -15.340  0.00  0.00    +0.000 C 
ATOM      9  C   UNL     1      36.125 -24.251 -13.891  0.00  0.00    +0.031 C 
ATOM     10  C   UNL     1      37.424 -23.847 -14.180  0.00  0.00    +0.003 C 
ENDROOT
BRANCH   9  13
ATOM     11  N   UNL     1      36.727 -26.000 -12.234  0.00  0.00    -0.343 N 
ATOM     12  N   UNL     1      34.756 -24.770 -11.984  0.00  0.00    -0.285 NA
ATOM     13  C   UNL     1      35.853 -25.011 -12.681  0.00  0.00    +0.117 C 
ATOM     14  H   UNL     1      36.524 -26.502 -11.412  0.00  0.00    +0.144 HD
ATOM     15  H   UNL     1      37.548 -26.197 -12.741  0.00  0.00    +0.144 HD
ATOM     16  H   UNL     1      34.570 -25.282 -11.165  0.00  0.00    +0.188 HD
ENDBRANCH   9  13
BRANCH   3  18
ATOM     17  O   UNL     1      32.435 -22.116 -14.591  0.00  0.00    -0.270 OA
ATOM     18  N   UNL     1      32.965 -23.245 -16.582  0.00  0.00    -0.280 N 
ATOM     19  C   UNL     1      32.143 -22.862 -15.519  0.00  0.00    +0.249 C 
ATOM     20  H   UNL     1      32.564 -23.855 -17.242  0.00  0.00    +0.155 HD
BRANCH  19  21
ATOM     21  C   UNL     1      30.782 -23.459 -15.525  0.00  0.00    +0.053 C 
ATOM     22  C   UNL     1      30.493 -24.538 -14.715  0.00  0.00    +0.016 C 
ATOM     23  C   UNL     1      29.838 -22.897 -16.361  0.00  0.00    +0.004 C 
ATOM     24  C   UNL     1      29.207 -25.078 -14.741  0.00  0.00    +0.130 C 
ATOM     25  C   UNL     1      31.528 -25.135 -13.814  0.00  0.00    +0.034 C 
ATOM     26  C   UNL     1      28.552 -23.437 -16.388  0.00  0.00    +0.003 C 
ATOM     27  C   UNL     1      28.238 -24.527 -15.577  0.00  0.00    +0.036 C 
BRANCH  24  28
ATOM     28  O   UNL     1      28.880 -26.143 -13.956  0.00  0.00    -0.506 OA
ATOM     29  H   UNL     1      29.485 -26.850 -13.850  0.00  0.00    +0.292 HD
ENDBRANCH  24  28
ENDBRANCH  19  21
ENDBRANCH   3  18
BRANCH   7  31
ATOM     30  O   UNL     1      37.182 -20.365 -19.706  0.00  0.00    -0.245 OA
ATOM     31  C   UNL     1      36.127 -20.974 -19.483  0.00  0.00    +0.341 C 
BRANCH  31  32
ATOM     32  O   UNL     1      35.069 -21.016 -20.350  0.00  0.00    -0.441 OA
ATOM     33  C   UNL     1      34.751 -19.802 -21.040  0.00  0.00    +0.256 C 
ENDBRANCH  31  32
ENDBRANCH   7  31
TORSDOF 6
ENDMDL
MODEL 8
REMARK VINA RESULT:      -9.8      2.157      6.381
REMARK  Name = 6852141
REMARK  6 active torsions:
REMARK  status: ('A' for Active; 'I' for Inactive)
REMARK    1  A    between atoms: C_3  and  N_18
REMARK    2  A    between atoms: C_7  and  C_31
REMARK    3  A    between atoms: C_9  and  C_13
REMARK    4  A    between atoms: C_19  and  C_21
REMARK    5  A    between atoms: C_24  and  O_28
REMARK    6  A    between atoms: C_31  and  O_32
REMARK                            x       y       z     vdW  Elec       q    Type
REMARK                         _______ _______ _______ _____ _____    ______ ____
ROOT
ATOM      1  C   UNL     1      33.130 -23.346 -16.072  0.00  0.00    +0.014 C 
ATOM      2  C   UNL     1      32.325 -22.674 -17.021  0.00  0.00    +0.001 C 
ATOM      3  C   UNL     1      34.521 -23.392 -16.263  0.00  0.00    +0.051 C 
ATOM      4  C   UNL     1      32.522 -23.952 -14.961  0.00  0.00    +0.004 C 
ATOM      5  C   UNL     1      32.932 -22.067 -18.133  0.00  0.00    +0.007 C 
ATOM      6  C   UNL     1      35.108 -22.783 -17.372  0.00  0.00    +0.021 C 
ATOM      7  C   UNL     1      34.315 -22.123 -18.306  0.00  0.00    +0.077 C 
ATOM      8  C   UNL     1      30.933 -22.628 -16.831  0.00  0.00    +0.000 C 
ATOM      9  C   UNL     1      31.139 -23.896 -14.788  0.00  0.00    +0.031 C 
ATOM     10  C   UNL     1      30.346 -23.235 -15.721  0.00  0.00    +0.003 C 
ENDROOT
BRANCH   9  13
ATOM     11  N   UNL     1      29.571 -25.534 -13.776  0.00  0.00    -0.343 N 
ATOM     12  N   UNL     1      30.869 -24.148 -12.413  0.00  0.00    -0.285 NA
ATOM     13  C   UNL     1      30.526 -24.528 -13.631  0.00  0.00    +0.117 C 
ATOM     14  H   UNL     1      29.168 -25.948 -12.980  0.00  0.00    +0.144 HD
ATOM     15  H   UNL     1      29.300 -25.829 -14.676  0.00  0.00    +0.144 HD
ATOM     16  H   UNL     1      30.454 -24.575 -11.629  0.00  0.00    +0.188 HD
ENDBRANCH   9  13
BRANCH   3  18
ATOM     17  O   UNL     1      36.659 -22.292 -14.472  0.00  0.00    -0.270 OA
ATOM     18  N   UNL     1      35.369 -24.044 -15.358  0.00  0.00    -0.280 N 
ATOM     19  C   UNL     1      36.354 -23.476 -14.545  0.00  0.00    +0.249 C 
ATOM     20  H   UNL     1      35.258 -25.020 -15.288  0.00  0.00    +0.155 HD
BRANCH  19  21
ATOM     21  C   UNL     1      37.115 -24.440 -13.707  0.00  0.00    +0.053 C 
ATOM     22  C   UNL     1      38.390 -24.821 -14.071  0.00  0.00    +0.016 C 
ATOM     23  C   UNL     1      36.501 -24.926 -12.570  0.00  0.00    +0.004 C 
ATOM     24  C   UNL     1      39.080 -25.727 -13.266  0.00  0.00    +0.130 C 
ATOM     25  C   UNL     1      39.041 -24.283 -15.307  0.00  0.00    +0.034 C 
ATOM     26  C   UNL     1      37.191 -25.832 -11.764  0.00  0.00    +0.003 C 
ATOM     27  C   UNL     1      38.481 -26.231 -12.113  0.00  0.00    +0.036 C 
BRANCH  24  28
ATOM     28  O   UNL     1      40.342 -26.128 -13.589  0.00  0.00    -0.506 OA
ATOM     29  H   UNL     1      40.597 -26.194 -14.489  0.00  0.00    +0.292 HD
ENDBRANCH  24  28
ENDBRANCH  19  21
ENDBRANCH   3  18
BRANCH   7  31
ATOM     30  O   UNL     1      36.099 -21.677 -19.825  0.00  0.00    -0.245 OA
ATOM     31  C   UNL     1      34.930 -21.489 -19.463  0.00  0.00    +0.341 C 
BRANCH  31  32
ATOM     32  O   UNL     1      34.054 -20.657 -20.105  0.00  0.00    -0.441 OA
ATOM     33  C   UNL     1      34.616 -19.699 -21.008  0.00  0.00    +0.256 C 
ENDBRANCH  31  32
ENDBRANCH   7  31
TORSDOF 6
ENDMDL
MODEL 9
REMARK VINA RESULT:      -9.5      1.582      2.291
REMARK  Name = 6852141
REMARK  6 active torsions:
REMARK  status: ('A' for Active; 'I' for Inactive)
REMARK    1  A    between atoms: C_3  and  N_18
REMARK    2  A    between atoms: C_7  and  C_31
REMARK    3  A    between atoms: C_9  and  C_13
REMARK    4  A    between atoms: C_19  and  C_21
REMARK    5  A    between atoms: C_24  and  O_28
REMARK    6  A    between atoms: C_31  and  O_32
REMARK                            x       y       z     vdW  Elec       q    Type
REMARK                         _______ _______ _______ _____ _____    ______ ____
ROOT
ATOM      1  C   UNL     1      33.667 -23.661 -15.237  0.00  0.00    +0.014 C 
ATOM      2  C   UNL     1      33.748 -24.393 -14.029  0.00  0.00    +0.001 C 
ATOM      3  C   UNL     1      34.849 -23.222 -15.855  0.00  0.00    +0.051 C 
ATOM      4  C   UNL     1      32.406 -23.387 -15.791  0.00  0.00    +0.004 C 
ATOM      5  C   UNL     1      35.009 -24.668 -13.475  0.00  0.00    +0.007 C 
ATOM      6  C   UNL     1      36.094 -23.505 -15.290  0.00  0.00    +0.021 C 
ATOM      7  C   UNL     1      36.173 -24.225 -14.103  0.00  0.00    +0.077 C 
ATOM      8  C   UNL     1      32.565 -24.831 -13.411  0.00  0.00    +0.000 C 
ATOM      9  C   UNL     1      31.241 -23.829 -15.163  0.00  0.00    +0.031 C 
ATOM     10  C   UNL     1      31.321 -24.551 -13.976  0.00  0.00    +0.003 C 
ENDROOT
BRANCH   9  13
ATOM     11  N   UNL     1      28.813 -24.284 -15.419  0.00  0.00    -0.343 N 
ATOM     12  N   UNL     1      29.821 -22.551 -16.621  0.00  0.00    -0.285 NA
ATOM     13  C   UNL     1      29.943 -23.538 -15.750  0.00  0.00    +0.117 C 
ATOM     14  H   UNL     1      27.945 -24.069 -15.828  0.00  0.00    +0.144 HD
ATOM     15  H   UNL     1      28.885 -25.025 -14.774  0.00  0.00    +0.144 HD
ATOM     16  H   UNL     1      28.943 -22.352 -17.020  0.00  0.00    +0.188 HD
ENDBRANCH   9  13
BRANCH   3  18
ATOM     17  O   UNL     1      37.111 -22.250 -17.566  0.00  0.00    -0.270 OA
ATOM     18  N   UNL     1      34.832 -22.492 -17.050  0.00  0.00    -0.280 N 
ATOM     19  C   UNL     1      35.924 -22.063 -17.809  0.00  0.00    +0.249 C 
ATOM     20  H   UNL     1      33.942 -22.251 -17.396  0.00  0.00    +0.155 HD
BRANCH  19  21
ATOM     21  C   UNL     1      35.581 -21.276 -19.022  0.00  0.00    +0.053 C 
ATOM     22  C   UNL     1      34.270 -21.181 -19.441  0.00  0.00    +0.016 C 
ATOM     23  C   UNL     1      36.613 -20.655 -19.697  0.00  0.00    +0.004 C 
ATOM     24  C   UNL     1      33.978 -20.435 -20.583  0.00  0.00    +0.130 C 
ATOM     25  C   UNL     1      33.163 -21.860 -18.697  0.00  0.00    +0.034 C 
ATOM     26  C   UNL     1      36.321 -19.909 -20.839  0.00  0.00    +0.003 C 
ATOM     27  C   UNL     1      35.004 -19.799 -21.281  0.00  0.00    +0.036 C 
BRANCH  24  28
ATOM     28  O   UNL     1      32.696 -20.315 -21.030  0.00  0.00    -0.506 OA
ATOM     29  H   UNL     1      32.514 -19.816 -21.803  0.00  0.00    +0.292 HD
ENDBRANCH  24  28
ENDBRANCH  19  21
ENDBRANCH   3  18
BRANCH   7  31
ATOM     30  O   UNL     1      38.474 -24.851 -14.162  0.00  0.00    -0.245 OA
ATOM     31  C   UNL     1      37.472 -24.517 -13.516  0.00  0.00    +0.341 C 
BRANCH  31  32
ATOM     32  O   UNL     1      37.452 -24.378 -12.155  0.00  0.00    -0.441 OA
ATOM     33  C   UNL     1      37.605 -23.051 -11.638  0.00  0.00    +0.256 C 
ENDBRANCH  31  32
ENDBRANCH   7  31
TORSDOF 6
ENDMDL
