MODEL 1
REMARK VINA RESULT:     -12.1      0.000      0.000
REMARK  Name = 208951
REMARK  4 active torsions:
REMARK  status: ('A' for Active; 'I' for Inactive)
REMARK    1  A    between atoms: N_1  and  C_19
REMARK    2  A    between atoms: N_2  and  C_11
REMARK    3  A    between atoms: C_19  and  C_20
REMARK    4  A    between atoms: C_23  and  C_26
REMARK                            x       y       z     vdW  Elec       q    Type
REMARK                         _______ _______ _______ _____ _____    ______ ____
ROOT
ATOM      1  N   UNL     1      32.290 -11.404 -20.909  0.00  0.00    +0.392 N 
ATOM      2  N   UNL     1      33.390 -13.933 -21.653  0.00  0.00    -0.309 N 
ATOM      3  C   UNL     1      32.606 -11.693 -22.312  0.00  0.00    -0.055 C 
ATOM      4  C   UNL     1      31.853 -12.631 -20.232  0.00  0.00    -0.055 C 
ATOM      5  C   UNL     1      33.725 -12.731 -22.423  0.00  0.00    +0.068 C 
ATOM      6  C   UNL     1      32.948 -13.700 -20.272  0.00  0.00    +0.068 C 
ATOM      7  H   UNL     1      33.131 -11.055 -20.447  0.00  0.00    -0.079 HD
ENDROOT
BRANCH   2  11
ATOM      8  O   UNL     1      33.808 -14.936 -24.390  0.00  0.00    -0.406 OA
ATOM      9  O   UNL     1      34.052 -15.571 -26.602  0.00  0.00    -0.223 OA
ATOM     10  N   UNL     1      34.855 -16.923 -24.881  0.00  0.00    -0.287 N 
ATOM     11  C   UNL     1      34.028 -15.144 -21.944  0.00  0.00    +0.084 C 
ATOM     12  C   UNL     1      34.215 -15.599 -23.243  0.00  0.00    +0.179 A 
ATOM     13  C   UNL     1      34.524 -15.981 -20.924  0.00  0.00    +0.018 C 
ATOM     14  C   UNL     1      34.845 -16.793 -23.517  0.00  0.00    +0.098 A 
ATOM     15  C   UNL     1      35.167 -17.202 -21.216  0.00  0.00    +0.003 C 
ATOM     16  C   UNL     1      35.336 -17.624 -22.536  0.00  0.00    +0.020 C 
ATOM     17  C   UNL     1      34.231 -15.806 -25.412  0.00  0.00    +0.419 A 
ATOM     18  H   UNL     1      35.236 -17.673 -25.391  0.00  0.00    +0.172 HD
ENDBRANCH   2  11
BRANCH   1  19
ATOM     19  C   UNL     1      31.258 -10.372 -20.817  0.00  0.00    -0.050 C 
BRANCH  19  20
ATOM     20  C   UNL     1      31.868  -8.997 -20.785  0.00  0.00    -0.043 C 
ATOM     21  C   UNL     1      32.315  -8.420 -21.967  0.00  0.00    -0.006 C 
ATOM     22  C   UNL     1      31.974  -8.323 -19.576  0.00  0.00    -0.006 C 
ATOM     23  C   UNL     1      32.879  -7.144 -21.937  0.00  0.00    -0.000 C 
ATOM     24  C   UNL     1      32.538  -7.048 -19.547  0.00  0.00    -0.000 C 
ATOM     25  C   UNL     1      32.991  -6.459 -20.727  0.00  0.00    -0.000 C 
BRANCH  23  26
ATOM     26  C   UNL     1      33.348  -6.531 -23.161  0.00  0.00    -0.000 C 
ATOM     27  C   UNL     1      32.507  -5.685 -23.884  0.00  0.00    -0.000 C 
ATOM     28  C   UNL     1      34.642  -6.786 -23.618  0.00  0.00    -0.000 C 
ATOM     29  C   UNL     1      32.959  -5.094 -25.064  0.00  0.00    -0.000 C 
ATOM     30  C   UNL     1      35.093  -6.195 -24.798  0.00  0.00    -0.000 C 
ATOM     31  C   UNL     1      34.251  -5.348 -25.520  0.00  0.00    +0.000 C 
ENDBRANCH  23  26
ENDBRANCH  19  20
ENDBRANCH   1  19
TORSDOF 4
ENDMDL
MODEL 2
REMARK VINA RESULT:     -11.8      3.177     10.545
REMARK  Name = 208951
REMARK  4 active torsions:
REMARK  status: ('A' for Active; 'I' for Inactive)
REMARK    1  A    between atoms: N_1  and  C_19
REMARK    2  A    between atoms: N_2  and  C_11
REMARK    3  A    between atoms: C_19  and  C_20
REMARK    4  A    between atoms: C_23  and  C_26
REMARK                            x       y       z     vdW  Elec       q    Type
REMARK                         _______ _______ _______ _____ _____    ______ ____
ROOT
ATOM      1  N   UNL     1      34.821 -16.184 -23.628  0.00  0.00    +0.392 N 
ATOM      2  N   UNL     1      34.028 -13.451 -23.371  0.00  0.00    -0.309 N 
ATOM      3  C   UNL     1      34.379 -15.657 -22.331  0.00  0.00    -0.055 C 
ATOM      4  C   UNL     1      34.091 -15.518 -24.713  0.00  0.00    -0.055 C 
ATOM      5  C   UNL     1      34.633 -14.151 -22.233  0.00  0.00    +0.068 C 
ATOM      6  C   UNL     1      34.336 -14.007 -24.695  0.00  0.00    +0.068 C 
ATOM      7  H   UNL     1      35.818 -15.994 -23.737  0.00  0.00    -0.079 HD
ENDROOT
BRANCH   2  11
ATOM      8  O   UNL     1      31.929 -12.318 -21.644  0.00  0.00    -0.406 OA
ATOM      9  O   UNL     1      30.241 -11.602 -20.233  0.00  0.00    -0.223 OA
ATOM     10  N   UNL     1      31.475 -10.071 -21.485  0.00  0.00    -0.287 N 
ATOM     11  C   UNL     1      33.758 -12.081 -23.280  0.00  0.00    +0.084 C 
ATOM     12  C   UNL     1      32.762 -11.568 -22.458  0.00  0.00    +0.179 A 
ATOM     13  C   UNL     1      34.488 -11.133 -24.025  0.00  0.00    +0.018 C 
ATOM     14  C   UNL     1      32.505 -10.216 -22.377  0.00  0.00    +0.098 A 
ATOM     15  C   UNL     1      34.216  -9.752 -23.934  0.00  0.00    +0.003 C 
ATOM     16  C   UNL     1      33.207  -9.276 -23.095  0.00  0.00    +0.020 C 
ATOM     17  C   UNL     1      31.124 -11.335 -21.040  0.00  0.00    +0.419 A 
ATOM     18  H   UNL     1      31.060  -9.222 -21.210  0.00  0.00    +0.172 HD
ENDBRANCH   2  11
BRANCH   1  19
ATOM     19  C   UNL     1      34.623 -17.631 -23.688  0.00  0.00    -0.050 C 
BRANCH  19  20
ATOM     20  C   UNL     1      35.407 -18.331 -22.611  0.00  0.00    -0.043 C 
ATOM     21  C   UNL     1      34.757 -19.208 -21.752  0.00  0.00    -0.006 C 
ATOM     22  C   UNL     1      36.769 -18.092 -22.491  0.00  0.00    -0.006 C 
ATOM     23  C   UNL     1      35.485 -19.857 -20.755  0.00  0.00    -0.000 C 
ATOM     24  C   UNL     1      37.496 -18.741 -21.494  0.00  0.00    -0.000 C 
ATOM     25  C   UNL     1      36.854 -19.623 -20.626  0.00  0.00    -0.000 C 
BRANCH  23  26
ATOM     26  C   UNL     1      34.820 -20.775 -19.855  0.00  0.00    -0.000 C 
ATOM     27  C   UNL     1      35.571 -21.643 -19.063  0.00  0.00    -0.000 C 
ATOM     28  C   UNL     1      33.426 -20.790 -19.778  0.00  0.00    -0.000 C 
ATOM     29  C   UNL     1      34.930 -22.527 -18.195  0.00  0.00    -0.000 C 
ATOM     30  C   UNL     1      32.786 -21.674 -18.911  0.00  0.00    -0.000 C 
ATOM     31  C   UNL     1      33.537 -22.542 -18.119  0.00  0.00    +0.000 C 
ENDBRANCH  23  26
ENDBRANCH  19  20
ENDBRANCH   1  19
TORSDOF 4
ENDMDL
MODEL 3
REMARK VINA RESULT:     -11.7      5.805     12.556
REMARK  Name = 208951
REMARK  4 active torsions:
REMARK  status: ('A' for Active; 'I' for Inactive)
REMARK    1  A    between atoms: N_1  and  C_19
REMARK    2  A    between atoms: N_2  and  C_11
REMARK    3  A    between atoms: C_19  and  C_20
REMARK    4  A    between atoms: C_23  and  C_26
REMARK                            x       y       z     vdW  Elec       q    Type
REMARK                         _______ _______ _______ _____ _____    ______ ____
ROOT
ATOM      1  N   UNL     1      36.084 -20.562 -19.873  0.00  0.00    +0.392 N 
ATOM      2  N   UNL     1      35.420 -18.567 -21.806  0.00  0.00    -0.309 N 
ATOM      3  C   UNL     1      34.875 -20.696 -20.694  0.00  0.00    -0.055 C 
ATOM      4  C   UNL     1      37.140 -19.896 -20.644  0.00  0.00    -0.055 C 
ATOM      5  C   UNL     1      34.357 -19.326 -21.139  0.00  0.00    +0.068 C 
ATOM      6  C   UNL     1      36.699 -18.498 -21.087  0.00  0.00    +0.068 C 
ATOM      7  H   UNL     1      35.865 -19.993 -19.055  0.00  0.00    -0.079 HD
ENDROOT
BRANCH   2  11
ATOM      8  O   UNL     1      34.679 -15.883 -20.848  0.00  0.00    -0.406 OA
ATOM      9  O   UNL     1      34.122 -13.837 -19.922  0.00  0.00    -0.223 OA
ATOM     10  N   UNL     1      34.132 -14.132 -22.234  0.00  0.00    -0.287 N 
ATOM     11  C   UNL     1      35.087 -17.507 -22.657  0.00  0.00    +0.084 C 
ATOM     12  C   UNL     1      34.741 -16.247 -22.183  0.00  0.00    +0.179 A 
ATOM     13  C   UNL     1      35.086 -17.656 -24.059  0.00  0.00    +0.018 C 
ATOM     14  C   UNL     1      34.416 -15.210 -23.031  0.00  0.00    +0.098 A 
ATOM     15  C   UNL     1      34.751 -16.588 -24.916  0.00  0.00    +0.003 C 
ATOM     16  C   UNL     1      34.409 -15.337 -24.401  0.00  0.00    +0.020 C 
ATOM     17  C   UNL     1      34.289 -14.532 -20.917  0.00  0.00    +0.419 A 
ATOM     18  H   UNL     1      33.866 -13.237 -22.541  0.00  0.00    +0.172 HD
ENDBRANCH   2  11
BRANCH   1  19
ATOM     19  C   UNL     1      36.537 -21.873 -19.409  0.00  0.00    -0.050 C 
BRANCH  19  20
ATOM     20  C   UNL     1      36.282 -22.044 -17.936  0.00  0.00    -0.043 C 
ATOM     21  C   UNL     1      35.052 -22.524 -17.506  0.00  0.00    -0.006 C 
ATOM     22  C   UNL     1      37.281 -21.722 -17.027  0.00  0.00    -0.006 C 
ATOM     23  C   UNL     1      34.818 -22.684 -16.140  0.00  0.00    -0.000 C 
ATOM     24  C   UNL     1      37.046 -21.882 -15.662  0.00  0.00    -0.000 C 
ATOM     25  C   UNL     1      35.814 -22.362 -15.218  0.00  0.00    -0.000 C 
BRANCH  23  26
ATOM     26  C   UNL     1      33.540 -23.184 -15.678  0.00  0.00    -0.000 C 
ATOM     27  C   UNL     1      32.397 -23.001 -16.456  0.00  0.00    -0.000 C 
ATOM     28  C   UNL     1      33.453 -23.851 -14.455  0.00  0.00    -0.000 C 
ATOM     29  C   UNL     1      31.166 -23.484 -16.012  0.00  0.00    -0.000 C 
ATOM     30  C   UNL     1      32.222 -24.333 -14.011  0.00  0.00    -0.000 C 
ATOM     31  C   UNL     1      31.079 -24.150 -14.790  0.00  0.00    +0.000 C 
ENDBRANCH  23  26
ENDBRANCH  19  20
ENDBRANCH   1  19
TORSDOF 4
ENDMDL
MODEL 4
REMARK VINA RESULT:     -11.6      3.118     10.386
REMARK  Name = 208951
REMARK  4 active torsions:
REMARK  status: ('A' for Active; 'I' for Inactive)
REMARK    1  A    between atoms: N_1  and  C_19
REMARK    2  A    between atoms: N_2  and  C_11
REMARK    3  A    between atoms: C_19  and  C_20
REMARK    4  A    between atoms: C_23  and  C_26
REMARK                            x       y       z     vdW  Elec       q    Type
REMARK                         _______ _______ _______ _____ _____    ______ ____
ROOT
ATOM      1  N   UNL     1      34.806 -16.165 -23.487  0.00  0.00    +0.392 N 
ATOM      2  N   UNL     1      33.457 -13.760 -22.740  0.00  0.00    -0.309 N 
ATOM      3  C   UNL     1      34.395 -15.945 -22.096  0.00  0.00    -0.055 C 
ATOM      4  C   UNL     1      33.836 -15.544 -24.398  0.00  0.00    -0.055 C 
ATOM      5  C   UNL     1      34.318 -14.450 -21.774  0.00  0.00    +0.068 C 
ATOM      6  C   UNL     1      33.741 -14.036 -24.154  0.00  0.00    +0.068 C 
ATOM      7  H   UNL     1      35.718 -15.733 -23.634  0.00  0.00    -0.079 HD
ENDROOT
BRANCH   2  11
ATOM      8  O   UNL     1      34.505 -11.193 -23.732  0.00  0.00    -0.406 OA
ATOM      9  O   UNL     1      35.457  -9.273 -24.603  0.00  0.00    -0.223 OA
ATOM     10  N   UNL     1      33.598  -9.148 -23.202  0.00  0.00    -0.287 N 
ATOM     11  C   UNL     1      32.899 -12.519 -22.412  0.00  0.00    +0.084 C 
ATOM     12  C   UNL     1      33.410 -11.319 -22.891  0.00  0.00    +0.179 A 
ATOM     13  C   UNL     1      31.775 -12.414 -21.568  0.00  0.00    +0.018 C 
ATOM     14  C   UNL     1      32.852 -10.103 -22.562  0.00  0.00    +0.098 A 
ATOM     15  C   UNL     1      31.213 -11.164 -21.238  0.00  0.00    +0.003 C 
ATOM     16  C   UNL     1      31.755  -9.980 -21.741  0.00  0.00    +0.020 C 
ATOM     17  C   UNL     1      34.596  -9.800 -23.908  0.00  0.00    +0.419 A 
ATOM     18  H   UNL     1      33.452  -8.176 -23.166  0.00  0.00    +0.172 HD
ENDBRANCH   2  11
BRANCH   1  19
ATOM     19  C   UNL     1      34.929 -17.595 -23.766  0.00  0.00    -0.050 C 
BRANCH  19  20
ATOM     20  C   UNL     1      35.629 -18.308 -22.641  0.00  0.00    -0.043 C 
ATOM     21  C   UNL     1      34.907 -19.164 -21.819  0.00  0.00    -0.006 C 
ATOM     22  C   UNL     1      36.987 -18.102 -22.440  0.00  0.00    -0.006 C 
ATOM     23  C   UNL     1      35.557 -19.826 -20.777  0.00  0.00    -0.000 C 
ATOM     24  C   UNL     1      37.636 -18.763 -21.399  0.00  0.00    -0.000 C 
ATOM     25  C   UNL     1      36.922 -19.625 -20.567  0.00  0.00    -0.000 C 
BRANCH  23  26
ATOM     26  C   UNL     1      34.817 -20.722 -19.915  0.00  0.00    -0.000 C 
ATOM     27  C   UNL     1      35.497 -21.616 -19.089  0.00  0.00    -0.000 C 
ATOM     28  C   UNL     1      33.421 -20.690 -19.910  0.00  0.00    -0.000 C 
ATOM     29  C   UNL     1      34.783 -22.479 -18.258  0.00  0.00    -0.000 C 
ATOM     30  C   UNL     1      32.708 -21.553 -19.079  0.00  0.00    -0.000 C 
ATOM     31  C   UNL     1      33.389 -22.448 -18.252  0.00  0.00    +0.000 C 
ENDBRANCH  23  26
ENDBRANCH  19  20
ENDBRANCH   1  19
TORSDOF 4
ENDMDL
MODEL 5
REMARK VINA RESULT:     -11.5      1.306      2.330
REMARK  Name = 208951
REMARK  4 active torsions:
REMARK  status: ('A' for Active; 'I' for Inactive)
REMARK    1  A    between atoms: N_1  and  C_19
REMARK    2  A    between atoms: N_2  and  C_11
REMARK    3  A    between atoms: C_19  and  C_20
REMARK    4  A    between atoms: C_23  and  C_26
REMARK                            x       y       z     vdW  Elec       q    Type
REMARK                         _______ _______ _______ _____ _____    ______ ____
ROOT
ATOM      1  N   UNL     1      32.306 -11.360 -21.229  0.00  0.00    +0.392 N 
ATOM      2  N   UNL     1      33.182 -13.523 -22.877  0.00  0.00    -0.309 N 
ATOM      3  C   UNL     1      32.558 -11.150 -22.660  0.00  0.00    -0.055 C 
ATOM      4  C   UNL     1      31.794 -12.717 -21.006  0.00  0.00    -0.055 C 
ATOM      5  C   UNL     1      33.589 -12.150 -23.190  0.00  0.00    +0.068 C 
ATOM      6  C   UNL     1      32.799 -13.770 -21.480  0.00  0.00    +0.068 C 
ATOM      7  H   UNL     1      33.185 -11.253 -20.721  0.00  0.00    -0.079 HD
ENDROOT
BRANCH   2  11
ATOM      8  O   UNL     1      34.591 -15.799 -21.649  0.00  0.00    -0.406 OA
ATOM      9  O   UNL     1      35.667 -17.507 -20.519  0.00  0.00    -0.223 OA
ATOM     10  N   UNL     1      35.467 -17.558 -22.841  0.00  0.00    -0.287 N 
ATOM     11  C   UNL     1      33.714 -14.590 -23.610  0.00  0.00    +0.084 C 
ATOM     12  C   UNL     1      34.375 -15.655 -23.010  0.00  0.00    +0.179 A 
ATOM     13  C   UNL     1      33.607 -14.648 -25.015  0.00  0.00    +0.018 C 
ATOM     14  C   UNL     1      34.894 -16.700 -23.742  0.00  0.00    +0.098 A 
ATOM     15  C   UNL     1      34.143 -15.722 -25.754  0.00  0.00    +0.003 C 
ATOM     16  C   UNL     1      34.800 -16.774 -25.113  0.00  0.00    +0.020 C 
ATOM     17  C   UNL     1      35.287 -17.020 -21.577  0.00  0.00    +0.419 A 
ATOM     18  H   UNL     1      35.924 -18.403 -23.052  0.00  0.00    +0.172 HD
ENDBRANCH   2  11
BRANCH   1  19
ATOM     19  C   UNL     1      31.362 -10.366 -20.723  0.00  0.00    -0.050 C 
BRANCH  19  20
ATOM     20  C   UNL     1      31.977  -8.993 -20.707  0.00  0.00    -0.043 C 
ATOM     21  C   UNL     1      32.397  -8.416 -21.899  0.00  0.00    -0.006 C 
ATOM     22  C   UNL     1      32.117  -8.320 -19.500  0.00  0.00    -0.006 C 
ATOM     23  C   UNL     1      32.966  -7.143 -21.882  0.00  0.00    -0.000 C 
ATOM     24  C   UNL     1      32.687  -7.047 -19.485  0.00  0.00    -0.000 C 
ATOM     25  C   UNL     1      33.112  -6.459 -20.675  0.00  0.00    -0.000 C 
BRANCH  23  26
ATOM     26  C   UNL     1      33.406  -6.531 -23.118  0.00  0.00    -0.000 C 
ATOM     27  C   UNL     1      34.686  -6.789 -23.608  0.00  0.00    -0.000 C 
ATOM     28  C   UNL     1      32.548  -5.683 -23.820  0.00  0.00    -0.000 C 
ATOM     29  C   UNL     1      35.109  -6.200 -24.799  0.00  0.00    -0.000 C 
ATOM     30  C   UNL     1      32.972  -5.093 -25.010  0.00  0.00    -0.000 C 
ATOM     31  C   UNL     1      34.253  -5.352 -25.500  0.00  0.00    +0.000 C 
ENDBRANCH  23  26
ENDBRANCH  19  20
ENDBRANCH   1  19
TORSDOF 4
ENDMDL
MODEL 6
REMARK VINA RESULT:     -11.4      1.000      1.476
REMARK  Name = 208951
REMARK  4 active torsions:
REMARK  status: ('A' for Active; 'I' for Inactive)
REMARK    1  A    between atoms: N_1  and  C_19
REMARK    2  A    between atoms: N_2  and  C_11
REMARK    3  A    between atoms: C_19  and  C_20
REMARK    4  A    between atoms: C_23  and  C_26
REMARK                            x       y       z     vdW  Elec       q    Type
REMARK                         _______ _______ _______ _____ _____    ______ ____
ROOT
ATOM      1  N   UNL     1      32.015 -10.745 -21.689  0.00  0.00    +0.392 N 
ATOM      2  N   UNL     1      33.191 -13.344 -21.836  0.00  0.00    -0.309 N 
ATOM      3  C   UNL     1      32.680 -11.191 -22.918  0.00  0.00    -0.055 C 
ATOM      4  C   UNL     1      31.376 -11.887 -21.024  0.00  0.00    -0.055 C 
ATOM      5  C   UNL     1      33.755 -12.237 -22.614  0.00  0.00    +0.068 C 
ATOM      6  C   UNL     1      32.408 -12.956 -20.656  0.00  0.00    +0.068 C 
ATOM      7  H   UNL     1      32.715 -10.348 -21.061  0.00  0.00    -0.079 HD
ENDROOT
BRANCH   2  11
ATOM      8  O   UNL     1      33.881 -14.863 -24.262  0.00  0.00    -0.406 OA
ATOM      9  O   UNL     1      34.347 -15.919 -26.267  0.00  0.00    -0.223 OA
ATOM     10  N   UNL     1      34.954 -16.896 -24.240  0.00  0.00    -0.287 N 
ATOM     11  C   UNL     1      33.843 -14.582 -21.814  0.00  0.00    +0.084 C 
ATOM     12  C   UNL     1      34.160 -15.282 -22.971  0.00  0.00    +0.179 A 
ATOM     13  C   UNL     1      34.223 -15.195 -20.603  0.00  0.00    +0.018 C 
ATOM     14  C   UNL     1      34.804 -16.500 -22.937  0.00  0.00    +0.098 A 
ATOM     15  C   UNL     1      34.881 -16.442 -20.579  0.00  0.00    +0.003 C 
ATOM     16  C   UNL     1      35.182 -17.115 -21.765  0.00  0.00    +0.020 C 
ATOM     17  C   UNL     1      34.399 -15.913 -25.043  0.00  0.00    +0.419 A 
ATOM     18  H   UNL     1      35.379 -17.728 -24.549  0.00  0.00    +0.172 HD
ENDBRANCH   2  11
BRANCH   1  19
ATOM     19  C   UNL     1      31.029  -9.707 -21.987  0.00  0.00    -0.050 C 
BRANCH  19  20
ATOM     20  C   UNL     1      31.602  -8.334 -21.762  0.00  0.00    -0.043 C 
ATOM     21  C   UNL     1      31.754  -7.472 -22.840  0.00  0.00    -0.006 C 
ATOM     22  C   UNL     1      31.971  -7.947 -20.481  0.00  0.00    -0.006 C 
ATOM     23  C   UNL     1      32.284  -6.198 -22.631  0.00  0.00    -0.000 C 
ATOM     24  C   UNL     1      32.501  -6.675 -20.272  0.00  0.00    -0.000 C 
ATOM     25  C   UNL     1      32.658  -5.800 -21.347  0.00  0.00    -0.000 C 
BRANCH  23  26
ATOM     26  C   UNL     1      32.446  -5.289 -23.745  0.00  0.00    -0.000 C 
ATOM     27  C   UNL     1      33.072  -5.723 -24.913  0.00  0.00    -0.000 C 
ATOM     28  C   UNL     1      31.974  -3.979 -23.651  0.00  0.00    -0.000 C 
ATOM     29  C   UNL     1      33.227  -4.847 -25.988  0.00  0.00    -0.000 C 
ATOM     30  C   UNL     1      32.130  -3.104 -24.726  0.00  0.00    -0.000 C 
ATOM     31  C   UNL     1      32.756  -3.538 -25.894  0.00  0.00    +0.000 C 
ENDBRANCH  23  26
ENDBRANCH  19  20
ENDBRANCH   1  19
TORSDOF 4
ENDMDL
MODEL 7
REMARK VINA RESULT:     -11.3      5.967     12.806
REMARK  Name = 208951
REMARK  4 active torsions:
REMARK  status: ('A' for Active; 'I' for Inactive)
REMARK    1  A    between atoms: N_1  and  C_19
REMARK    2  A    between atoms: N_2  and  C_11
REMARK    3  A    between atoms: C_19  and  C_20
REMARK    4  A    between atoms: C_23  and  C_26
REMARK                            x       y       z     vdW  Elec       q    Type
REMARK                         _______ _______ _______ _____ _____    ______ ____
ROOT
ATOM      1  N   UNL     1      36.106 -20.200 -19.811  0.00  0.00    +0.392 N 
ATOM      2  N   UNL     1      35.382 -18.341 -21.855  0.00  0.00    -0.309 N 
ATOM      3  C   UNL     1      34.904 -20.420 -20.624  0.00  0.00    -0.055 C 
ATOM      4  C   UNL     1      37.141 -19.544 -20.619  0.00  0.00    -0.055 C 
ATOM      5  C   UNL     1      34.343 -19.095 -21.147  0.00  0.00    +0.068 C 
ATOM      6  C   UNL     1      36.656 -18.189 -21.141  0.00  0.00    +0.068 C 
ATOM      7  H   UNL     1      35.866 -19.593 -19.027  0.00  0.00    -0.079 HD
ENDROOT
BRANCH   2  11
ATOM      8  O   UNL     1      34.356 -15.700 -21.049  0.00  0.00    -0.406 OA
ATOM      9  O   UNL     1      33.570 -13.681 -20.239  0.00  0.00    -0.223 OA
ATOM     10  N   UNL     1      33.755 -14.051 -22.533  0.00  0.00    -0.287 N 
ATOM     11  C   UNL     1      35.017 -17.342 -22.766  0.00  0.00    +0.084 C 
ATOM     12  C   UNL     1      34.535 -16.102 -22.363  0.00  0.00    +0.179 A 
ATOM     13  C   UNL     1      35.119 -17.538 -24.158  0.00  0.00    +0.018 C 
ATOM     14  C   UNL     1      34.180 -15.126 -23.269  0.00  0.00    +0.098 A 
ATOM     15  C   UNL     1      34.752 -16.532 -25.075  0.00  0.00    +0.003 C 
ATOM     16  C   UNL     1      34.273 -15.298 -24.631  0.00  0.00    +0.020 C 
ATOM     17  C   UNL     1      33.859 -14.392 -21.195  0.00  0.00    +0.419 A 
ATOM     18  H   UNL     1      33.434 -13.193 -22.891  0.00  0.00    +0.172 HD
ENDBRANCH   2  11
BRANCH   1  19
ATOM     19  C   UNL     1      36.600 -21.466 -19.273  0.00  0.00    -0.050 C 
BRANCH  19  20
ATOM     20  C   UNL     1      35.615 -22.065 -18.306  0.00  0.00    -0.043 C 
ATOM     21  C   UNL     1      36.026 -22.377 -17.017  0.00  0.00    -0.006 C 
ATOM     22  C   UNL     1      34.309 -22.299 -18.715  0.00  0.00    -0.006 C 
ATOM     23  C   UNL     1      35.112 -22.931 -16.120  0.00  0.00    -0.000 C 
ATOM     24  C   UNL     1      33.397 -22.853 -17.819  0.00  0.00    -0.000 C 
ATOM     25  C   UNL     1      33.798 -23.170 -16.522  0.00  0.00    -0.000 C 
BRANCH  23  26
ATOM     26  C   UNL     1      35.527 -23.258 -14.773  0.00  0.00    -0.000 C 
ATOM     27  C   UNL     1      36.836 -23.002 -14.364  0.00  0.00    -0.000 C 
ATOM     28  C   UNL     1      34.618 -23.831 -13.882  0.00  0.00    -0.000 C 
ATOM     29  C   UNL     1      37.236 -23.316 -13.066  0.00  0.00    -0.000 C 
ATOM     30  C   UNL     1      35.019 -24.146 -12.584  0.00  0.00    -0.000 C 
ATOM     31  C   UNL     1      36.328 -23.888 -12.176  0.00  0.00    +0.000 C 
ENDBRANCH  23  26
ENDBRANCH  19  20
ENDBRANCH   1  19
TORSDOF 4
ENDMDL
MODEL 8
REMARK VINA RESULT:     -11.2      8.496     12.542
REMARK  Name = 208951
REMARK  4 active torsions:
REMARK  status: ('A' for Active; 'I' for Inactive)
REMARK    1  A    between atoms: N_1  and  C_19
REMARK    2  A    between atoms: N_2  and  C_11
REMARK    3  A    between atoms: C_19  and  C_20
REMARK    4  A    between atoms: C_23  and  C_26
REMARK                            x       y       z     vdW  Elec       q    Type
REMARK                         _______ _______ _______ _____ _____    ______ ____
ROOT
ATOM      1  N   UNL     1      34.437 -22.087 -17.907  0.00  0.00    +0.392 N 
ATOM      2  N   UNL     1      35.202 -23.462 -15.523  0.00  0.00    -0.309 N 
ATOM      3  C   UNL     1      35.855 -22.286 -17.586  0.00  0.00    -0.055 C 
ATOM      4  C   UNL     1      33.651 -23.228 -17.424  0.00  0.00    -0.055 C 
ATOM      5  C   UNL     1      36.066 -22.413 -16.075  0.00  0.00    +0.068 C 
ATOM      6  C   UNL     1      33.787 -23.387 -15.908  0.00  0.00    +0.068 C 
ATOM      7  H   UNL     1      34.109 -21.240 -17.440  0.00  0.00    -0.079 HD
ENDROOT
BRANCH   2  11
ATOM      8  O   UNL     1      37.615 -25.085 -15.060  0.00  0.00    -0.406 OA
ATOM      9  O   UNL     1      39.555 -26.331 -14.875  0.00  0.00    -0.223 OA
ATOM     10  N   UNL     1      38.146 -26.046 -13.040  0.00  0.00    -0.287 N 
ATOM     11  C   UNL     1      35.517 -24.044 -14.290  0.00  0.00    +0.084 C 
ATOM     12  C   UNL     1      36.662 -24.806 -14.093  0.00  0.00    +0.179 A 
ATOM     13  C   UNL     1      34.684 -23.887 -13.163  0.00  0.00    +0.018 C 
ATOM     14  C   UNL     1      36.963 -25.374 -12.874  0.00  0.00    +0.098 A 
ATOM     15  C   UNL     1      35.002 -24.472 -11.921  0.00  0.00    +0.003 C 
ATOM     16  C   UNL     1      36.163 -25.232 -11.764  0.00  0.00    +0.020 C 
ATOM     17  C   UNL     1      38.543 -25.875 -14.356  0.00  0.00    +0.419 A 
ATOM     18  H   UNL     1      38.626 -26.556 -12.350  0.00  0.00    +0.172 HD
ENDBRANCH   2  11
BRANCH   1  19
ATOM     19  C   UNL     1      34.257 -21.912 -19.347  0.00  0.00    -0.050 C 
BRANCH  19  20
ATOM     20  C   UNL     1      35.239 -20.915 -19.899  0.00  0.00    -0.043 C 
ATOM     21  C   UNL     1      34.778 -19.852 -20.666  0.00  0.00    -0.006 C 
ATOM     22  C   UNL     1      36.593 -21.069 -19.635  0.00  0.00    -0.006 C 
ATOM     23  C   UNL     1      35.689 -18.928 -21.177  0.00  0.00    -0.000 C 
ATOM     24  C   UNL     1      37.503 -20.145 -20.146  0.00  0.00    -0.000 C 
ATOM     25  C   UNL     1      37.052 -19.075 -20.917  0.00  0.00    -0.000 C 
BRANCH  23  26
ATOM     26  C   UNL     1      35.221 -17.815 -21.975  0.00  0.00    -0.000 C 
ATOM     27  C   UNL     1      34.835 -16.626 -21.357  0.00  0.00    -0.000 C 
ATOM     28  C   UNL     1      35.156 -17.932 -23.364  0.00  0.00    -0.000 C 
ATOM     29  C   UNL     1      34.384 -15.554 -22.127  0.00  0.00    -0.000 C 
ATOM     30  C   UNL     1      34.704 -16.860 -24.133  0.00  0.00    -0.000 C 
ATOM     31  C   UNL     1      34.319 -15.671 -23.515  0.00  0.00    +0.000 C 
ENDBRANCH  23  26
ENDBRANCH  19  20
ENDBRANCH   1  19
TORSDOF 4
ENDMDL
MODEL 9
REMARK VINA RESULT:     -11.2      8.924     13.024
REMARK  Name = 208951
REMARK  4 active torsions:
REMARK  status: ('A' for Active; 'I' for Inactive)
REMARK    1  A    between atoms: N_1  and  C_19
REMARK    2  A    between atoms: N_2  and  C_11
REMARK    3  A    between atoms: C_19  and  C_20
REMARK    4  A    between atoms: C_23  and  C_26
REMARK                            x       y       z     vdW  Elec       q    Type
REMARK                         _______ _______ _______ _____ _____    ______ ____
ROOT
ATOM      1  N   UNL     1      36.403 -21.847 -17.533  0.00  0.00    +0.392 N 
ATOM      2  N   UNL     1      36.417 -23.264 -15.052  0.00  0.00    -0.309 N 
ATOM      3  C   UNL     1      37.664 -22.090 -16.822  0.00  0.00    -0.055 C 
ATOM      4  C   UNL     1      35.483 -22.970 -17.315  0.00  0.00    -0.055 C 
ATOM      5  C   UNL     1      37.429 -22.236 -15.317  0.00  0.00    +0.068 C 
ATOM      6  C   UNL     1      35.174 -23.145 -15.826  0.00  0.00    +0.068 C 
ATOM      7  H   UNL     1      35.977 -20.996 -17.166  0.00  0.00    -0.079 HD
ENDROOT
BRANCH   2  11
ATOM      8  O   UNL     1      38.460 -25.119 -14.024  0.00  0.00    -0.406 OA
ATOM      9  O   UNL     1      40.156 -26.553 -13.377  0.00  0.00    -0.223 OA
ATOM     10  N   UNL     1      38.364 -26.112 -11.953  0.00  0.00    -0.287 N 
ATOM     11  C   UNL     1      36.350 -23.865 -13.790  0.00  0.00    +0.084 C 
ATOM     12  C   UNL     1      37.326 -24.737 -13.325  0.00  0.00    +0.179 A 
ATOM     13  C   UNL     1      35.279 -23.615 -12.908  0.00  0.00    +0.018 C 
ATOM     14  C   UNL     1      37.251 -25.322 -12.079  0.00  0.00    +0.098 A 
ATOM     15  C   UNL     1      35.212 -24.220 -11.636  0.00  0.00    +0.003 C 
ATOM     16  C   UNL     1      36.214 -25.092 -11.205  0.00  0.00    +0.020 C 
ATOM     17  C   UNL     1      39.096 -25.993 -13.123  0.00  0.00    +0.419 A 
ATOM     18  H   UNL     1      38.600 -26.663 -11.174  0.00  0.00    +0.172 HD
ENDBRANCH   2  11
BRANCH   1  19
ATOM     19  C   UNL     1      36.648 -21.655 -18.961  0.00  0.00    -0.050 C 
BRANCH  19  20
ATOM     20  C   UNL     1      35.464 -21.016 -19.634  0.00  0.00    -0.043 C 
ATOM     21  C   UNL     1      35.667 -19.993 -20.551  0.00  0.00    -0.006 C 
ATOM     22  C   UNL     1      34.183 -21.458 -19.329  0.00  0.00    -0.006 C 
ATOM     23  C   UNL     1      34.568 -19.402 -21.175  0.00  0.00    -0.000 C 
ATOM     24  C   UNL     1      33.086 -20.867 -19.953  0.00  0.00    -0.000 C 
ATOM     25  C   UNL     1      33.278 -19.838 -20.875  0.00  0.00    -0.000 C 
BRANCH  23  26
ATOM     26  C   UNL     1      34.767 -18.336 -22.133  0.00  0.00    -0.000 C 
ATOM     27  C   UNL     1      34.758 -18.616 -23.499  0.00  0.00    -0.000 C 
ATOM     28  C   UNL     1      34.968 -17.028 -21.690  0.00  0.00    -0.000 C 
ATOM     29  C   UNL     1      34.949 -17.589 -24.423  0.00  0.00    -0.000 C 
ATOM     30  C   UNL     1      35.160 -16.001 -22.614  0.00  0.00    -0.000 C 
ATOM     31  C   UNL     1      35.149 -16.282 -23.981  0.00  0.00    +0.000 C 
ENDBRANCH  23  26
ENDBRANCH  19  20
ENDBRANCH   1  19
TORSDOF 4
ENDMDL
