MODEL 1
REMARK VINA RESULT:     -11.6      0.000      0.000
REMARK  Name = 657140
REMARK  9 active torsions:
REMARK  status: ('A' for Active; 'I' for Inactive)
REMARK    1  A    between atoms: C_1  and  N_8
REMARK    2  A    between atoms: C_2  and  O_20
REMARK    3  A    between atoms: C_9  and  C_11
REMARK    4  A    between atoms: C_14  and  N_19
REMARK    5  A    between atoms: O_20  and  C_21
REMARK    6  A    between atoms: C_22  and  C_28
REMARK    7  A    between atoms: C_24  and  C_32
REMARK    8  A    between atoms: C_28  and  O_29
REMARK    9  A    between atoms: C_32  and  O_33
REMARK                            x       y       z     vdW  Elec       q    Type
REMARK                         _______ _______ _______ _____ _____    ______ ____
ROOT
ATOM      1  C   UNL     1      34.967 -22.919 -16.141  0.00  0.00    +0.086 C 
ATOM      2  C   UNL     1      35.450 -22.525 -17.378  0.00  0.00    +0.159 C 
ATOM      3  C   UNL     1      35.770 -22.898 -15.012  0.00  0.00    +0.018 C 
ATOM      4  C   UNL     1      36.775 -22.102 -17.490  0.00  0.00    +0.039 C 
ATOM      5  C   UNL     1      37.094 -22.475 -15.124  0.00  0.00    +0.001 C 
ATOM      6  C   UNL     1      37.597 -22.076 -16.364  0.00  0.00    +0.003 C 
ENDROOT
BRANCH   1   8
ATOM      7  O   UNL     1      32.994 -22.468 -13.930  0.00  0.00    -0.270 OA
ATOM      8  N   UNL     1      33.624 -23.350 -16.010  0.00  0.00    -0.278 N 
ATOM      9  C   UNL     1      32.732 -23.117 -14.955  0.00  0.00    +0.250 C 
ATOM     10  H   UNL     1      33.272 -23.885 -16.758  0.00  0.00    +0.155 HD
BRANCH   9  11
ATOM     11  C   UNL     1      31.415 -23.718 -15.093  0.00  0.00    +0.055 C 
ATOM     12  C   UNL     1      30.432 -23.077 -15.848  0.00  0.00    +0.029 C 
ATOM     13  C   UNL     1      31.135 -24.936 -14.473  0.00  0.00    +0.005 C 
ATOM     14  C   UNL     1      29.169 -23.655 -15.982  0.00  0.00    +0.143 C 
ATOM     15  C   UNL     1      29.872 -25.513 -14.606  0.00  0.00    +0.002 C 
ATOM     16  C   UNL     1      28.890 -24.873 -15.361  0.00  0.00    +0.024 C 
BRANCH  14  19
ATOM     17  O   UNL     1      27.950 -21.784 -16.558  0.00  0.00    -0.126 OA
ATOM     18  O   UNL     1      27.528 -23.668 -17.603  0.00  0.00    -0.126 OA
ATOM     19  N   UNL     1      28.168 -23.005 -16.751  0.00  0.00    +0.058 N 
ENDBRANCH  14  19
ENDBRANCH   9  11
ENDBRANCH   1   8
BRANCH   2  20
ATOM     20  O   UNL     1      34.664 -22.542 -18.491  0.00  0.00    -0.452 OA
BRANCH  20  21
ATOM     21  C   UNL     1      34.725 -21.447 -19.336  0.00  0.00    +0.146 C 
ATOM     22  C   UNL     1      36.010 -19.748 -20.433  0.00  0.00    +0.085 C 
ATOM     23  C   UNL     1      35.949 -20.850 -19.581  0.00  0.00    +0.044 C 
ATOM     24  C   UNL     1      34.846 -19.260 -21.027  0.00  0.00    +0.082 C 
ATOM     25  C   UNL     1      33.560 -20.978 -19.917  0.00  0.00    +0.038 C 
ATOM     26  C   UNL     1      33.621 -19.876 -20.769  0.00  0.00    +0.010 C 
BRANCH  22  28
ATOM     27  O   UNL     1      37.818 -18.972 -21.794  0.00  0.00    -0.245 OA
ATOM     28  C   UNL     1      37.304 -19.128 -20.683  0.00  0.00    +0.338 C 
BRANCH  28  29
ATOM     29  O   UNL     1      37.915 -18.722 -19.537  0.00  0.00    -0.477 OA
ATOM     30  H   UNL     1      38.796 -18.406 -19.563  0.00  0.00    +0.295 HD
ENDBRANCH  28  29
ENDBRANCH  22  28
BRANCH  24  32
ATOM     31  O   UNL     1      34.830 -16.929 -21.566  0.00  0.00    -0.245 OA
ATOM     32  C   UNL     1      34.876 -18.111 -21.921  0.00  0.00    +0.338 C 
BRANCH  32  33
ATOM     33  O   UNL     1      34.963 -18.474 -23.229  0.00  0.00    -0.477 OA
ATOM     34  H   UNL     1      35.471 -17.961 -23.826  0.00  0.00    +0.295 HD
ENDBRANCH  32  33
ENDBRANCH  24  32
ENDBRANCH  20  21
ENDBRANCH   2  20
TORSDOF 9
ENDMDL
MODEL 2
REMARK VINA RESULT:     -11.5      3.147      8.448
REMARK  Name = 657140
REMARK  9 active torsions:
REMARK  status: ('A' for Active; 'I' for Inactive)
REMARK    1  A    between atoms: C_1  and  N_8
REMARK    2  A    between atoms: C_2  and  O_20
REMARK    3  A    between atoms: C_9  and  C_11
REMARK    4  A    between atoms: C_14  and  N_19
REMARK    5  A    between atoms: O_20  and  C_21
REMARK    6  A    between atoms: C_22  and  C_28
REMARK    7  A    between atoms: C_24  and  C_32
REMARK    8  A    between atoms: C_28  and  O_29
REMARK    9  A    between atoms: C_32  and  O_33
REMARK                            x       y       z     vdW  Elec       q    Type
REMARK                         _______ _______ _______ _____ _____    ______ ____
ROOT
ATOM      1  C   UNL     1      32.000 -23.200 -15.994  0.00  0.00    +0.086 C 
ATOM      2  C   UNL     1      32.791 -23.419 -14.878  0.00  0.00    +0.159 C 
ATOM      3  C   UNL     1      30.724 -23.730 -16.089  0.00  0.00    +0.018 C 
ATOM      4  C   UNL     1      32.292 -24.191 -13.829  0.00  0.00    +0.039 C 
ATOM      5  C   UNL     1      30.225 -24.503 -15.040  0.00  0.00    +0.001 C 
ATOM      6  C   UNL     1      31.010 -24.732 -13.909  0.00  0.00    +0.003 C 
ENDROOT
BRANCH   1   8
ATOM      7  O   UNL     1      33.758 -23.959 -18.301  0.00  0.00    -0.270 OA
ATOM      8  N   UNL     1      32.491 -22.417 -17.067  0.00  0.00    -0.278 N 
ATOM      9  C   UNL     1      33.315 -22.812 -18.130  0.00  0.00    +0.250 C 
ATOM     10  H   UNL     1      32.219 -21.471 -17.065  0.00  0.00    +0.155 HD
BRANCH   9  11
ATOM     11  C   UNL     1      33.679 -21.767 -19.073  0.00  0.00    +0.055 C 
ATOM     12  C   UNL     1      35.012 -21.374 -19.197  0.00  0.00    +0.029 C 
ATOM     13  C   UNL     1      32.697 -21.159 -19.855  0.00  0.00    +0.005 C 
ATOM     14  C   UNL     1      35.362 -20.372 -20.104  0.00  0.00    +0.143 C 
ATOM     15  C   UNL     1      33.046 -20.157 -20.760  0.00  0.00    +0.002 C 
ATOM     16  C   UNL     1      34.378 -19.764 -20.884  0.00  0.00    +0.024 C 
BRANCH  14  19
ATOM     17  O   UNL     1      37.510 -20.194 -19.285  0.00  0.00    -0.126 OA
ATOM     18  O   UNL     1      37.087 -19.405 -21.289  0.00  0.00    -0.126 OA
ATOM     19  N   UNL     1      36.718 -19.971 -20.232  0.00  0.00    +0.058 N 
ENDBRANCH  14  19
ENDBRANCH   9  11
ENDBRANCH   1   8
BRANCH   2  20
ATOM     20  O   UNL     1      34.047 -22.898 -14.779  0.00  0.00    -0.452 OA
BRANCH  20  21
ATOM     21  C   UNL     1      35.025 -23.689 -14.200  0.00  0.00    +0.146 C 
ATOM     22  C   UNL     1      36.633 -24.053 -12.461  0.00  0.00    +0.085 C 
ATOM     23  C   UNL     1      35.648 -23.255 -13.043  0.00  0.00    +0.044 C 
ATOM     24  C   UNL     1      36.979 -25.271 -13.044  0.00  0.00    +0.082 C 
ATOM     25  C   UNL     1      35.355 -24.895 -14.793  0.00  0.00    +0.038 C 
ATOM     26  C   UNL     1      36.340 -25.692 -14.210  0.00  0.00    +0.010 C 
BRANCH  22  28
ATOM     27  O   UNL     1      38.251 -22.823 -11.200  0.00  0.00    -0.245 OA
ATOM     28  C   UNL     1      37.281 -23.585 -11.243  0.00  0.00    +0.338 C 
BRANCH  28  29
ATOM     29  O   UNL     1      36.698 -24.082 -10.121  0.00  0.00    -0.477 OA
ATOM     30  H   UNL     1      36.772 -23.619  -9.310  0.00  0.00    +0.295 HD
ENDBRANCH  28  29
ENDBRANCH  22  28
BRANCH  24  32
ATOM     31  O   UNL     1      39.156 -26.250 -12.885  0.00  0.00    -0.245 OA
ATOM     32  C   UNL     1      38.003 -26.126 -12.461  0.00  0.00    +0.338 C 
BRANCH  32  33
ATOM     33  O   UNL     1      37.555 -26.799 -11.367  0.00  0.00    -0.477 OA
ATOM     34  H   UNL     1      36.644 -26.783 -11.147  0.00  0.00    +0.295 HD
ENDBRANCH  32  33
ENDBRANCH  24  32
ENDBRANCH  20  21
ENDBRANCH   2  20
TORSDOF 9
ENDMDL
MODEL 3
REMARK VINA RESULT:     -11.4      3.160      8.339
REMARK  Name = 657140
REMARK  9 active torsions:
REMARK  status: ('A' for Active; 'I' for Inactive)
REMARK    1  A    between atoms: C_1  and  N_8
REMARK    2  A    between atoms: C_2  and  O_20
REMARK    3  A    between atoms: C_9  and  C_11
REMARK    4  A    between atoms: C_14  and  N_19
REMARK    5  A    between atoms: O_20  and  C_21
REMARK    6  A    between atoms: C_22  and  C_28
REMARK    7  A    between atoms: C_24  and  C_32
REMARK    8  A    between atoms: C_28  and  O_29
REMARK    9  A    between atoms: C_32  and  O_33
REMARK                            x       y       z     vdW  Elec       q    Type
REMARK                         _______ _______ _______ _____ _____    ______ ____
ROOT
ATOM      1  C   UNL     1      31.753 -23.331 -15.978  0.00  0.00    +0.086 C 
ATOM      2  C   UNL     1      32.465 -23.522 -14.805  0.00  0.00    +0.159 C 
ATOM      3  C   UNL     1      30.499 -23.891 -16.161  0.00  0.00    +0.018 C 
ATOM      4  C   UNL     1      31.907 -24.295 -13.787  0.00  0.00    +0.039 C 
ATOM      5  C   UNL     1      29.942 -24.665 -15.143  0.00  0.00    +0.001 C 
ATOM      6  C   UNL     1      30.646 -24.866 -13.955  0.00  0.00    +0.003 C 
ENDROOT
BRANCH   1   8
ATOM      7  O   UNL     1      33.710 -24.065 -18.127  0.00  0.00    -0.270 OA
ATOM      8  N   UNL     1      32.305 -22.547 -17.021  0.00  0.00    -0.278 N 
ATOM      9  C   UNL     1      33.221 -22.930 -18.010  0.00  0.00    +0.250 C 
ATOM     10  H   UNL     1      32.005 -21.609 -17.054  0.00  0.00    +0.155 HD
BRANCH   9  11
ATOM     11  C   UNL     1      33.628 -21.886 -18.936  0.00  0.00    +0.055 C 
ATOM     12  C   UNL     1      34.971 -21.519 -19.027  0.00  0.00    +0.029 C 
ATOM     13  C   UNL     1      32.677 -21.253 -19.736  0.00  0.00    +0.005 C 
ATOM     14  C   UNL     1      35.362 -20.518 -19.917  0.00  0.00    +0.143 C 
ATOM     15  C   UNL     1      33.067 -20.252 -20.626  0.00  0.00    +0.002 C 
ATOM     16  C   UNL     1      34.410 -19.885 -20.716  0.00  0.00    +0.024 C 
BRANCH  14  19
ATOM     17  O   UNL     1      37.140 -19.606 -21.067  0.00  0.00    -0.126 OA
ATOM     18  O   UNL     1      37.488 -20.363 -19.036  0.00  0.00    -0.126 OA
ATOM     19  N   UNL     1      36.728 -20.144 -20.011  0.00  0.00    +0.058 N 
ENDBRANCH  14  19
ENDBRANCH   9  11
ENDBRANCH   1   8
BRANCH   2  20
ATOM     20  O   UNL     1      33.698 -22.972 -14.619  0.00  0.00    -0.452 OA
BRANCH  20  21
ATOM     21  C   UNL     1      34.672 -23.764 -14.036  0.00  0.00    +0.146 C 
ATOM     22  C   UNL     1      36.329 -25.485 -14.226  0.00  0.00    +0.085 C 
ATOM     23  C   UNL     1      35.347 -24.688 -14.814  0.00  0.00    +0.044 C 
ATOM     24  C   UNL     1      36.621 -25.345 -12.870  0.00  0.00    +0.082 C 
ATOM     25  C   UNL     1      34.948 -23.610 -12.689  0.00  0.00    +0.038 C 
ATOM     26  C   UNL     1      35.930 -24.408 -12.101  0.00  0.00    +0.010 C 
BRANCH  22  28
ATOM     27  O   UNL     1      36.541 -27.491 -15.511  0.00  0.00    -0.245 OA
ATOM     28  C   UNL     1      37.031 -26.454 -15.056  0.00  0.00    +0.338 C 
BRANCH  28  29
ATOM     29  O   UNL     1      38.322 -26.097 -15.291  0.00  0.00    -0.477 OA
ATOM     30  H   UNL     1      38.696 -26.223 -16.140  0.00  0.00    +0.295 HD
ENDBRANCH  28  29
ENDBRANCH  22  28
BRANCH  24  32
ATOM     31  O   UNL     1      38.844 -26.147 -12.499  0.00  0.00    -0.245 OA
ATOM     32  C   UNL     1      37.640 -26.162 -12.226  0.00  0.00    +0.338 C 
BRANCH  32  33
ATOM     33  O   UNL     1      37.122 -26.972 -11.263  0.00  0.00    -0.477 OA
ATOM     34  H   UNL     1      36.236 -26.858 -10.982  0.00  0.00    +0.295 HD
ENDBRANCH  32  33
ENDBRANCH  24  32
ENDBRANCH  20  21
ENDBRANCH   2  20
TORSDOF 9
ENDMDL
MODEL 4
REMARK VINA RESULT:     -11.2      3.073      8.506
REMARK  Name = 657140
REMARK  9 active torsions:
REMARK  status: ('A' for Active; 'I' for Inactive)
REMARK    1  A    between atoms: C_1  and  N_8
REMARK    2  A    between atoms: C_2  and  O_20
REMARK    3  A    between atoms: C_9  and  C_11
REMARK    4  A    between atoms: C_14  and  N_19
REMARK    5  A    between atoms: O_20  and  C_21
REMARK    6  A    between atoms: C_22  and  C_28
REMARK    7  A    between atoms: C_24  and  C_32
REMARK    8  A    between atoms: C_28  and  O_29
REMARK    9  A    between atoms: C_32  and  O_33
REMARK                            x       y       z     vdW  Elec       q    Type
REMARK                         _______ _______ _______ _____ _____    ______ ____
ROOT
ATOM      1  C   UNL     1      32.927 -22.903 -16.659  0.00  0.00    +0.086 C 
ATOM      2  C   UNL     1      33.414 -23.935 -15.874  0.00  0.00    +0.159 C 
ATOM      3  C   UNL     1      31.592 -22.535 -16.619  0.00  0.00    +0.018 C 
ATOM      4  C   UNL     1      32.542 -24.619 -15.028  0.00  0.00    +0.039 C 
ATOM      5  C   UNL     1      30.720 -23.218 -15.773  0.00  0.00    +0.001 C 
ATOM      6  C   UNL     1      31.195 -24.261 -14.976  0.00  0.00    +0.003 C 
ENDROOT
BRANCH   1   8
ATOM      7  O   UNL     1      32.675 -22.277 -19.580  0.00  0.00    -0.270 OA
ATOM      8  N   UNL     1      33.801 -22.198 -17.523  0.00  0.00    -0.278 N 
ATOM      9  C   UNL     1      33.645 -21.926 -18.890  0.00  0.00    +0.250 C 
ATOM     10  H   UNL     1      34.626 -21.854 -17.110  0.00  0.00    +0.155 HD
BRANCH   9  11
ATOM     11  C   UNL     1      34.734 -21.197 -19.520  0.00  0.00    +0.055 C 
ATOM     12  C   UNL     1      34.459 -20.244 -20.500  0.00  0.00    +0.029 C 
ATOM     13  C   UNL     1      36.053 -21.450 -19.142  0.00  0.00    +0.005 C 
ATOM     14  C   UNL     1      35.504 -19.543 -21.103  0.00  0.00    +0.143 C 
ATOM     15  C   UNL     1      37.098 -20.750 -19.745  0.00  0.00    +0.002 C 
ATOM     16  C   UNL     1      36.823 -19.797 -20.726  0.00  0.00    +0.024 C 
BRANCH  14  19
ATOM     17  O   UNL     1      35.451 -17.362 -21.851  0.00  0.00    -0.126 OA
ATOM     18  O   UNL     1      34.763 -18.948 -23.204  0.00  0.00    -0.126 OA
ATOM     19  N   UNL     1      35.226 -18.572 -22.101  0.00  0.00    +0.058 N 
ENDBRANCH  14  19
ENDBRANCH   9  11
ENDBRANCH   1   8
BRANCH   2  20
ATOM     20  O   UNL     1      34.727 -24.301 -15.908  0.00  0.00    -0.452 OA
BRANCH  20  21
ATOM     21  C   UNL     1      35.506 -23.998 -14.805  0.00  0.00    +0.146 C 
ATOM     22  C   UNL     1      36.211 -24.492 -12.569  0.00  0.00    +0.085 C 
ATOM     23  C   UNL     1      35.425 -24.798 -13.680  0.00  0.00    +0.044 C 
ATOM     24  C   UNL     1      37.065 -23.390 -12.601  0.00  0.00    +0.082 C 
ATOM     25  C   UNL     1      36.348 -22.900 -14.856  0.00  0.00    +0.038 C 
ATOM     26  C   UNL     1      37.134 -22.595 -13.744  0.00  0.00    +0.010 C 
BRANCH  22  28
ATOM     27  O   UNL     1      35.460 -25.087 -10.377  0.00  0.00    -0.245 OA
ATOM     28  C   UNL     1      36.116 -25.343 -11.390  0.00  0.00    +0.338 C 
BRANCH  28  29
ATOM     29  O   UNL     1      36.844 -26.485 -11.515  0.00  0.00    -0.477 OA
ATOM     30  H   UNL     1      37.029 -27.007 -10.760  0.00  0.00    +0.295 HD
ENDBRANCH  28  29
ENDBRANCH  22  28
BRANCH  24  32
ATOM     31  O   UNL     1      39.091 -23.335 -11.329  0.00  0.00    -0.245 OA
ATOM     32  C   UNL     1      37.898 -23.044 -11.457  0.00  0.00    +0.338 C 
BRANCH  32  33
ATOM     33  O   UNL     1      37.214 -22.346 -10.511  0.00  0.00    -0.477 OA
ATOM     34  H   UNL     1      37.157 -21.413 -10.567  0.00  0.00    +0.295 HD
ENDBRANCH  32  33
ENDBRANCH  24  32
ENDBRANCH  20  21
ENDBRANCH   2  20
TORSDOF 9
ENDMDL
MODEL 5
REMARK VINA RESULT:     -11.0      3.040      6.368
REMARK  Name = 657140
REMARK  9 active torsions:
REMARK  status: ('A' for Active; 'I' for Inactive)
REMARK    1  A    between atoms: C_1  and  N_8
REMARK    2  A    between atoms: C_2  and  O_20
REMARK    3  A    between atoms: C_9  and  C_11
REMARK    4  A    between atoms: C_14  and  N_19
REMARK    5  A    between atoms: O_20  and  C_21
REMARK    6  A    between atoms: C_22  and  C_28
REMARK    7  A    between atoms: C_24  and  C_32
REMARK    8  A    between atoms: C_28  and  O_29
REMARK    9  A    between atoms: C_32  and  O_33
REMARK                            x       y       z     vdW  Elec       q    Type
REMARK                         _______ _______ _______ _____ _____    ______ ____
ROOT
ATOM      1  C   UNL     1      34.958 -22.334 -17.625  0.00  0.00    +0.086 C 
ATOM      2  C   UNL     1      36.026 -21.857 -16.884  0.00  0.00    +0.159 C 
ATOM      3  C   UNL     1      35.006 -22.390 -19.009  0.00  0.00    +0.018 C 
ATOM      4  C   UNL     1      37.175 -21.422 -17.545  0.00  0.00    +0.039 C 
ATOM      5  C   UNL     1      36.155 -21.955 -19.670  0.00  0.00    +0.001 C 
ATOM      6  C   UNL     1      37.240 -21.471 -18.937  0.00  0.00    +0.003 C 
ENDROOT
BRANCH   1   8
ATOM      7  O   UNL     1      32.085 -21.611 -18.086  0.00  0.00    -0.270 OA
ATOM      8  N   UNL     1      33.784 -22.781 -16.969  0.00  0.00    -0.278 N 
ATOM      9  C   UNL     1      32.454 -22.416 -17.216  0.00  0.00    +0.250 C 
ATOM     10  H   UNL     1      33.922 -23.433 -16.244  0.00  0.00    +0.155 HD
BRANCH   9  11
ATOM     11  C   UNL     1      31.457 -23.027 -16.351  0.00  0.00    +0.055 C 
ATOM     12  C   UNL     1      30.100 -22.883 -16.640  0.00  0.00    +0.029 C 
ATOM     13  C   UNL     1      31.858 -23.760 -15.234  0.00  0.00    +0.005 C 
ATOM     14  C   UNL     1      29.144 -23.471 -15.811  0.00  0.00    +0.143 C 
ATOM     15  C   UNL     1      30.903 -24.347 -14.405  0.00  0.00    +0.002 C 
ATOM     16  C   UNL     1      29.546 -24.203 -14.694  0.00  0.00    +0.024 C 
BRANCH  14  19
ATOM     17  O   UNL     1      27.005 -22.828 -15.237  0.00  0.00    -0.126 OA
ATOM     18  O   UNL     1      27.336 -23.700 -17.224  0.00  0.00    -0.126 OA
ATOM     19  N   UNL     1      27.763 -23.326 -16.105  0.00  0.00    +0.058 N 
ENDBRANCH  14  19
ENDBRANCH   9  11
ENDBRANCH   1   8
BRANCH   2  20
ATOM     20  O   UNL     1      35.984 -21.802 -15.523  0.00  0.00    -0.452 OA
BRANCH  20  21
ATOM     21  C   UNL     1      36.279 -22.960 -14.824  0.00  0.00    +0.146 C 
ATOM     22  C   UNL     1      37.851 -24.657 -14.199  0.00  0.00    +0.085 C 
ATOM     23  C   UNL     1      37.554 -23.491 -14.904  0.00  0.00    +0.044 C 
ATOM     24  C   UNL     1      36.867 -25.274 -13.426  0.00  0.00    +0.082 C 
ATOM     25  C   UNL     1      35.290 -23.558 -14.063  0.00  0.00    +0.038 C 
ATOM     26  C   UNL     1      35.587 -24.724 -13.358  0.00  0.00    +0.010 C 
BRANCH  22  28
ATOM     27  O   UNL     1      40.148 -24.886 -13.572  0.00  0.00    -0.245 OA
ATOM     28  C   UNL     1      39.197 -25.206 -14.291  0.00  0.00    +0.338 C 
BRANCH  28  29
ATOM     29  O   UNL     1      39.312 -26.137 -15.275  0.00  0.00    -0.477 OA
ATOM     30  H   UNL     1      40.158 -26.444 -15.533  0.00  0.00    +0.295 HD
ENDBRANCH  28  29
ENDBRANCH  22  28
BRANCH  24  32
ATOM     31  O   UNL     1      37.346 -26.555 -11.463  0.00  0.00    -0.245 OA
ATOM     32  C   UNL     1      37.145 -26.493 -12.679  0.00  0.00    +0.338 C 
BRANCH  32  33
ATOM     33  O   UNL     1      37.164 -27.596 -13.476  0.00  0.00    -0.477 OA
ATOM     34  H   UNL     1      36.404 -28.140 -13.541  0.00  0.00    +0.295 HD
ENDBRANCH  32  33
ENDBRANCH  24  32
ENDBRANCH  20  21
ENDBRANCH   2  20
TORSDOF 9
ENDMDL
MODEL 6
REMARK VINA RESULT:     -10.9      3.178      6.322
REMARK  Name = 657140
REMARK  9 active torsions:
REMARK  status: ('A' for Active; 'I' for Inactive)
REMARK    1  A    between atoms: C_1  and  N_8
REMARK    2  A    between atoms: C_2  and  O_20
REMARK    3  A    between atoms: C_9  and  C_11
REMARK    4  A    between atoms: C_14  and  N_19
REMARK    5  A    between atoms: O_20  and  C_21
REMARK    6  A    between atoms: C_22  and  C_28
REMARK    7  A    between atoms: C_24  and  C_32
REMARK    8  A    between atoms: C_28  and  O_29
REMARK    9  A    between atoms: C_32  and  O_33
REMARK                            x       y       z     vdW  Elec       q    Type
REMARK                         _______ _______ _______ _____ _____    ______ ____
ROOT
ATOM      1  C   UNL     1      33.976 -22.461 -17.742  0.00  0.00    +0.086 C 
ATOM      2  C   UNL     1      35.178 -22.511 -17.056  0.00  0.00    +0.159 C 
ATOM      3  C   UNL     1      33.893 -21.922 -19.016  0.00  0.00    +0.018 C 
ATOM      4  C   UNL     1      36.330 -22.007 -17.660  0.00  0.00    +0.039 C 
ATOM      5  C   UNL     1      35.045 -21.418 -19.620  0.00  0.00    +0.001 C 
ATOM      6  C   UNL     1      36.264 -21.461 -18.942  0.00  0.00    +0.003 C 
ENDROOT
BRANCH   1   8
ATOM      7  O   UNL     1      33.074 -22.403 -14.883  0.00  0.00    -0.270 OA
ATOM      8  N   UNL     1      32.797 -22.970 -17.143  0.00  0.00    -0.278 N 
ATOM      9  C   UNL     1      32.412 -22.922 -15.796  0.00  0.00    +0.250 C 
ATOM     10  H   UNL     1      32.167 -23.417 -17.753  0.00  0.00    +0.155 HD
BRANCH   9  11
ATOM     11  C   UNL     1      31.147 -23.562 -15.475  0.00  0.00    +0.055 C 
ATOM     12  C   UNL     1      29.959 -23.065 -16.011  0.00  0.00    +0.029 C 
ATOM     13  C   UNL     1      31.121 -24.675 -14.634  0.00  0.00    +0.005 C 
ATOM     14  C   UNL     1      28.744 -23.681 -15.704  0.00  0.00    +0.143 C 
ATOM     15  C   UNL     1      29.907 -25.290 -14.327  0.00  0.00    +0.002 C 
ATOM     16  C   UNL     1      28.719 -24.792 -14.862  0.00  0.00    +0.024 C 
BRANCH  14  19
ATOM     17  O   UNL     1      26.706 -22.624 -15.486  0.00  0.00    -0.126 OA
ATOM     18  O   UNL     1      27.326 -23.297 -17.481  0.00  0.00    -0.126 OA
ATOM     19  N   UNL     1      27.534 -23.176 -16.250  0.00  0.00    +0.058 N 
ENDBRANCH  14  19
ENDBRANCH   9  11
ENDBRANCH   1   8
BRANCH   2  20
ATOM     20  O   UNL     1      35.265 -23.041 -15.804  0.00  0.00    -0.452 OA
BRANCH  20  21
ATOM     21  C   UNL     1      36.455 -23.653 -15.447  0.00  0.00    +0.146 C 
ATOM     22  C   UNL     1      37.621 -25.517 -14.497  0.00  0.00    +0.085 C 
ATOM     23  C   UNL     1      36.422 -24.902 -14.855  0.00  0.00    +0.044 C 
ATOM     24  C   UNL     1      38.835 -24.873 -14.736  0.00  0.00    +0.082 C 
ATOM     25  C   UNL     1      37.649 -22.997 -15.693  0.00  0.00    +0.038 C 
ATOM     26  C   UNL     1      38.848 -23.613 -15.335  0.00  0.00    +0.010 C 
BRANCH  22  28
ATOM     27  O   UNL     1      37.929 -27.888 -14.407  0.00  0.00    -0.245 OA
ATOM     28  C   UNL     1      37.573 -26.834 -13.874  0.00  0.00    +0.338 C 
BRANCH  28  29
ATOM     29  O   UNL     1      37.084 -26.790 -12.606  0.00  0.00    -0.477 OA
ATOM     30  H   UNL     1      37.214 -26.026 -12.080  0.00  0.00    +0.295 HD
ENDBRANCH  28  29
ENDBRANCH  22  28
BRANCH  24  32
ATOM     31  O   UNL     1      40.715 -26.317 -15.054  0.00  0.00    -0.245 OA
ATOM     32  C   UNL     1      40.104 -25.488 -14.374  0.00  0.00    +0.338 C 
BRANCH  32  33
ATOM     33  O   UNL     1      40.568 -25.048 -13.173  0.00  0.00    -0.477 OA
ATOM     34  H   UNL     1      41.170 -24.331 -13.138  0.00  0.00    +0.295 HD
ENDBRANCH  32  33
ENDBRANCH  24  32
ENDBRANCH  20  21
ENDBRANCH   2  20
TORSDOF 9
ENDMDL
MODEL 7
REMARK VINA RESULT:     -10.6      3.687      8.319
REMARK  Name = 657140
REMARK  9 active torsions:
REMARK  status: ('A' for Active; 'I' for Inactive)
REMARK    1  A    between atoms: C_1  and  N_8
REMARK    2  A    between atoms: C_2  and  O_20
REMARK    3  A    between atoms: C_9  and  C_11
REMARK    4  A    between atoms: C_14  and  N_19
REMARK    5  A    between atoms: O_20  and  C_21
REMARK    6  A    between atoms: C_22  and  C_28
REMARK    7  A    between atoms: C_24  and  C_32
REMARK    8  A    between atoms: C_28  and  O_29
REMARK    9  A    between atoms: C_32  and  O_33
REMARK                            x       y       z     vdW  Elec       q    Type
REMARK                         _______ _______ _______ _____ _____    ______ ____
ROOT
ATOM      1  C   UNL     1      36.004 -22.584 -17.338  0.00  0.00    +0.086 C 
ATOM      2  C   UNL     1      34.684 -22.940 -17.560  0.00  0.00    +0.159 C 
ATOM      3  C   UNL     1      36.635 -21.629 -18.118  0.00  0.00    +0.018 C 
ATOM      4  C   UNL     1      33.976 -22.326 -18.593  0.00  0.00    +0.039 C 
ATOM      5  C   UNL     1      35.928 -21.015 -19.152  0.00  0.00    +0.001 C 
ATOM      6  C   UNL     1      34.597 -21.364 -19.388  0.00  0.00    +0.003 C 
ENDROOT
BRANCH   1   8
ATOM      7  O   UNL     1      35.606 -22.469 -14.368  0.00  0.00    -0.270 OA
ATOM      8  N   UNL     1      36.736 -23.197 -16.291  0.00  0.00    -0.278 N 
ATOM      9  C   UNL     1      36.516 -23.117 -14.909  0.00  0.00    +0.250 C 
ATOM     10  H   UNL     1      37.500 -23.751 -16.572  0.00  0.00    +0.155 HD
BRANCH   9  11
ATOM     11  C   UNL     1      37.462 -23.841 -14.074  0.00  0.00    +0.055 C 
ATOM     12  C   UNL     1      38.486 -24.582 -14.662  0.00  0.00    +0.029 C 
ATOM     13  C   UNL     1      37.345 -23.791 -12.685  0.00  0.00    +0.005 C 
ATOM     14  C   UNL     1      39.395 -25.274 -13.861  0.00  0.00    +0.143 C 
ATOM     15  C   UNL     1      38.252 -24.484 -11.883  0.00  0.00    +0.002 C 
ATOM     16  C   UNL     1      39.277 -25.225 -12.471  0.00  0.00    +0.024 C 
BRANCH  14  19
ATOM     17  O   UNL     1      41.190 -26.716 -13.724  0.00  0.00    -0.126 OA
ATOM     18  O   UNL     1      40.584 -25.986 -15.703  0.00  0.00    -0.126 OA
ATOM     19  N   UNL     1      40.439 -26.028 -14.458  0.00  0.00    +0.058 N 
ENDBRANCH  14  19
ENDBRANCH   9  11
ENDBRANCH   1   8
BRANCH   2  20
ATOM     20  O   UNL     1      34.058 -23.877 -16.793  0.00  0.00    -0.452 OA
BRANCH  20  21
ATOM     21  C   UNL     1      32.780 -23.589 -16.344  0.00  0.00    +0.146 C 
ATOM     22  C   UNL     1      31.058 -23.842 -14.698  0.00  0.00    +0.085 C 
ATOM     23  C   UNL     1      32.345 -24.133 -15.149  0.00  0.00    +0.044 C 
ATOM     24  C   UNL     1      30.226 -23.011 -15.448  0.00  0.00    +0.082 C 
ATOM     25  C   UNL     1      31.970 -22.763 -17.103  0.00  0.00    +0.038 C 
ATOM     26  C   UNL     1      30.683 -22.472 -16.651  0.00  0.00    +0.010 C 
BRANCH  22  28
ATOM     27  O   UNL     1      30.861 -23.968 -12.317  0.00  0.00    -0.245 OA
ATOM     28  C   UNL     1      30.611 -24.421 -13.438  0.00  0.00    +0.338 C 
BRANCH  28  29
ATOM     29  O   UNL     1      29.868 -25.545 -13.618  0.00  0.00    -0.477 OA
ATOM     30  H   UNL     1      28.941 -25.480 -13.734  0.00  0.00    +0.295 HD
ENDBRANCH  28  29
ENDBRANCH  22  28
BRANCH  24  32
ATOM     31  O   UNL     1      28.550 -21.659 -14.407  0.00  0.00    -0.245 OA
ATOM     32  C   UNL     1      28.878 -22.688 -15.005  0.00  0.00    +0.338 C 
BRANCH  32  33
ATOM     33  O   UNL     1      27.981 -23.661 -15.321  0.00  0.00    -0.477 OA
ATOM     34  H   UNL     1      27.062 -23.487 -15.269  0.00  0.00    +0.295 HD
ENDBRANCH  32  33
ENDBRANCH  24  32
ENDBRANCH  20  21
ENDBRANCH   2  20
TORSDOF 9
ENDMDL
MODEL 8
REMARK VINA RESULT:     -10.6      8.623     12.666
REMARK  Name = 657140
REMARK  9 active torsions:
REMARK  status: ('A' for Active; 'I' for Inactive)
REMARK    1  A    between atoms: C_1  and  N_8
REMARK    2  A    between atoms: C_2  and  O_20
REMARK    3  A    between atoms: C_9  and  C_11
REMARK    4  A    between atoms: C_14  and  N_19
REMARK    5  A    between atoms: O_20  and  C_21
REMARK    6  A    between atoms: C_22  and  C_28
REMARK    7  A    between atoms: C_24  and  C_32
REMARK    8  A    between atoms: C_28  and  O_29
REMARK    9  A    between atoms: C_32  and  O_33
REMARK                            x       y       z     vdW  Elec       q    Type
REMARK                         _______ _______ _______ _____ _____    ______ ____
ROOT
ATOM      1  C   UNL     1      32.244 -12.183 -20.965  0.00  0.00    +0.086 C 
ATOM      2  C   UNL     1      32.127 -10.885 -21.434  0.00  0.00    +0.159 C 
ATOM      3  C   UNL     1      31.874 -12.520 -19.673  0.00  0.00    +0.018 C 
ATOM      4  C   UNL     1      31.627  -9.896 -20.588  0.00  0.00    +0.039 C 
ATOM      5  C   UNL     1      31.373 -11.530 -18.827  0.00  0.00    +0.001 C 
ATOM      6  C   UNL     1      31.250 -10.218 -19.285  0.00  0.00    +0.003 C 
ENDROOT
BRANCH   1   8
ATOM      7  O   UNL     1      34.582 -14.025 -20.602  0.00  0.00    -0.270 OA
ATOM      8  N   UNL     1      32.749 -13.200 -21.812  0.00  0.00    -0.278 N 
ATOM      9  C   UNL     1      33.851 -14.042 -21.604  0.00  0.00    +0.250 C 
ATOM     10  H   UNL     1      32.264 -13.331 -22.659  0.00  0.00    +0.155 HD
BRANCH   9  11
ATOM     11  C   UNL     1      34.145 -14.978 -22.677  0.00  0.00    +0.055 C 
ATOM     12  C   UNL     1      34.678 -16.233 -22.381  0.00  0.00    +0.029 C 
ATOM     13  C   UNL     1      33.891 -14.623 -24.002  0.00  0.00    +0.005 C 
ATOM     14  C   UNL     1      34.958 -17.132 -23.411  0.00  0.00    +0.143 C 
ATOM     15  C   UNL     1      34.172 -15.521 -25.032  0.00  0.00    +0.002 C 
ATOM     16  C   UNL     1      34.705 -16.776 -24.736  0.00  0.00    +0.024 C 
BRANCH  14  19
ATOM     17  O   UNL     1      36.557 -18.479 -22.437  0.00  0.00    -0.126 OA
ATOM     18  O   UNL     1      34.908 -19.434 -23.528  0.00  0.00    -0.126 OA
ATOM     19  N   UNL     1      35.500 -18.410 -23.111  0.00  0.00    +0.058 N 
ENDBRANCH  14  19
ENDBRANCH   9  11
ENDBRANCH   1   8
BRANCH   2  20
ATOM     20  O   UNL     1      32.489 -10.550 -22.705  0.00  0.00    -0.452 OA
BRANCH  20  21
ATOM     21  C   UNL     1      32.513  -9.204 -23.031  0.00  0.00    +0.146 C 
ATOM     22  C   UNL     1      33.750  -7.234 -23.605  0.00  0.00    +0.085 C 
ATOM     23  C   UNL     1      33.728  -8.589 -23.276  0.00  0.00    +0.044 C 
ATOM     24  C   UNL     1      32.558  -6.515 -23.683  0.00  0.00    +0.082 C 
ATOM     25  C   UNL     1      31.319  -8.508 -23.104  0.00  0.00    +0.038 C 
ATOM     26  C   UNL     1      31.342  -7.153 -23.433  0.00  0.00    +0.010 C 
BRANCH  22  28
ATOM     27  O   UNL     1      35.255  -5.764 -24.743  0.00  0.00    -0.245 OA
ATOM     28  C   UNL     1      35.036  -6.598 -23.860  0.00  0.00    +0.338 C 
BRANCH  28  29
ATOM     29  O   UNL     1      36.004  -7.024 -23.006  0.00  0.00    -0.477 OA
ATOM     30  H   UNL     1      36.876  -7.163 -23.319  0.00  0.00    +0.295 HD
ENDBRANCH  28  29
ENDBRANCH  22  28
BRANCH  24  32
ATOM     31  O   UNL     1      32.368  -4.175 -23.225  0.00  0.00    -0.245 OA
ATOM     32  C   UNL     1      32.547  -5.100 -24.023  0.00  0.00    +0.338 C 
BRANCH  32  33
ATOM     33  O   UNL     1      32.761  -4.884 -25.349  0.00  0.00    -0.477 OA
ATOM     34  H   UNL     1      32.388  -4.133 -25.768  0.00  0.00    +0.295 HD
ENDBRANCH  32  33
ENDBRANCH  24  32
ENDBRANCH  20  21
ENDBRANCH   2  20
TORSDOF 9
ENDMDL
MODEL 9
REMARK VINA RESULT:     -10.4      9.426     14.246
REMARK  Name = 657140
REMARK  9 active torsions:
REMARK  status: ('A' for Active; 'I' for Inactive)
REMARK    1  A    between atoms: C_1  and  N_8
REMARK    2  A    between atoms: C_2  and  O_20
REMARK    3  A    between atoms: C_9  and  C_11
REMARK    4  A    between atoms: C_14  and  N_19
REMARK    5  A    between atoms: O_20  and  C_21
REMARK    6  A    between atoms: C_22  and  C_28
REMARK    7  A    between atoms: C_24  and  C_32
REMARK    8  A    between atoms: C_28  and  O_29
REMARK    9  A    between atoms: C_32  and  O_33
REMARK                            x       y       z     vdW  Elec       q    Type
REMARK                         _______ _______ _______ _____ _____    ______ ____
ROOT
ATOM      1  C   UNL     1      32.185 -10.095 -21.263  0.00  0.00    +0.086 C 
ATOM      2  C   UNL     1      32.351 -11.428 -21.598  0.00  0.00    +0.159 C 
ATOM      3  C   UNL     1      31.585  -9.719 -20.071  0.00  0.00    +0.018 C 
ATOM      4  C   UNL     1      31.902 -12.414 -20.720  0.00  0.00    +0.039 C 
ATOM      5  C   UNL     1      31.136 -10.705 -19.193  0.00  0.00    +0.001 C 
ATOM      6  C   UNL     1      31.296 -12.053 -19.517  0.00  0.00    +0.003 C 
ENDROOT
BRANCH   1   8
ATOM      7  O   UNL     1      33.431  -7.431 -20.677  0.00  0.00    -0.270 OA
ATOM      8  N   UNL     1      32.636  -9.081 -22.144  0.00  0.00    -0.278 N 
ATOM      9  C   UNL     1      33.215  -7.844 -21.827  0.00  0.00    +0.250 C 
ATOM     10  H   UNL     1      32.528  -9.270 -23.104  0.00  0.00    +0.155 HD
BRANCH   9  11
ATOM     11  C   UNL     1      33.553  -6.994 -22.958  0.00  0.00    +0.055 C 
ATOM     12  C   UNL     1      32.695  -5.962 -23.336  0.00  0.00    +0.029 C 
ATOM     13  C   UNL     1      34.737  -7.210 -23.663  0.00  0.00    +0.005 C 
ATOM     14  C   UNL     1      33.020  -5.146 -24.419  0.00  0.00    +0.143 C 
ATOM     15  C   UNL     1      35.063  -6.395 -24.747  0.00  0.00    +0.002 C 
ATOM     16  C   UNL     1      34.204  -5.363 -25.125  0.00  0.00    +0.024 C 
BRANCH  14  19
ATOM     17  O   UNL     1      31.279  -3.696 -23.990  0.00  0.00    -0.126 OA
ATOM     18  O   UNL     1      32.268  -3.590 -25.947  0.00  0.00    -0.126 OA
ATOM     19  N   UNL     1      32.148  -4.094 -24.804  0.00  0.00    +0.058 N 
ENDBRANCH  14  19
ENDBRANCH   9  11
ENDBRANCH   1   8
BRANCH   2  20
ATOM     20  O   UNL     1      32.942 -11.802 -22.768  0.00  0.00    -0.452 OA
BRANCH  20  21
ATOM     21  C   UNL     1      33.464 -13.083 -22.842  0.00  0.00    +0.146 C 
ATOM     22  C   UNL     1      34.050 -15.008 -24.143  0.00  0.00    +0.085 C 
ATOM     23  C   UNL     1      33.523 -13.718 -24.069  0.00  0.00    +0.044 C 
ATOM     24  C   UNL     1      34.508 -15.641 -22.988  0.00  0.00    +0.082 C 
ATOM     25  C   UNL     1      33.914 -13.694 -21.685  0.00  0.00    +0.038 C 
ATOM     26  C   UNL     1      34.440 -14.984 -21.759  0.00  0.00    +0.010 C 
BRANCH  22  28
ATOM     27  O   UNL     1      33.239 -15.595 -26.315  0.00  0.00    -0.245 OA
ATOM     28  C   UNL     1      34.107 -15.667 -25.441  0.00  0.00    +0.338 C 
BRANCH  28  29
ATOM     29  O   UNL     1      35.245 -16.392 -25.605  0.00  0.00    -0.477 OA
ATOM     30  H   UNL     1      35.827 -16.520 -24.882  0.00  0.00    +0.295 HD
ENDBRANCH  28  29
ENDBRANCH  22  28
BRANCH  24  32
ATOM     31  O   UNL     1      34.460 -17.995 -23.412  0.00  0.00    -0.245 OA
ATOM     32  C   UNL     1      35.062 -16.987 -23.031  0.00  0.00    +0.338 C 
BRANCH  32  33
ATOM     33  O   UNL     1      36.351 -17.031 -22.597  0.00  0.00    -0.477 OA
ATOM     34  H   UNL     1      37.055 -16.957 -23.211  0.00  0.00    +0.295 HD
ENDBRANCH  32  33
ENDBRANCH  24  32
ENDBRANCH  20  21
ENDBRANCH   2  20
TORSDOF 9
ENDMDL
