MODEL 1
REMARK VINA RESULT:     -11.2      0.000      0.000
REMARK  Name = 6918248
REMARK  5 active torsions:
REMARK  status: ('A' for Active; 'I' for Inactive)
REMARK    1  A    between atoms: N_1  and  C_18
REMARK    2  A    between atoms: N_2  and  C_8
REMARK    3  A    between atoms: C_11  and  C_17
REMARK    4  A    between atoms: C_18  and  C_19
REMARK    5  A    between atoms: C_19  and  N_21
REMARK                            x       y       z     vdW  Elec       q    Type
REMARK                         _______ _______ _______ _____ _____    ______ ____
ROOT
ATOM      1  N   UNL     1      34.438 -16.149 -22.275  0.00  0.00    +0.391 N 
ATOM      2  N   UNL     1      33.257 -13.673 -21.477  0.00  0.00    -0.312 N 
ATOM      3  C   UNL     1      34.414 -15.760 -20.860  0.00  0.00    -0.055 C 
ATOM      4  C   UNL     1      34.572 -14.954 -23.119  0.00  0.00    -0.055 C 
ATOM      5  C   UNL     1      33.239 -14.825 -20.567  0.00  0.00    +0.068 C 
ATOM      6  C   UNL     1      33.402 -13.993 -22.900  0.00  0.00    +0.068 C 
ATOM      7  H   UNL     1      33.559 -16.615 -22.504  0.00  0.00    -0.079 HD
ENDROOT
BRANCH   2   8
ATOM      8  C   UNL     1      32.567 -12.519 -21.091  0.00  0.00    +0.048 C 
ATOM      9  C   UNL     1      32.585 -11.359 -21.891  0.00  0.00    +0.018 C 
ATOM     10  C   UNL     1      31.830 -12.483 -19.890  0.00  0.00    +0.015 C 
ATOM     11  C   UNL     1      31.895 -10.210 -21.505  0.00  0.00    +0.073 C 
ATOM     12  C   UNL     1      31.139 -11.334 -19.505  0.00  0.00    +0.001 C 
ATOM     13  C   UNL     1      31.173 -10.196 -20.312  0.00  0.00    +0.004 C 
BRANCH  11  17
ATOM     14  F   UNL     1      32.639  -9.163 -23.523  0.00  0.00    -0.166 F 
ATOM     15  F   UNL     1      30.695  -8.570 -22.765  0.00  0.00    -0.166 F 
ATOM     16  F   UNL     1      32.502  -7.923 -21.742  0.00  0.00    -0.166 F 
ATOM     17  C   UNL     1      31.931  -8.994 -22.367  0.00  0.00    +0.419 C 
ENDBRANCH  11  17
ENDBRANCH   2   8
BRANCH   1  18
ATOM     18  C   UNL     1      35.532 -17.085 -22.533  0.00  0.00    -0.052 C 
BRANCH  18  19
ATOM     19  C   UNL     1      35.014 -18.515 -22.542  0.00  0.00    +0.088 C 
BRANCH  19  21
ATOM     20  O   UNL     1      37.898 -18.678 -21.669  0.00  0.00    -0.247 OA
ATOM     21  N   UNL     1      35.607 -19.290 -21.486  0.00  0.00    -0.282 N 
ATOM     22  N   UNL     1      37.109 -20.209 -20.049  0.00  0.00    -0.305 N 
ATOM     23  C   UNL     1      34.918 -20.159 -20.624  0.00  0.00    +0.079 A 
ATOM     24  C   UNL     1      36.990 -19.305 -21.144  0.00  0.00    +0.328 A 
ATOM     25  C   UNL     1      35.845 -20.718 -19.746  0.00  0.00    +0.076 A 
ATOM     26  C   UNL     1      33.578 -20.482 -20.559  0.00  0.00    +0.019 C 
ATOM     27  C   UNL     1      35.487 -21.619 -18.767  0.00  0.00    +0.019 C 
ATOM     28  C   UNL     1      33.190 -21.395 -19.573  0.00  0.00    +0.002 C 
ATOM     29  C   UNL     1      34.133 -21.957 -18.687  0.00  0.00    +0.002 C 
ATOM     30  H   UNL     1      37.945 -20.437 -19.583  0.00  0.00    +0.170 HD
ENDBRANCH  19  21
ENDBRANCH  18  19
ENDBRANCH   1  18
TORSDOF 5
ENDMDL
MODEL 2
REMARK VINA RESULT:     -11.2      5.241     10.690
REMARK  Name = 6918248
REMARK  5 active torsions:
REMARK  status: ('A' for Active; 'I' for Inactive)
REMARK    1  A    between atoms: N_1  and  C_18
REMARK    2  A    between atoms: N_2  and  C_8
REMARK    3  A    between atoms: C_11  and  C_17
REMARK    4  A    between atoms: C_18  and  C_19
REMARK    5  A    between atoms: C_19  and  N_21
REMARK                            x       y       z     vdW  Elec       q    Type
REMARK                         _______ _______ _______ _____ _____    ______ ____
ROOT
ATOM      1  N   UNL     1      32.458 -10.612 -21.870  0.00  0.00    +0.391 N 
ATOM      2  N   UNL     1      33.307 -13.108 -22.972  0.00  0.00    -0.312 N 
ATOM      3  C   UNL     1      31.769 -11.857 -21.507  0.00  0.00    -0.055 C 
ATOM      4  C   UNL     1      32.930 -10.690 -23.258  0.00  0.00    -0.055 C 
ATOM      5  C   UNL     1      32.706 -13.060 -21.632  0.00  0.00    +0.068 C 
ATOM      6  C   UNL     1      33.905 -11.855 -23.442  0.00  0.00    +0.068 C 
ATOM      7  H   UNL     1      33.263 -10.489 -21.255  0.00  0.00    -0.079 HD
ENDROOT
BRANCH   2   8
ATOM      8  C   UNL     1      33.813 -14.332 -23.422  0.00  0.00    +0.048 C 
ATOM      9  C   UNL     1      34.323 -15.284 -22.517  0.00  0.00    +0.018 C 
ATOM     10  C   UNL     1      33.827 -14.650 -24.795  0.00  0.00    +0.015 C 
ATOM     11  C   UNL     1      34.826 -16.504 -22.966  0.00  0.00    +0.073 C 
ATOM     12  C   UNL     1      34.330 -15.871 -25.244  0.00  0.00    +0.001 C 
ATOM     13  C   UNL     1      34.831 -16.798 -24.330  0.00  0.00    +0.004 C 
BRANCH  11  17
ATOM     14  F   UNL     1      34.656 -18.664 -21.953  0.00  0.00    -0.166 F 
ATOM     15  F   UNL     1      36.652 -17.866 -22.239  0.00  0.00    -0.166 F 
ATOM     16  F   UNL     1      35.357 -17.025 -20.708  0.00  0.00    -0.166 F 
ATOM     17  C   UNL     1      35.362 -17.495 -21.990  0.00  0.00    +0.419 C 
ENDBRANCH  11  17
ENDBRANCH   2   8
BRANCH   1  18
ATOM     18  C   UNL     1      31.569  -9.464 -21.693  0.00  0.00    -0.052 C 
BRANCH  18  19
ATOM     19  C   UNL     1      32.354  -8.261 -21.192  0.00  0.00    +0.088 C 
BRANCH  19  21
ATOM     20  O   UNL     1      30.239  -6.196 -21.805  0.00  0.00    -0.247 OA
ATOM     21  N   UNL     1      32.364  -7.203 -22.166  0.00  0.00    -0.282 N 
ATOM     22  N   UNL     1      31.762  -5.418 -23.437  0.00  0.00    -0.305 N 
ATOM     23  C   UNL     1      33.413  -6.922 -23.056  0.00  0.00    +0.079 A 
ATOM     24  C   UNL     1      31.312  -6.268 -22.387  0.00  0.00    +0.328 A 
ATOM     25  C   UNL     1      33.037  -5.828 -23.832  0.00  0.00    +0.076 A 
ATOM     26  C   UNL     1      34.635  -7.541 -23.227  0.00  0.00    +0.019 C 
ATOM     27  C   UNL     1      33.852  -5.298 -24.808  0.00  0.00    +0.019 C 
ATOM     28  C   UNL     1      35.480  -7.021 -24.212  0.00  0.00    +0.002 C 
ATOM     29  C   UNL     1      35.093  -5.913 -24.994  0.00  0.00    +0.002 C 
ATOM     30  H   UNL     1      31.258  -4.666 -23.821  0.00  0.00    +0.170 HD
ENDBRANCH  19  21
ENDBRANCH  18  19
ENDBRANCH   1  18
TORSDOF 5
ENDMDL
MODEL 3
REMARK VINA RESULT:     -11.1      2.943      4.583
REMARK  Name = 6918248
REMARK  5 active torsions:
REMARK  status: ('A' for Active; 'I' for Inactive)
REMARK    1  A    between atoms: N_1  and  C_18
REMARK    2  A    between atoms: N_2  and  C_8
REMARK    3  A    between atoms: C_11  and  C_17
REMARK    4  A    between atoms: C_18  and  C_19
REMARK    5  A    between atoms: C_19  and  N_21
REMARK                            x       y       z     vdW  Elec       q    Type
REMARK                         _______ _______ _______ _____ _____    ______ ____
ROOT
ATOM      1  N   UNL     1      32.424 -12.689 -22.237  0.00  0.00    +0.391 N 
ATOM      2  N   UNL     1      32.500  -9.836 -22.092  0.00  0.00    -0.312 N 
ATOM      3  C   UNL     1      31.947 -11.994 -21.036  0.00  0.00    -0.055 C 
ATOM      4  C   UNL     1      33.538 -11.943 -22.836  0.00  0.00    -0.055 C 
ATOM      5  C   UNL     1      31.459 -10.583 -21.374  0.00  0.00    +0.068 C 
ATOM      6  C   UNL     1      33.104 -10.531 -23.234  0.00  0.00    +0.068 C 
ATOM      7  H   UNL     1      31.662 -12.739 -22.914  0.00  0.00    -0.079 HD
ENDROOT
BRANCH   2   8
ATOM      8  C   UNL     1      32.428  -8.439 -22.087  0.00  0.00    +0.048 C 
ATOM      9  C   UNL     1      32.861  -7.686 -23.197  0.00  0.00    +0.018 C 
ATOM     10  C   UNL     1      31.920  -7.743 -20.973  0.00  0.00    +0.015 C 
ATOM     11  C   UNL     1      32.788  -6.293 -23.191  0.00  0.00    +0.073 C 
ATOM     12  C   UNL     1      31.846  -6.350 -20.967  0.00  0.00    +0.001 C 
ATOM     13  C   UNL     1      32.281  -5.624 -22.076  0.00  0.00    +0.004 C 
BRANCH  11  17
ATOM     14  F   UNL     1      32.795  -6.007 -25.566  0.00  0.00    -0.166 F 
ATOM     15  F   UNL     1      32.868  -4.207 -24.358  0.00  0.00    -0.166 F 
ATOM     16  F   UNL     1      34.614  -5.496 -24.489  0.00  0.00    -0.166 F 
ATOM     17  C   UNL     1      33.254  -5.517 -24.376  0.00  0.00    +0.419 C 
ENDBRANCH  11  17
ENDBRANCH   2   8
BRANCH   1  18
ATOM     18  C   UNL     1      32.836 -14.054 -21.911  0.00  0.00    -0.052 C 
BRANCH  18  19
ATOM     19  C   UNL     1      34.304 -14.259 -22.255  0.00  0.00    +0.088 C 
BRANCH  19  21
ATOM     20  O   UNL     1      34.057 -14.684 -25.233  0.00  0.00    -0.247 OA
ATOM     21  N   UNL     1      34.495 -15.457 -23.026  0.00  0.00    -0.282 N 
ATOM     22  N   UNL     1      34.638 -16.925 -24.755  0.00  0.00    -0.305 N 
ATOM     23  C   UNL     1      34.851 -16.714 -22.509  0.00  0.00    +0.079 A 
ATOM     24  C   UNL     1      34.356 -15.565 -24.440  0.00  0.00    +0.328 A 
ATOM     25  C   UNL     1      34.936 -17.608 -23.574  0.00  0.00    +0.076 A 
ATOM     26  C   UNL     1      35.096 -17.113 -21.211  0.00  0.00    +0.019 C 
ATOM     27  C   UNL     1      35.268 -18.934 -23.402  0.00  0.00    +0.019 C 
ATOM     28  C   UNL     1      35.435 -18.455 -21.011  0.00  0.00    +0.002 C 
ATOM     29  C   UNL     1      35.520 -19.356 -22.093  0.00  0.00    +0.002 C 
ATOM     30  H   UNL     1      34.626 -17.319 -25.656  0.00  0.00    +0.170 HD
ENDBRANCH  19  21
ENDBRANCH  18  19
ENDBRANCH   1  18
TORSDOF 5
ENDMDL
MODEL 4
REMARK VINA RESULT:     -11.1      5.953     10.124
REMARK  Name = 6918248
REMARK  5 active torsions:
REMARK  status: ('A' for Active; 'I' for Inactive)
REMARK    1  A    between atoms: N_1  and  C_18
REMARK    2  A    between atoms: N_2  and  C_8
REMARK    3  A    between atoms: C_11  and  C_17
REMARK    4  A    between atoms: C_18  and  C_19
REMARK    5  A    between atoms: C_19  and  N_21
REMARK                            x       y       z     vdW  Elec       q    Type
REMARK                         _______ _______ _______ _____ _____    ______ ____
ROOT
ATOM      1  N   UNL     1      34.975 -19.887 -21.642  0.00  0.00    +0.391 N 
ATOM      2  N   UNL     1      34.981 -21.271 -19.143  0.00  0.00    -0.312 N 
ATOM      3  C   UNL     1      36.178 -19.895 -20.800  0.00  0.00    -0.055 C 
ATOM      4  C   UNL     1      33.774 -19.901 -20.797  0.00  0.00    -0.055 C 
ATOM      5  C   UNL     1      36.222 -21.143 -19.917  0.00  0.00    +0.068 C 
ATOM      6  C   UNL     1      33.739 -21.149 -19.913  0.00  0.00    +0.068 C 
ATOM      7  H   UNL     1      34.976 -20.724 -22.226  0.00  0.00    -0.079 HD
ENDROOT
BRANCH   2   8
ATOM      8  C   UNL     1      35.006 -22.056 -17.985  0.00  0.00    +0.048 C 
ATOM      9  C   UNL     1      36.192 -22.212 -17.239  0.00  0.00    +0.018 C 
ATOM     10  C   UNL     1      33.846 -22.713 -17.528  0.00  0.00    +0.015 C 
ATOM     11  C   UNL     1      36.216 -22.994 -16.084  0.00  0.00    +0.073 C 
ATOM     12  C   UNL     1      33.870 -23.494 -16.372  0.00  0.00    +0.001 C 
ATOM     13  C   UNL     1      35.056 -23.635 -15.651  0.00  0.00    +0.004 C 
BRANCH  11  17
ATOM     14  F   UNL     1      37.744 -24.432 -14.936  0.00  0.00    -0.166 F 
ATOM     15  F   UNL     1      38.593 -22.743 -16.000  0.00  0.00    -0.166 F 
ATOM     16  F   UNL     1      37.485 -22.418 -14.158  0.00  0.00    -0.166 F 
ATOM     17  C   UNL     1      37.483 -23.145 -15.313  0.00  0.00    +0.419 C 
ENDBRANCH  11  17
ENDBRANCH   2   8
BRANCH   1  18
ATOM     18  C   UNL     1      34.971 -18.717 -22.520  0.00  0.00    -0.052 C 
BRANCH  18  19
ATOM     19  C   UNL     1      35.246 -17.454 -21.720  0.00  0.00    +0.088 C 
BRANCH  19  21
ATOM     20  O   UNL     1      35.337 -16.550 -24.599  0.00  0.00    -0.247 OA
ATOM     21  N   UNL     1      34.642 -16.305 -22.337  0.00  0.00    -0.282 N 
ATOM     22  N   UNL     1      33.990 -14.752 -23.863  0.00  0.00    -0.305 N 
ATOM     23  C   UNL     1      33.857 -15.342 -21.680  0.00  0.00    +0.079 A 
ATOM     24  C   UNL     1      34.739 -15.954 -23.715  0.00  0.00    +0.328 A 
ATOM     25  C   UNL     1      33.462 -14.394 -22.622  0.00  0.00    +0.076 A 
ATOM     26  C   UNL     1      33.480 -15.244 -20.356  0.00  0.00    +0.019 C 
ATOM     27  C   UNL     1      32.677 -13.310 -22.295  0.00  0.00    +0.019 C 
ATOM     28  C   UNL     1      32.682 -14.151 -20.001  0.00  0.00    +0.002 C 
ATOM     29  C   UNL     1      32.285 -13.195 -20.959  0.00  0.00    +0.002 C 
ATOM     30  H   UNL     1      33.864 -14.256 -24.704  0.00  0.00    +0.170 HD
ENDBRANCH  19  21
ENDBRANCH  18  19
ENDBRANCH   1  18
TORSDOF 5
ENDMDL
MODEL 5
REMARK VINA RESULT:     -10.9      3.856      6.518
REMARK  Name = 6918248
REMARK  5 active torsions:
REMARK  status: ('A' for Active; 'I' for Inactive)
REMARK    1  A    between atoms: N_1  and  C_18
REMARK    2  A    between atoms: N_2  and  C_8
REMARK    3  A    between atoms: C_11  and  C_17
REMARK    4  A    between atoms: C_18  and  C_19
REMARK    5  A    between atoms: C_19  and  N_21
REMARK                            x       y       z     vdW  Elec       q    Type
REMARK                         _______ _______ _______ _____ _____    ______ ____
ROOT
ATOM      1  N   UNL     1      35.299 -21.595 -19.414  0.00  0.00    +0.391 N 
ATOM      2  N   UNL     1      35.099 -19.210 -20.975  0.00  0.00    -0.312 N 
ATOM      3  C   UNL     1      34.031 -20.858 -19.484  0.00  0.00    -0.055 C 
ATOM      4  C   UNL     1      36.426 -20.657 -19.487  0.00  0.00    -0.055 C 
ATOM      5  C   UNL     1      33.924 -20.073 -20.793  0.00  0.00    +0.068 C 
ATOM      6  C   UNL     1      36.398 -19.865 -20.796  0.00  0.00    +0.068 C 
ATOM      7  H   UNL     1      35.353 -22.235 -20.207  0.00  0.00    -0.079 HD
ENDROOT
BRANCH   2   8
ATOM      8  C   UNL     1      34.984 -18.117 -21.840  0.00  0.00    +0.048 C 
ATOM      9  C   UNL     1      34.702 -16.827 -21.348  0.00  0.00    +0.018 C 
ATOM     10  C   UNL     1      35.148 -18.273 -23.231  0.00  0.00    +0.015 C 
ATOM     11  C   UNL     1      34.588 -15.738 -22.212  0.00  0.00    +0.073 C 
ATOM     12  C   UNL     1      35.035 -17.184 -24.095  0.00  0.00    +0.001 C 
ATOM     13  C   UNL     1      34.755 -15.916 -23.586  0.00  0.00    +0.004 C 
BRANCH  11  17
ATOM     14  F   UNL     1      32.953 -14.133 -21.525  0.00  0.00    -0.166 F 
ATOM     15  F   UNL     1      34.827 -14.157 -20.433  0.00  0.00    -0.166 F 
ATOM     16  F   UNL     1      34.765 -13.380 -22.462  0.00  0.00    -0.166 F 
ATOM     17  C   UNL     1      34.288 -14.383 -21.668  0.00  0.00    +0.419 C 
ENDBRANCH  11  17
ENDBRANCH   2   8
BRANCH   1  18
ATOM     18  C   UNL     1      35.366 -22.384 -18.185  0.00  0.00    -0.052 C 
BRANCH  18  19
ATOM     19  C   UNL     1      34.025 -23.046 -17.907  0.00  0.00    +0.088 C 
BRANCH  19  21
ATOM     20  O   UNL     1      35.977 -23.349 -15.624  0.00  0.00    -0.247 OA
ATOM     21  N   UNL     1      33.773 -23.137 -16.494  0.00  0.00    -0.282 N 
ATOM     22  N   UNL     1      34.055 -23.327 -14.247  0.00  0.00    -0.305 N 
ATOM     23  C   UNL     1      32.507 -23.099 -15.886  0.00  0.00    +0.079 A 
ATOM     24  C   UNL     1      34.765 -23.280 -15.481  0.00  0.00    +0.328 A 
ATOM     25  C   UNL     1      32.688 -23.217 -14.509  0.00  0.00    +0.076 A 
ATOM     26  C   UNL     1      31.250 -22.973 -16.439  0.00  0.00    +0.019 C 
ATOM     27  C   UNL     1      31.634 -23.214 -13.622  0.00  0.00    +0.019 C 
ATOM     28  C   UNL     1      30.163 -22.968 -15.558  0.00  0.00    +0.002 C 
ATOM     29  C   UNL     1      30.353 -23.088 -14.165  0.00  0.00    +0.002 C 
ATOM     30  H   UNL     1      34.461 -23.422 -13.356  0.00  0.00    +0.170 HD
ENDBRANCH  19  21
ENDBRANCH  18  19
ENDBRANCH   1  18
TORSDOF 5
ENDMDL
MODEL 6
REMARK VINA RESULT:     -10.9      6.224     10.264
REMARK  Name = 6918248
REMARK  5 active torsions:
REMARK  status: ('A' for Active; 'I' for Inactive)
REMARK    1  A    between atoms: N_1  and  C_18
REMARK    2  A    between atoms: N_2  and  C_8
REMARK    3  A    between atoms: C_11  and  C_17
REMARK    4  A    between atoms: C_18  and  C_19
REMARK    5  A    between atoms: C_19  and  N_21
REMARK                            x       y       z     vdW  Elec       q    Type
REMARK                         _______ _______ _______ _____ _____    ______ ____
ROOT
ATOM      1  N   UNL     1      34.902 -20.064 -21.499  0.00  0.00    +0.391 N 
ATOM      2  N   UNL     1      34.931 -21.403 -18.975  0.00  0.00    -0.312 N 
ATOM      3  C   UNL     1      36.106 -20.041 -20.660  0.00  0.00    -0.055 C 
ATOM      4  C   UNL     1      33.703 -20.079 -20.651  0.00  0.00    -0.055 C 
ATOM      5  C   UNL     1      36.169 -21.273 -19.755  0.00  0.00    +0.068 C 
ATOM      6  C   UNL     1      33.686 -21.312 -19.745  0.00  0.00    +0.068 C 
ATOM      7  H   UNL     1      34.912 -20.912 -22.068  0.00  0.00    -0.079 HD
ENDROOT
BRANCH   2   8
ATOM      8  C   UNL     1      34.969 -22.166 -17.803  0.00  0.00    +0.048 C 
ATOM      9  C   UNL     1      36.172 -22.342 -17.090  0.00  0.00    +0.018 C 
ATOM     10  C   UNL     1      33.806 -22.782 -17.300  0.00  0.00    +0.015 C 
ATOM     11  C   UNL     1      36.209 -23.103 -15.922  0.00  0.00    +0.073 C 
ATOM     12  C   UNL     1      33.843 -23.541 -16.131  0.00  0.00    +0.001 C 
ATOM     13  C   UNL     1      35.045 -23.703 -15.442  0.00  0.00    +0.004 C 
BRANCH  11  17
ATOM     14  F   UNL     1      37.785 -24.577 -14.891  0.00  0.00    -0.166 F 
ATOM     15  F   UNL     1      38.582 -22.813 -15.868  0.00  0.00    -0.166 F 
ATOM     16  F   UNL     1      37.506 -22.619 -13.989  0.00  0.00    -0.166 F 
ATOM     17  C   UNL     1      37.494 -23.276 -15.185  0.00  0.00    +0.419 C 
ENDBRANCH  11  17
ENDBRANCH   2   8
BRANCH   1  18
ATOM     18  C   UNL     1      34.881 -18.911 -22.398  0.00  0.00    -0.052 C 
BRANCH  18  19
ATOM     19  C   UNL     1      35.608 -17.734 -21.767  0.00  0.00    +0.088 C 
BRANCH  19  21
ATOM     20  O   UNL     1      34.541 -15.808 -19.702  0.00  0.00    -0.247 OA
ATOM     21  N   UNL     1      34.876 -16.511 -21.950  0.00  0.00    -0.282 N 
ATOM     22  N   UNL     1      33.745 -14.579 -21.558  0.00  0.00    -0.305 N 
ATOM     23  C   UNL     1      34.505 -15.958 -23.187  0.00  0.00    +0.079 A 
ATOM     24  C   UNL     1      34.408 -15.659 -20.908  0.00  0.00    +0.328 A 
ATOM     25  C   UNL     1      33.811 -14.775 -22.939  0.00  0.00    +0.076 A 
ATOM     26  C   UNL     1      34.725 -16.408 -24.473  0.00  0.00    +0.019 C 
ATOM     27  C   UNL     1      33.308 -13.987 -23.950  0.00  0.00    +0.019 C 
ATOM     28  C   UNL     1      34.223 -15.624 -25.517  0.00  0.00    +0.002 C 
ATOM     29  C   UNL     1      33.523 -14.427 -25.259  0.00  0.00    +0.002 C 
ATOM     30  H   UNL     1      33.311 -13.819 -21.108  0.00  0.00    +0.170 HD
ENDBRANCH  19  21
ENDBRANCH  18  19
ENDBRANCH   1  18
TORSDOF 5
ENDMDL
MODEL 7
REMARK VINA RESULT:     -10.9      6.042     10.112
REMARK  Name = 6918248
REMARK  5 active torsions:
REMARK  status: ('A' for Active; 'I' for Inactive)
REMARK    1  A    between atoms: N_1  and  C_18
REMARK    2  A    between atoms: N_2  and  C_8
REMARK    3  A    between atoms: C_11  and  C_17
REMARK    4  A    between atoms: C_18  and  C_19
REMARK    5  A    between atoms: C_19  and  N_21
REMARK                            x       y       z     vdW  Elec       q    Type
REMARK                         _______ _______ _______ _____ _____    ______ ____
ROOT
ATOM      1  N   UNL     1      35.020 -20.060 -21.701  0.00  0.00    +0.391 N 
ATOM      2  N   UNL     1      35.651 -21.082 -19.108  0.00  0.00    -0.312 N 
ATOM      3  C   UNL     1      36.219 -19.597 -20.992  0.00  0.00    -0.055 C 
ATOM      4  C   UNL     1      33.952 -20.354 -20.736  0.00  0.00    -0.055 C 
ATOM      5  C   UNL     1      36.726 -20.661 -20.016  0.00  0.00    +0.068 C 
ATOM      6  C   UNL     1      34.384 -21.443 -19.752  0.00  0.00    +0.068 C 
ATOM      7  H   UNL     1      35.247 -20.916 -22.209  0.00  0.00    -0.079 HD
ENDROOT
BRANCH   2   8
ATOM      8  C   UNL     1      36.011 -21.683 -17.897  0.00  0.00    +0.048 C 
ATOM      9  C   UNL     1      35.094 -22.477 -17.180  0.00  0.00    +0.018 C 
ATOM     10  C   UNL     1      37.302 -21.514 -17.359  0.00  0.00    +0.015 C 
ATOM     11  C   UNL     1      35.454 -23.077 -15.973  0.00  0.00    +0.073 C 
ATOM     12  C   UNL     1      37.663 -22.114 -16.153  0.00  0.00    +0.001 C 
ATOM     13  C   UNL     1      36.738 -22.895 -15.459  0.00  0.00    +0.004 C 
BRANCH  11  17
ATOM     14  F   UNL     1      34.243 -23.489 -13.952  0.00  0.00    -0.166 F 
ATOM     15  F   UNL     1      33.233 -23.948 -15.815  0.00  0.00    -0.166 F 
ATOM     16  F   UNL     1      34.857 -25.216 -15.122  0.00  0.00    -0.166 F 
ATOM     17  C   UNL     1      34.467 -23.912 -15.231  0.00  0.00    +0.419 C 
ENDBRANCH  11  17
ENDBRANCH   2   8
BRANCH   1  18
ATOM     18  C   UNL     1      34.576 -19.058 -22.669  0.00  0.00    -0.052 C 
BRANCH  18  19
ATOM     19  C   UNL     1      35.542 -17.883 -22.694  0.00  0.00    +0.088 C 
BRANCH  19  21
ATOM     20  O   UNL     1      35.022 -16.774 -25.453  0.00  0.00    -0.247 OA
ATOM     21  N   UNL     1      34.875 -16.669 -23.080  0.00  0.00    -0.282 N 
ATOM     22  N   UNL     1      33.977 -14.985 -24.314  0.00  0.00    -0.305 N 
ATOM     23  C   UNL     1      34.315 -15.729 -22.201  0.00  0.00    +0.079 A 
ATOM     24  C   UNL     1      34.675 -16.223 -24.418  0.00  0.00    +0.328 A 
ATOM     25  C   UNL     1      33.767 -14.700 -22.964  0.00  0.00    +0.076 A 
ATOM     26  C   UNL     1      34.255 -15.714 -20.822  0.00  0.00    +0.019 C 
ATOM     27  C   UNL     1      33.136 -13.614 -22.397  0.00  0.00    +0.019 C 
ATOM     28  C   UNL     1      33.620 -14.621 -20.224  0.00  0.00    +0.002 C 
ATOM     29  C   UNL     1      33.067 -13.583 -21.002  0.00  0.00    +0.002 C 
ATOM     30  H   UNL     1      33.690 -14.424 -25.070  0.00  0.00    +0.170 HD
ENDBRANCH  19  21
ENDBRANCH  18  19
ENDBRANCH   1  18
TORSDOF 5
ENDMDL
MODEL 8
REMARK VINA RESULT:     -10.9      3.117      5.520
REMARK  Name = 6918248
REMARK  5 active torsions:
REMARK  status: ('A' for Active; 'I' for Inactive)
REMARK    1  A    between atoms: N_1  and  C_18
REMARK    2  A    between atoms: N_2  and  C_8
REMARK    3  A    between atoms: C_11  and  C_17
REMARK    4  A    between atoms: C_18  and  C_19
REMARK    5  A    between atoms: C_19  and  N_21
REMARK                            x       y       z     vdW  Elec       q    Type
REMARK                         _______ _______ _______ _____ _____    ______ ____
ROOT
ATOM      1  N   UNL     1      36.278 -20.515 -20.290  0.00  0.00    +0.391 N 
ATOM      2  N   UNL     1      35.436 -18.272 -21.847  0.00  0.00    -0.312 N 
ATOM      3  C   UNL     1      34.852 -20.188 -20.411  0.00  0.00    -0.055 C 
ATOM      4  C   UNL     1      37.076 -19.282 -20.311  0.00  0.00    -0.055 C 
ATOM      5  C   UNL     1      34.566 -19.449 -21.720  0.00  0.00    +0.068 C 
ATOM      6  C   UNL     1      36.863 -18.512 -21.616  0.00  0.00    +0.068 C 
ATOM      7  H   UNL     1      36.552 -21.096 -21.083  0.00  0.00    -0.079 HD
ENDROOT
BRANCH   2   8
ATOM      8  C   UNL     1      35.034 -17.249 -22.712  0.00  0.00    +0.048 C 
ATOM      9  C   UNL     1      34.581 -16.012 -22.213  0.00  0.00    +0.018 C 
ATOM     10  C   UNL     1      35.071 -17.424 -24.110  0.00  0.00    +0.015 C 
ATOM     11  C   UNL     1      34.181 -14.992 -23.076  0.00  0.00    +0.073 C 
ATOM     12  C   UNL     1      34.672 -16.404 -24.973  0.00  0.00    +0.001 C 
ATOM     13  C   UNL     1      34.226 -15.188 -24.456  0.00  0.00    +0.004 C 
BRANCH  11  17
ATOM     14  F   UNL     1      32.365 -13.481 -22.696  0.00  0.00    -0.166 F 
ATOM     15  F   UNL     1      33.915 -13.557 -21.181  0.00  0.00    -0.166 F 
ATOM     16  F   UNL     1      34.319 -12.618 -23.100  0.00  0.00    -0.166 F 
ATOM     17  C   UNL     1      33.704 -13.691 -22.524  0.00  0.00    +0.419 C 
ENDBRANCH  11  17
ENDBRANCH   2   8
BRANCH   1  18
ATOM     18  C   UNL     1      36.530 -21.269 -19.062  0.00  0.00    -0.052 C 
BRANCH  18  19
ATOM     19  C   UNL     1      35.394 -22.246 -18.799  0.00  0.00    +0.088 C 
BRANCH  19  21
ATOM     20  O   UNL     1      37.510 -22.318 -16.647  0.00  0.00    -0.247 OA
ATOM     21  N   UNL     1      35.260 -22.522 -17.395  0.00  0.00    -0.282 N 
ATOM     22  N   UNL     1      35.723 -22.854 -15.194  0.00  0.00    -0.305 N 
ATOM     23  C   UNL     1      34.059 -22.825 -16.732  0.00  0.00    +0.079 A 
ATOM     24  C   UNL     1      36.324 -22.534 -16.446  0.00  0.00    +0.328 A 
ATOM     25  C   UNL     1      34.351 -23.027 -15.384  0.00  0.00    +0.076 A 
ATOM     26  C   UNL     1      32.771 -22.932 -17.215  0.00  0.00    +0.019 C 
ATOM     27  C   UNL     1      33.382 -23.343 -14.457  0.00  0.00    +0.019 C 
ATOM     28  C   UNL     1      31.770 -23.252 -16.292  0.00  0.00    +0.002 C 
ATOM     29  C   UNL     1      32.072 -23.455 -14.929  0.00  0.00    +0.002 C 
ATOM     30  H   UNL     1      36.198 -22.939 -14.336  0.00  0.00    +0.170 HD
ENDBRANCH  19  21
ENDBRANCH  18  19
ENDBRANCH   1  18
TORSDOF 5
ENDMDL
MODEL 9
REMARK VINA RESULT:     -10.8      5.791      9.780
REMARK  Name = 6918248
REMARK  5 active torsions:
REMARK  status: ('A' for Active; 'I' for Inactive)
REMARK    1  A    between atoms: N_1  and  C_18
REMARK    2  A    between atoms: N_2  and  C_8
REMARK    3  A    between atoms: C_11  and  C_17
REMARK    4  A    between atoms: C_18  and  C_19
REMARK    5  A    between atoms: C_19  and  N_21
REMARK                            x       y       z     vdW  Elec       q    Type
REMARK                         _______ _______ _______ _____ _____    ______ ____
ROOT
ATOM      1  N   UNL     1      34.644 -19.720 -21.259  0.00  0.00    +0.391 N 
ATOM      2  N   UNL     1      34.174 -21.485 -19.062  0.00  0.00    -0.312 N 
ATOM      3  C   UNL     1      33.309 -20.288 -21.035  0.00  0.00    -0.055 C 
ATOM      4  C   UNL     1      35.672 -20.684 -20.846  0.00  0.00    -0.055 C 
ATOM      5  C   UNL     1      33.094 -20.622 -19.558  0.00  0.00    +0.068 C 
ATOM      6  C   UNL     1      35.535 -21.031 -19.362  0.00  0.00    +0.068 C 
ATOM      7  H   UNL     1      34.741 -18.874 -20.695  0.00  0.00    -0.079 HD
ENDROOT
BRANCH   2   8
ATOM      8  C   UNL     1      33.933 -22.246 -17.913  0.00  0.00    +0.048 C 
ATOM      9  C   UNL     1      32.622 -22.442 -17.434  0.00  0.00    +0.018 C 
ATOM     10  C   UNL     1      34.993 -22.842 -17.201  0.00  0.00    +0.015 C 
ATOM     11  C   UNL     1      32.382 -23.201 -16.289  0.00  0.00    +0.073 C 
ATOM     12  C   UNL     1      34.753 -23.602 -16.057  0.00  0.00    +0.001 C 
ATOM     13  C   UNL     1      33.447 -23.781 -15.600  0.00  0.00    +0.004 C 
BRANCH  11  17
ATOM     14  F   UNL     1      30.602 -24.702 -15.742  0.00  0.00    -0.166 F 
ATOM     15  F   UNL     1      30.776 -22.903 -14.543  0.00  0.00    -0.166 F 
ATOM     16  F   UNL     1      30.063 -22.775 -16.593  0.00  0.00    -0.166 F 
ATOM     17  C   UNL     1      30.987 -23.393 -15.800  0.00  0.00    +0.419 C 
ENDBRANCH  11  17
ENDBRANCH   2   8
BRANCH   1  18
ATOM     18  C   UNL     1      34.817 -19.354 -22.664  0.00  0.00    -0.052 C 
BRANCH  18  19
ATOM     19  C   UNL     1      35.744 -18.154 -22.788  0.00  0.00    +0.088 C 
BRANCH  19  21
ATOM     20  O   UNL     1      34.975 -17.088 -25.505  0.00  0.00    -0.247 OA
ATOM     21  N   UNL     1      35.012 -16.964 -23.129  0.00  0.00    -0.282 N 
ATOM     22  N   UNL     1      33.969 -15.320 -24.301  0.00  0.00    -0.305 N 
ATOM     23  C   UNL     1      34.494 -16.032 -22.215  0.00  0.00    +0.079 A 
ATOM     24  C   UNL     1      34.693 -16.537 -24.451  0.00  0.00    +0.328 A 
ATOM     25  C   UNL     1      33.856 -15.027 -22.940  0.00  0.00    +0.076 A 
ATOM     26  C   UNL     1      34.542 -16.006 -20.837  0.00  0.00    +0.019 C 
ATOM     27  C   UNL     1      33.239 -13.955 -22.334  0.00  0.00    +0.019 C 
ATOM     28  C   UNL     1      33.923 -14.927 -20.198  0.00  0.00    +0.002 C 
ATOM     29  C   UNL     1      33.279 -13.913 -20.938  0.00  0.00    +0.002 C 
ATOM     30  H   UNL     1      33.606 -14.775 -25.036  0.00  0.00    +0.170 HD
ENDBRANCH  19  21
ENDBRANCH  18  19
ENDBRANCH   1  18
TORSDOF 5
ENDMDL
