MODEL 1
REMARK VINA RESULT:     -11.8      0.000      0.000
REMARK  Name = 24871491
REMARK  6 active torsions:
REMARK  status: ('A' for Active; 'I' for Inactive)
REMARK    1  A    between atoms: N_1  and  C_11
REMARK    2  A    between atoms: N_2  and  C_18
REMARK    3  A    between atoms: C_6  and  C_31
REMARK    4  A    between atoms: C_19  and  C_24
REMARK    5  A    between atoms: C_24  and  C_26
REMARK    6  A    between atoms: C_26  and  O_27
REMARK                            x       y       z     vdW  Elec       q    Type
REMARK                         _______ _______ _______ _____ _____    ______ ____
ROOT
ATOM      1  N   UNL     1      32.946 -23.395 -16.846  0.00  0.00    -0.287 N 
ATOM      2  N   UNL     1      34.553 -24.715 -12.615  0.00  0.00    -0.247 N 
ATOM      3  N   UNL     1      33.766 -24.059 -14.724  0.00  0.00    -0.322 NA
ATOM      4  N   UNL     1      32.247 -24.401 -12.886  0.00  0.00    -0.169 NA
ATOM      5  C   UNL     1      32.705 -23.739 -15.493  0.00  0.00    +0.202 C 
ATOM      6  C   UNL     1      31.403 -23.727 -15.036  0.00  0.00    +0.118 C 
ATOM      7  C   UNL     1      33.469 -24.376 -13.449  0.00  0.00    +0.150 C 
ATOM      8  C   UNL     1      31.231 -24.071 -13.711  0.00  0.00    +0.120 C 
ATOM      9  H   UNL     1      32.203 -23.621 -17.451  0.00  0.00    +0.155 HD
ATOM     10  H   UNL     1      34.289 -24.937 -11.694  0.00  0.00    +0.165 HD
ENDROOT
BRANCH   1  11
ATOM     11  C   UNL     1      34.039 -22.794 -17.491  0.00  0.00    +0.050 C 
ATOM     12  C   UNL     1      35.240 -22.612 -16.805  0.00  0.00    +0.010 C 
ATOM     13  C   UNL     1      36.325 -22.016 -17.447  0.00  0.00    -0.021 C 
ATOM     14  C   UNL     1      33.924 -22.381 -18.818  0.00  0.00    +0.015 C 
ATOM     15  C   UNL     1      36.211 -21.602 -18.773  0.00  0.00    -0.004 C 
ATOM     16  C   UNL     1      35.010 -21.783 -19.459  0.00  0.00    +0.001 C 
ATOM     17  C   UNL     1      37.609 -21.820 -16.713  0.00  0.00    +0.031 C 
ENDBRANCH   1  11
BRANCH   2  18
ATOM     18  C   UNL     1      35.942 -24.798 -12.842  0.00  0.00    +0.058 C 
ATOM     19  C   UNL     1      38.690 -24.963 -13.291  0.00  0.00    -0.011 C 
ATOM     20  C   UNL     1      36.573 -23.858 -13.655  0.00  0.00    +0.015 C 
ATOM     21  C   UNL     1      36.685 -25.822 -12.253  0.00  0.00    +0.015 C 
ATOM     22  C   UNL     1      37.948 -23.940 -13.880  0.00  0.00    -0.002 C 
ATOM     23  C   UNL     1      38.059 -25.904 -12.477  0.00  0.00    -0.002 C 
BRANCH  19  24
ATOM     24  C   UNL     1      40.160 -25.051 -13.530  0.00  0.00    +0.136 C 
BRANCH  24  26
ATOM     25  O   UNL     1      41.050 -27.232 -14.147  0.00  0.00    -0.250 OA
ATOM     26  C   UNL     1      40.552 -26.165 -14.480  0.00  0.00    +0.318 C 
BRANCH  26  27
ATOM     27  O   UNL     1      40.286 -25.844 -15.775  0.00  0.00    -0.480 OA
ATOM     28  H   UNL     1      39.665 -25.171 -15.972  0.00  0.00    +0.295 HD
ENDBRANCH  26  27
ENDBRANCH  24  26
ENDBRANCH  19  24
ENDBRANCH   2  18
BRANCH   6  31
ATOM     29  O   UNL     1      30.305 -22.446 -16.681  0.00  0.00    -0.270 OA
ATOM     30  N   UNL     1      29.106 -24.152 -15.727  0.00  0.00    -0.325 N 
ATOM     31  C   UNL     1      30.258 -23.383 -15.864  0.00  0.00    +0.248 C 
ATOM     32  H   UNL     1      28.310 -23.948 -16.271  0.00  0.00    +0.145 HD
ATOM     33  H   UNL     1      29.086 -24.899 -15.086  0.00  0.00    +0.145 HD
ENDBRANCH   6  31
TORSDOF 6
ENDMDL
MODEL 2
REMARK VINA RESULT:     -11.4      2.170      7.491
REMARK  Name = 24871491
REMARK  6 active torsions:
REMARK  status: ('A' for Active; 'I' for Inactive)
REMARK    1  A    between atoms: N_1  and  C_11
REMARK    2  A    between atoms: N_2  and  C_18
REMARK    3  A    between atoms: C_6  and  C_31
REMARK    4  A    between atoms: C_19  and  C_24
REMARK    5  A    between atoms: C_24  and  C_26
REMARK    6  A    between atoms: C_26  and  O_27
REMARK                            x       y       z     vdW  Elec       q    Type
REMARK                         _______ _______ _______ _____ _____    ______ ____
ROOT
ATOM      1  N   UNL     1      35.627 -22.611 -15.298  0.00  0.00    -0.287 N 
ATOM      2  N   UNL     1      31.779 -24.511 -13.346  0.00  0.00    -0.247 N 
ATOM      3  N   UNL     1      33.684 -23.561 -14.326  0.00  0.00    -0.322 NA
ATOM      4  N   UNL     1      33.832 -24.771 -12.248  0.00  0.00    -0.169 NA
ATOM      5  C   UNL     1      35.015 -23.348 -14.255  0.00  0.00    +0.202 C 
ATOM      6  C   UNL     1      35.811 -23.810 -13.225  0.00  0.00    +0.118 C 
ATOM      7  C   UNL     1      33.166 -24.269 -13.304  0.00  0.00    +0.150 C 
ATOM      8  C   UNL     1      35.159 -24.521 -12.239  0.00  0.00    +0.120 C 
ATOM      9  H   UNL     1      36.417 -22.099 -15.012  0.00  0.00    +0.155 HD
ATOM     10  H   UNL     1      31.445 -25.031 -12.581  0.00  0.00    +0.165 HD
ENDROOT
BRANCH   1  11
ATOM     11  C   UNL     1      35.323 -22.467 -16.661  0.00  0.00    +0.050 C 
ATOM     12  C   UNL     1      36.225 -21.829 -17.513  0.00  0.00    +0.010 C 
ATOM     13  C   UNL     1      35.923 -21.687 -18.867  0.00  0.00    -0.021 C 
ATOM     14  C   UNL     1      34.120 -22.962 -17.164  0.00  0.00    +0.015 C 
ATOM     15  C   UNL     1      34.721 -22.183 -19.370  0.00  0.00    -0.004 C 
ATOM     16  C   UNL     1      33.818 -22.819 -18.518  0.00  0.00    +0.001 C 
ATOM     17  C   UNL     1      36.887 -21.005 -19.778  0.00  0.00    +0.031 C 
ENDBRANCH   1  11
BRANCH   2  18
ATOM     18  C   UNL     1      30.774 -24.153 -14.269  0.00  0.00    +0.058 C 
ATOM     19  C   UNL     1      28.788 -23.447 -16.095  0.00  0.00    -0.011 C 
ATOM     20  C   UNL     1      29.977 -25.139 -14.848  0.00  0.00    +0.015 C 
ATOM     21  C   UNL     1      30.580 -22.813 -14.604  0.00  0.00    +0.015 C 
ATOM     22  C   UNL     1      28.983 -24.786 -15.761  0.00  0.00    -0.002 C 
ATOM     23  C   UNL     1      29.586 -22.460 -15.517  0.00  0.00    -0.002 C 
BRANCH  19  24
ATOM     24  C   UNL     1      27.725 -23.069 -17.072  0.00  0.00    +0.136 C 
BRANCH  24  26
ATOM     25  O   UNL     1      26.009 -22.293 -15.529  0.00  0.00    -0.250 OA
ATOM     26  C   UNL     1      26.709 -22.093 -16.512  0.00  0.00    +0.318 C 
BRANCH  26  27
ATOM     27  O   UNL     1      26.657 -20.945 -17.238  0.00  0.00    -0.480 OA
ATOM     28  H   UNL     1      26.480 -20.130 -16.812  0.00  0.00    +0.295 HD
ENDBRANCH  26  27
ENDBRANCH  24  26
ENDBRANCH  19  24
ENDBRANCH   2  18
BRANCH   6  31
ATOM     29  O   UNL     1      37.972 -23.667 -14.151  0.00  0.00    -0.270 OA
ATOM     30  N   UNL     1      37.778 -23.243 -11.906  0.00  0.00    -0.325 N 
ATOM     31  C   UNL     1      37.244 -23.581 -13.146  0.00  0.00    +0.248 C 
ATOM     32  H   UNL     1      38.745 -23.082 -11.814  0.00  0.00    +0.145 HD
ATOM     33  H   UNL     1      37.189 -23.166 -11.121  0.00  0.00    +0.145 HD
ENDBRANCH   6  31
TORSDOF 6
ENDMDL
MODEL 3
REMARK VINA RESULT:     -11.3      0.634      1.610
REMARK  Name = 24871491
REMARK  6 active torsions:
REMARK  status: ('A' for Active; 'I' for Inactive)
REMARK    1  A    between atoms: N_1  and  C_11
REMARK    2  A    between atoms: N_2  and  C_18
REMARK    3  A    between atoms: C_6  and  C_31
REMARK    4  A    between atoms: C_19  and  C_24
REMARK    5  A    between atoms: C_24  and  C_26
REMARK    6  A    between atoms: C_26  and  O_27
REMARK                            x       y       z     vdW  Elec       q    Type
REMARK                         _______ _______ _______ _____ _____    ______ ____
ROOT
ATOM      1  N   UNL     1      33.126 -23.289 -16.874  0.00  0.00    -0.287 N 
ATOM      2  N   UNL     1      34.566 -24.768 -12.636  0.00  0.00    -0.247 N 
ATOM      3  N   UNL     1      33.862 -24.033 -14.748  0.00  0.00    -0.322 NA
ATOM      4  N   UNL     1      32.271 -24.444 -12.986  0.00  0.00    -0.169 NA
ATOM      5  C   UNL     1      32.832 -23.683 -15.546  0.00  0.00    +0.202 C 
ATOM      6  C   UNL     1      31.513 -23.688 -15.141  0.00  0.00    +0.118 C 
ATOM      7  C   UNL     1      33.515 -24.397 -13.498  0.00  0.00    +0.150 C 
ATOM      8  C   UNL     1      31.289 -24.082 -13.838  0.00  0.00    +0.120 C 
ATOM      9  H   UNL     1      32.409 -23.491 -17.517  0.00  0.00    +0.155 HD
ATOM     10  H   UNL     1      34.265 -25.026 -11.735  0.00  0.00    +0.165 HD
ENDROOT
BRANCH   1  11
ATOM     11  C   UNL     1      34.243 -22.665 -17.452  0.00  0.00    +0.050 C 
ATOM     12  C   UNL     1      34.117 -22.000 -18.673  0.00  0.00    +0.010 C 
ATOM     13  C   UNL     1      35.227 -21.380 -19.246  0.00  0.00    -0.021 C 
ATOM     14  C   UNL     1      35.479 -22.709 -16.807  0.00  0.00    +0.015 C 
ATOM     15  C   UNL     1      36.463 -21.423 -18.600  0.00  0.00    -0.004 C 
ATOM     16  C   UNL     1      36.589 -22.089 -17.381  0.00  0.00    +0.001 C 
ATOM     17  C   UNL     1      35.094 -20.670 -20.551  0.00  0.00    +0.031 C 
ENDBRANCH   1  11
BRANCH   2  18
ATOM     18  C   UNL     1      35.963 -24.844 -12.810  0.00  0.00    +0.058 C 
ATOM     19  C   UNL     1      38.727 -24.994 -13.154  0.00  0.00    -0.011 C 
ATOM     20  C   UNL     1      36.516 -25.875 -13.568  0.00  0.00    +0.015 C 
ATOM     21  C   UNL     1      36.791 -23.887 -12.223  0.00  0.00    +0.015 C 
ATOM     22  C   UNL     1      37.899 -25.950 -13.741  0.00  0.00    -0.002 C 
ATOM     23  C   UNL     1      38.173 -23.962 -12.395  0.00  0.00    -0.002 C 
BRANCH  19  24
ATOM     24  C   UNL     1      40.205 -25.074 -13.338  0.00  0.00    +0.136 C 
BRANCH  24  26
ATOM     25  O   UNL     1      40.423 -25.990 -15.583  0.00  0.00    -0.250 OA
ATOM     26  C   UNL     1      40.630 -26.088 -14.382  0.00  0.00    +0.318 C 
BRANCH  26  27
ATOM     27  O   UNL     1      41.281 -27.144 -13.826  0.00  0.00    -0.480 OA
ATOM     28  H   UNL     1      42.156 -27.346 -14.090  0.00  0.00    +0.295 HD
ENDBRANCH  26  27
ENDBRANCH  24  26
ENDBRANCH  19  24
ENDBRANCH   2  18
BRANCH   6  31
ATOM     29  O   UNL     1      30.488 -22.358 -16.793  0.00  0.00    -0.270 OA
ATOM     30  N   UNL     1      29.237 -24.071 -15.921  0.00  0.00    -0.325 N 
ATOM     31  C   UNL     1      30.401 -23.313 -16.000  0.00  0.00    +0.248 C 
ATOM     32  H   UNL     1      28.464 -23.846 -16.487  0.00  0.00    +0.145 HD
ATOM     33  H   UNL     1      29.187 -24.832 -15.299  0.00  0.00    +0.145 HD
ENDBRANCH   6  31
TORSDOF 6
ENDMDL
MODEL 4
REMARK VINA RESULT:     -11.3      2.104      7.051
REMARK  Name = 24871491
REMARK  6 active torsions:
REMARK  status: ('A' for Active; 'I' for Inactive)
REMARK    1  A    between atoms: N_1  and  C_11
REMARK    2  A    between atoms: N_2  and  C_18
REMARK    3  A    between atoms: C_6  and  C_31
REMARK    4  A    between atoms: C_19  and  C_24
REMARK    5  A    between atoms: C_24  and  C_26
REMARK    6  A    between atoms: C_26  and  O_27
REMARK                            x       y       z     vdW  Elec       q    Type
REMARK                         _______ _______ _______ _____ _____    ______ ____
ROOT
ATOM      1  N   UNL     1      36.256 -22.770 -16.323  0.00  0.00    -0.287 N 
ATOM      2  N   UNL     1      33.324 -25.046 -13.417  0.00  0.00    -0.247 N 
ATOM      3  N   UNL     1      34.771 -23.908 -14.867  0.00  0.00    -0.322 NA
ATOM      4  N   UNL     1      35.621 -25.471 -13.243  0.00  0.00    -0.169 NA
ATOM      5  C   UNL     1      36.041 -23.693 -15.270  0.00  0.00    +0.202 C 
ATOM      6  C   UNL     1      37.138 -24.321 -14.716  0.00  0.00    +0.118 C 
ATOM      7  C   UNL     1      34.636 -24.796 -13.864  0.00  0.00    +0.150 C 
ATOM      8  C   UNL     1      36.866 -25.209 -13.695  0.00  0.00    +0.120 C 
ATOM      9  H   UNL     1      37.123 -22.308 -16.275  0.00  0.00    +0.155 HD
ATOM     10  H   UNL     1      33.273 -25.701 -12.685  0.00  0.00    +0.165 HD
ENDROOT
BRANCH   1  11
ATOM     11  C   UNL     1      35.471 -22.387 -17.422  0.00  0.00    +0.050 C 
ATOM     12  C   UNL     1      36.034 -21.634 -18.453  0.00  0.00    +0.010 C 
ATOM     13  C   UNL     1      35.254 -21.254 -19.545  0.00  0.00    -0.021 C 
ATOM     14  C   UNL     1      34.129 -22.760 -17.485  0.00  0.00    +0.015 C 
ATOM     15  C   UNL     1      33.912 -21.627 -19.608  0.00  0.00    -0.004 C 
ATOM     16  C   UNL     1      33.348 -22.379 -18.577  0.00  0.00    +0.001 C 
ATOM     17  C   UNL     1      35.855 -20.447 -20.646  0.00  0.00    +0.031 C 
ENDBRANCH   1  11
BRANCH   2  18
ATOM     18  C   UNL     1      32.068 -24.542 -13.813  0.00  0.00    +0.058 C 
ATOM     19  C   UNL     1      29.583 -23.547 -14.598  0.00  0.00    -0.011 C 
ATOM     20  C   UNL     1      30.961 -25.389 -13.862  0.00  0.00    +0.015 C 
ATOM     21  C   UNL     1      31.933 -23.197 -14.158  0.00  0.00    +0.015 C 
ATOM     22  C   UNL     1      29.718 -24.891 -14.254  0.00  0.00    -0.002 C 
ATOM     23  C   UNL     1      30.691 -22.699 -14.550  0.00  0.00    -0.002 C 
BRANCH  19  24
ATOM     24  C   UNL     1      28.254 -23.014 -15.017  0.00  0.00    +0.136 C 
BRANCH  24  26
ATOM     25  O   UNL     1      27.900 -24.231 -17.096  0.00  0.00    -0.250 OA
ATOM     26  C   UNL     1      27.983 -23.165 -16.501  0.00  0.00    +0.318 C 
BRANCH  26  27
ATOM     27  O   UNL     1      27.841 -21.961 -17.115  0.00  0.00    -0.480 OA
ATOM     28  H   UNL     1      27.713 -21.187 -16.604  0.00  0.00    +0.295 HD
ENDBRANCH  26  27
ENDBRANCH  24  26
ENDBRANCH  19  24
ENDBRANCH   2  18
BRANCH   6  31
ATOM     29  O   UNL     1      38.869 -22.987 -15.595  0.00  0.00    -0.270 OA
ATOM     30  N   UNL     1      39.410 -25.142 -15.028  0.00  0.00    -0.325 N 
ATOM     31  C   UNL     1      38.507 -24.090 -15.148  0.00  0.00    +0.248 C 
ATOM     32  H   UNL     1      40.345 -25.022 -15.311  0.00  0.00    +0.145 HD
ATOM     33  H   UNL     1      39.113 -26.006 -14.661  0.00  0.00    +0.145 HD
ENDBRANCH   6  31
TORSDOF 6
ENDMDL
MODEL 5
REMARK VINA RESULT:     -11.0      3.056      6.540
REMARK  Name = 24871491
REMARK  6 active torsions:
REMARK  status: ('A' for Active; 'I' for Inactive)
REMARK    1  A    between atoms: N_1  and  C_11
REMARK    2  A    between atoms: N_2  and  C_18
REMARK    3  A    between atoms: C_6  and  C_31
REMARK    4  A    between atoms: C_19  and  C_24
REMARK    5  A    between atoms: C_24  and  C_26
REMARK    6  A    between atoms: C_26  and  O_27
REMARK                            x       y       z     vdW  Elec       q    Type
REMARK                         _______ _______ _______ _____ _____    ______ ____
ROOT
ATOM      1  N   UNL     1      34.343 -23.624 -14.167  0.00  0.00    -0.287 N 
ATOM      2  N   UNL     1      32.277 -22.272 -18.183  0.00  0.00    -0.247 N 
ATOM      3  N   UNL     1      33.316 -22.938 -16.190  0.00  0.00    -0.322 NA
ATOM      4  N   UNL     1      30.976 -23.368 -16.571  0.00  0.00    -0.169 NA
ATOM      5  C   UNL     1      33.192 -23.537 -14.987  0.00  0.00    +0.202 C 
ATOM      6  C   UNL     1      32.009 -24.068 -14.513  0.00  0.00    +0.118 C 
ATOM      7  C   UNL     1      32.184 -22.889 -16.919  0.00  0.00    +0.150 C 
ATOM      8  C   UNL     1      30.922 -23.953 -15.356  0.00  0.00    +0.120 C 
ATOM      9  H   UNL     1      34.146 -23.618 -13.203  0.00  0.00    +0.155 HD
ATOM     10  H   UNL     1      31.427 -22.260 -18.679  0.00  0.00    +0.165 HD
ENDROOT
BRANCH   1  11
ATOM     11  C   UNL     1      35.713 -23.715 -14.464  0.00  0.00    +0.050 C 
ATOM     12  C   UNL     1      36.456 -24.800 -13.997  0.00  0.00    +0.010 C 
ATOM     13  C   UNL     1      37.817 -24.891 -14.292  0.00  0.00    -0.021 C 
ATOM     14  C   UNL     1      36.330 -22.723 -15.224  0.00  0.00    +0.015 C 
ATOM     15  C   UNL     1      38.434 -23.899 -15.053  0.00  0.00    -0.004 C 
ATOM     16  C   UNL     1      37.691 -22.814 -15.518  0.00  0.00    +0.001 C 
ATOM     17  C   UNL     1      38.612 -26.050 -13.793  0.00  0.00    +0.031 C 
ENDBRANCH   1  11
BRANCH   2  18
ATOM     18  C   UNL     1      33.346 -21.668 -18.875  0.00  0.00    +0.058 C 
ATOM     19  C   UNL     1      35.462 -20.473 -20.245  0.00  0.00    -0.011 C 
ATOM     20  C   UNL     1      33.090 -20.699 -19.844  0.00  0.00    +0.015 C 
ATOM     21  C   UNL     1      34.660 -22.041 -18.591  0.00  0.00    +0.015 C 
ATOM     22  C   UNL     1      34.148 -20.101 -20.529  0.00  0.00    -0.002 C 
ATOM     23  C   UNL     1      35.718 -21.444 -19.276  0.00  0.00    -0.002 C 
BRANCH  19  24
ATOM     24  C   UNL     1      36.593 -19.834 -20.977  0.00  0.00    +0.136 C 
BRANCH  24  26
ATOM     25  O   UNL     1      36.175 -18.381 -22.886  0.00  0.00    -0.250 OA
ATOM     26  C   UNL     1      36.210 -18.543 -21.674  0.00  0.00    +0.318 C 
BRANCH  26  27
ATOM     27  O   UNL     1      35.904 -17.560 -20.786  0.00  0.00    -0.480 OA
ATOM     28  H   UNL     1      35.276 -16.903 -21.013  0.00  0.00    +0.295 HD
ENDBRANCH  26  27
ENDBRANCH  24  26
ENDBRANCH  19  24
ENDBRANCH   2  18
BRANCH   6  31
ATOM     29  O   UNL     1      32.868 -25.003 -12.529  0.00  0.00    -0.270 OA
ATOM     30  N   UNL     1      30.587 -24.978 -12.758  0.00  0.00    -0.325 N 
ATOM     31  C   UNL     1      31.873 -24.712 -13.217  0.00  0.00    +0.248 C 
ATOM     32  H   UNL     1      30.456 -25.414 -11.884  0.00  0.00    +0.145 HD
ATOM     33  H   UNL     1      29.808 -24.731 -13.306  0.00  0.00    +0.145 HD
ENDBRANCH   6  31
TORSDOF 6
ENDMDL
MODEL 6
REMARK VINA RESULT:     -10.4      3.009      7.055
REMARK  Name = 24871491
REMARK  6 active torsions:
REMARK  status: ('A' for Active; 'I' for Inactive)
REMARK    1  A    between atoms: N_1  and  C_11
REMARK    2  A    between atoms: N_2  and  C_18
REMARK    3  A    between atoms: C_6  and  C_31
REMARK    4  A    between atoms: C_19  and  C_24
REMARK    5  A    between atoms: C_24  and  C_26
REMARK    6  A    between atoms: C_26  and  O_27
REMARK                            x       y       z     vdW  Elec       q    Type
REMARK                         _______ _______ _______ _____ _____    ______ ____
ROOT
ATOM      1  N   UNL     1      33.997 -24.499 -12.674  0.00  0.00    -0.287 N 
ATOM      2  N   UNL     1      37.293 -22.390 -15.304  0.00  0.00    -0.247 N 
ATOM      3  N   UNL     1      35.646 -23.439 -14.007  0.00  0.00    -0.322 NA
ATOM      4  N   UNL     1      37.823 -22.958 -13.093  0.00  0.00    -0.169 NA
ATOM      5  C   UNL     1      35.304 -23.973 -12.815  0.00  0.00    +0.202 C 
ATOM      6  C   UNL     1      36.156 -24.035 -11.731  0.00  0.00    +0.118 C 
ATOM      7  C   UNL     1      36.902 -22.957 -14.074  0.00  0.00    +0.150 C 
ATOM      8  C   UNL     1      37.415 -23.508 -11.929  0.00  0.00    +0.120 C 
ATOM      9  H   UNL     1      33.935 -25.244 -12.035  0.00  0.00    +0.155 HD
ATOM     10  H   UNL     1      38.216 -22.051 -15.306  0.00  0.00    +0.165 HD
ENDROOT
BRANCH   1  11
ATOM     11  C   UNL     1      32.770 -24.162 -13.270  0.00  0.00    +0.050 C 
ATOM     12  C   UNL     1      31.773 -25.129 -13.407  0.00  0.00    +0.010 C 
ATOM     13  C   UNL     1      30.555 -24.793 -13.999  0.00  0.00    -0.021 C 
ATOM     14  C   UNL     1      32.549 -22.863 -13.724  0.00  0.00    +0.015 C 
ATOM     15  C   UNL     1      30.334 -23.494 -14.453  0.00  0.00    -0.004 C 
ATOM     16  C   UNL     1      31.331 -22.528 -14.317  0.00  0.00    +0.001 C 
ATOM     17  C   UNL     1      29.489 -25.826 -14.146  0.00  0.00    +0.031 C 
ENDBRANCH   1  11
BRANCH   2  18
ATOM     18  C   UNL     1      36.621 -22.213 -16.531  0.00  0.00    +0.058 C 
ATOM     19  C   UNL     1      35.292 -21.862 -18.957  0.00  0.00    -0.011 C 
ATOM     20  C   UNL     1      37.260 -21.568 -17.588  0.00  0.00    +0.015 C 
ATOM     21  C   UNL     1      35.316 -22.683 -16.686  0.00  0.00    +0.015 C 
ATOM     22  C   UNL     1      36.595 -21.392 -18.802  0.00  0.00    -0.002 C 
ATOM     23  C   UNL     1      34.652 -22.507 -17.899  0.00  0.00    -0.002 C 
BRANCH  19  24
ATOM     24  C   UNL     1      34.581 -21.674 -20.256  0.00  0.00    +0.136 C 
BRANCH  24  26
ATOM     25  O   UNL     1      32.552 -20.369 -19.923  0.00  0.00    -0.250 OA
ATOM     26  C   UNL     1      33.716 -20.430 -20.297  0.00  0.00    +0.318 C 
BRANCH  26  27
ATOM     27  O   UNL     1      34.386 -19.364 -20.808  0.00  0.00    -0.480 OA
ATOM     28  H   UNL     1      34.774 -18.735 -20.232  0.00  0.00    +0.295 HD
ENDBRANCH  26  27
ENDBRANCH  24  26
ENDBRANCH  19  24
ENDBRANCH   2  18
BRANCH   6  31
ATOM     29  O   UNL     1      35.134 -25.666 -10.373  0.00  0.00    -0.270 OA
ATOM     30  N   UNL     1      36.217 -23.955  -9.297  0.00  0.00    -0.325 N 
ATOM     31  C   UNL     1      35.790 -24.612 -10.447  0.00  0.00    +0.248 C 
ATOM     32  H   UNL     1      35.988 -24.316  -8.410  0.00  0.00    +0.145 HD
ATOM     33  H   UNL     1      36.746 -23.128  -9.371  0.00  0.00    +0.145 HD
ENDBRANCH   6  31
TORSDOF 6
ENDMDL
MODEL 7
REMARK VINA RESULT:     -10.4      2.959      7.288
REMARK  Name = 24871491
REMARK  6 active torsions:
REMARK  status: ('A' for Active; 'I' for Inactive)
REMARK    1  A    between atoms: N_1  and  C_11
REMARK    2  A    between atoms: N_2  and  C_18
REMARK    3  A    between atoms: C_6  and  C_31
REMARK    4  A    between atoms: C_19  and  C_24
REMARK    5  A    between atoms: C_24  and  C_26
REMARK    6  A    between atoms: C_26  and  O_27
REMARK                            x       y       z     vdW  Elec       q    Type
REMARK                         _______ _______ _______ _____ _____    ______ ____
ROOT
ATOM      1  N   UNL     1      34.510 -24.902 -13.776  0.00  0.00    -0.287 N 
ATOM      2  N   UNL     1      37.466 -22.624 -16.657  0.00  0.00    -0.247 N 
ATOM      3  N   UNL     1      35.986 -23.754 -15.232  0.00  0.00    -0.322 NA
ATOM      4  N   UNL     1      38.354 -23.726 -14.789  0.00  0.00    -0.169 NA
ATOM      5  C   UNL     1      35.824 -24.501 -14.121  0.00  0.00    +0.202 C 
ATOM      6  C   UNL     1      36.865 -24.895 -13.304  0.00  0.00    +0.118 C 
ATOM      7  C   UNL     1      37.259 -23.407 -15.503  0.00  0.00    +0.150 C 
ATOM      8  C   UNL     1      38.121 -24.475 -13.691  0.00  0.00    +0.120 C 
ATOM      9  H   UNL     1      34.470 -25.760 -13.297  0.00  0.00    +0.155 HD
ATOM     10  H   UNL     1      38.410 -22.394 -16.814  0.00  0.00    +0.165 HD
ENDROOT
BRANCH   1  11
ATOM     11  C   UNL     1      33.254 -24.311 -13.985  0.00  0.00    +0.050 C 
ATOM     12  C   UNL     1      32.933 -23.779 -15.234  0.00  0.00    +0.010 C 
ATOM     13  C   UNL     1      31.684 -23.192 -15.442  0.00  0.00    -0.021 C 
ATOM     14  C   UNL     1      32.326 -24.258 -12.945  0.00  0.00    +0.015 C 
ATOM     15  C   UNL     1      30.756 -23.139 -14.402  0.00  0.00    -0.004 C 
ATOM     16  C   UNL     1      31.078 -23.670 -13.153  0.00  0.00    +0.001 C 
ATOM     17  C   UNL     1      31.341 -22.622 -16.776  0.00  0.00    +0.031 C 
ENDBRANCH   1  11
BRANCH   2  18
ATOM     18  C   UNL     1      36.587 -22.106 -17.630  0.00  0.00    +0.058 C 
ATOM     19  C   UNL     1      34.847 -21.082 -19.555  0.00  0.00    -0.011 C 
ATOM     20  C   UNL     1      35.227 -22.411 -17.574  0.00  0.00    +0.015 C 
ATOM     21  C   UNL     1      37.077 -21.290 -18.650  0.00  0.00    +0.015 C 
ATOM     22  C   UNL     1      34.357 -21.898 -18.536  0.00  0.00    -0.002 C 
ATOM     23  C   UNL     1      36.208 -20.778 -19.612  0.00  0.00    -0.002 C 
BRANCH  19  24
ATOM     24  C   UNL     1      33.917 -20.535 -20.585  0.00  0.00    +0.136 C 
BRANCH  24  26
ATOM     25  O   UNL     1      34.732 -18.259 -20.880  0.00  0.00    -0.250 OA
ATOM     26  C   UNL     1      34.490 -19.361 -21.354  0.00  0.00    +0.318 C 
BRANCH  26  27
ATOM     27  O   UNL     1      34.711 -19.670 -22.659  0.00  0.00    -0.480 OA
ATOM     28  H   UNL     1      35.125 -20.479 -22.885  0.00  0.00    +0.295 HD
ENDBRANCH  26  27
ENDBRANCH  24  26
ENDBRANCH  19  24
ENDBRANCH   2  18
BRANCH   6  31
ATOM     29  O   UNL     1      36.050 -25.281 -11.128  0.00  0.00    -0.270 OA
ATOM     30  N   UNL     1      37.256 -26.974 -12.096  0.00  0.00    -0.325 N 
ATOM     31  C   UNL     1      36.693 -25.702 -12.106  0.00  0.00    +0.248 C 
ATOM     32  H   UNL     1      37.161 -27.548 -11.302  0.00  0.00    +0.145 HD
ATOM     33  H   UNL     1      37.751 -27.299 -12.882  0.00  0.00    +0.145 HD
ENDBRANCH   6  31
TORSDOF 6
ENDMDL
MODEL 8
REMARK VINA RESULT:      -9.1      2.858      5.334
REMARK  Name = 24871491
REMARK  6 active torsions:
REMARK  status: ('A' for Active; 'I' for Inactive)
REMARK    1  A    between atoms: N_1  and  C_11
REMARK    2  A    between atoms: N_2  and  C_18
REMARK    3  A    between atoms: C_6  and  C_31
REMARK    4  A    between atoms: C_19  and  C_24
REMARK    5  A    between atoms: C_24  and  C_26
REMARK    6  A    between atoms: C_26  and  O_27
REMARK                            x       y       z     vdW  Elec       q    Type
REMARK                         _______ _______ _______ _____ _____    ______ ____
ROOT
ATOM      1  N   UNL     1      32.960 -22.203 -17.203  0.00  0.00    -0.287 N 
ATOM      2  N   UNL     1      37.559 -22.848 -16.393  0.00  0.00    -0.247 N 
ATOM      3  N   UNL     1      35.270 -22.531 -16.783  0.00  0.00    -0.322 NA
ATOM      4  N   UNL     1      36.899 -22.006 -18.479  0.00  0.00    -0.169 NA
ATOM      5  C   UNL     1      34.305 -22.135 -17.640  0.00  0.00    +0.202 C 
ATOM      6  C   UNL     1      34.557 -21.669 -18.915  0.00  0.00    +0.118 C 
ATOM      7  C   UNL     1      36.526 -22.441 -17.261  0.00  0.00    +0.150 C 
ATOM      8  C   UNL     1      35.886 -21.626 -19.284  0.00  0.00    +0.120 C 
ATOM      9  H   UNL     1      32.375 -21.524 -17.609  0.00  0.00    +0.155 HD
ATOM     10  H   UNL     1      38.458 -22.766 -16.784  0.00  0.00    +0.165 HD
ENDROOT
BRANCH   1  11
ATOM     11  C   UNL     1      32.298 -23.052 -16.301  0.00  0.00    +0.050 C 
ATOM     12  C   UNL     1      30.931 -23.293 -16.445  0.00  0.00    +0.010 C 
ATOM     13  C   UNL     1      30.275 -24.137 -15.549  0.00  0.00    -0.021 C 
ATOM     14  C   UNL     1      33.007 -23.656 -15.263  0.00  0.00    +0.015 C 
ATOM     15  C   UNL     1      30.984 -24.741 -14.510  0.00  0.00    -0.004 C 
ATOM     16  C   UNL     1      32.350 -24.499 -14.366  0.00  0.00    +0.001 C 
ATOM     17  C   UNL     1      28.814 -24.394 -15.701  0.00  0.00    +0.031 C 
ENDBRANCH   1  11
BRANCH   2  18
ATOM     18  C   UNL     1      37.558 -23.349 -15.075  0.00  0.00    +0.058 C 
ATOM     19  C   UNL     1      37.556 -24.340 -12.468  0.00  0.00    -0.011 C 
ATOM     20  C   UNL     1      38.340 -24.456 -14.750  0.00  0.00    +0.015 C 
ATOM     21  C   UNL     1      36.774 -22.737 -14.097  0.00  0.00    +0.015 C 
ATOM     22  C   UNL     1      38.339 -24.952 -13.446  0.00  0.00    -0.002 C 
ATOM     23  C   UNL     1      36.772 -23.232 -12.794  0.00  0.00    -0.002 C 
BRANCH  19  24
ATOM     24  C   UNL     1      37.555 -24.870 -11.074  0.00  0.00    +0.136 C 
BRANCH  24  26
ATOM     25  O   UNL     1      35.151 -25.143 -10.791  0.00  0.00    -0.250 OA
ATOM     26  C   UNL     1      36.220 -24.720 -10.371  0.00  0.00    +0.318 C 
BRANCH  26  27
ATOM     27  O   UNL     1      36.340 -24.047  -9.196  0.00  0.00    -0.480 OA
ATOM     28  H   UNL     1      36.629 -23.156  -9.194  0.00  0.00    +0.295 HD
ENDBRANCH  26  27
ENDBRANCH  24  26
ENDBRANCH  19  24
ENDBRANCH   2  18
BRANCH   6  31
ATOM     29  O   UNL     1      32.462 -21.883 -19.971  0.00  0.00    -0.270 OA
ATOM     30  N   UNL     1      33.739 -20.073 -20.563  0.00  0.00    -0.325 N 
ATOM     31  C   UNL     1      33.519 -21.241 -19.839  0.00  0.00    +0.248 C 
ATOM     32  H   UNL     1      33.059 -19.753 -21.199  0.00  0.00    +0.145 HD
ATOM     33  H   UNL     1      34.574 -19.568 -20.440  0.00  0.00    +0.145 HD
ENDBRANCH   6  31
TORSDOF 6
ENDMDL
