MODEL 1
REMARK VINA RESULT:     -12.7      0.000      0.000
REMARK  Name = 5287728
REMARK  9 active torsions:
REMARK  status: ('A' for Active; 'I' for Inactive)
REMARK    1  A    between atoms: S_1  and  N_4
REMARK    2  A    between atoms: S_1  and  N_22
REMARK    3  A    between atoms: C_5  and  N_10
REMARK    4  A    between atoms: N_10  and  C_13
REMARK    5  A    between atoms: C_13  and  C_14
REMARK    6  A    between atoms: C_15  and  O_20
REMARK    7  A    between atoms: N_22  and  C_24
REMARK    8  A    between atoms: C_27  and  O_30
REMARK    9  A    between atoms: O_30  and  C_32
REMARK                            x       y       z     vdW  Elec       q    Type
REMARK                         _______ _______ _______ _____ _____    ______ ____
ROOT
ATOM      1  S   UNL     1      33.350 -13.772 -23.068  0.00  0.00    +0.113 S 
ATOM      2  O   UNL     1      34.363 -12.757 -22.842  0.00  0.00    -0.138 OA
ATOM      3  O   UNL     1      32.685 -13.864 -24.356  0.00  0.00    -0.138 OA
ENDROOT
BRANCH   1   4
ATOM      4  N   UNL     1      34.036 -15.299 -22.699  0.00  0.00    -0.143 NA
ATOM      5  C   UNL     1      35.785 -17.542 -22.090  0.00  0.00    -0.059 C 
ATOM      6  C   UNL     1      35.142 -17.366 -23.469  0.00  0.00    -0.002 C 
ATOM      7  C   UNL     1      34.925 -16.868 -21.014  0.00  0.00    -0.002 C 
ATOM      8  C   UNL     1      34.888 -15.890 -23.772  0.00  0.00    +0.095 C 
ATOM      9  C   UNL     1      34.674 -15.401 -21.353  0.00  0.00    +0.095 C 
BRANCH   5  10
ATOM     10  N   UNL     1      35.943 -18.962 -21.789  0.00  0.00    +0.388 N 
ATOM     11  H   UNL     1      36.536 -19.066 -20.965  0.00  0.00    -0.084 HD
ATOM     12  H   UNL     1      36.368 -19.423 -22.593  0.00  0.00    -0.084 HD
BRANCH  10  13
ATOM     13  C   UNL     1      34.651 -19.580 -21.526  0.00  0.00    -0.051 C 
BRANCH  13  14
ATOM     14  C   UNL     1      34.713 -20.532 -20.362  0.00  0.00    -0.010 C 
ATOM     15  C   UNL     1      33.544 -21.045 -19.812  0.00  0.00    +0.128 C 
ATOM     16  C   UNL     1      35.955 -20.886 -19.851  0.00  0.00    -0.003 C 
ATOM     17  C   UNL     1      33.619 -21.926 -18.734  0.00  0.00    +0.036 C 
ATOM     18  C   UNL     1      36.029 -21.767 -18.771  0.00  0.00    -0.000 C 
ATOM     19  C   UNL     1      34.862 -22.287 -18.214  0.00  0.00    +0.003 C 
BRANCH  15  20
ATOM     20  O   UNL     1      32.322 -20.702 -20.309  0.00  0.00    -0.506 OA
ATOM     21  H   UNL     1      32.157 -20.761 -21.229  0.00  0.00    +0.292 HD
ENDBRANCH  15  20
ENDBRANCH  13  14
ENDBRANCH  10  13
ENDBRANCH   5  10
ENDBRANCH   1   4
BRANCH   1  22
ATOM     22  N   UNL     1      32.180 -13.633 -21.807  0.00  0.00    -0.205 N 
ATOM     23  H   UNL     1      31.669 -14.412 -21.487  0.00  0.00    +0.175 HD
BRANCH  22  24
ATOM     24  C   UNL     1      31.986 -12.322 -21.242  0.00  0.00    +0.069 C 
ATOM     25  C   UNL     1      31.734 -11.244 -22.082  0.00  0.00    +0.053 C 
ATOM     26  C   UNL     1      32.054 -12.151 -19.865  0.00  0.00    +0.016 C 
ATOM     27  C   UNL     1      31.547  -9.975 -21.535  0.00  0.00    +0.147 C 
ATOM     28  C   UNL     1      31.867 -10.882 -19.319  0.00  0.00    +0.004 C 
ATOM     29  C   UNL     1      31.613  -9.794 -20.154  0.00  0.00    +0.038 C 
BRANCH  27  30
ATOM     30  O   UNL     1      31.301  -8.913 -22.350  0.00  0.00    -0.453 OA
BRANCH  30  32
ATOM     31  F   UNL     1      35.610  -6.032 -24.161  0.00  0.00    -0.204 F 
ATOM     32  C   UNL     1      32.388  -8.186 -22.807  0.00  0.00    +0.145 C 
ATOM     33  C   UNL     1      32.243  -6.830 -23.038  0.00  0.00    +0.040 C 
ATOM     34  C   UNL     1      33.590  -8.835 -23.020  0.00  0.00    +0.040 C 
ATOM     35  C   UNL     1      33.337  -6.098 -23.497  0.00  0.00    +0.033 C 
ATOM     36  C   UNL     1      34.685  -8.104 -23.481  0.00  0.00    +0.033 C 
ATOM     37  C   UNL     1      34.558  -6.735 -23.719  0.00  0.00    +0.140 C 
ENDBRANCH  30  32
ENDBRANCH  27  30
ENDBRANCH  22  24
ENDBRANCH   1  22
TORSDOF 9
ENDMDL
MODEL 2
REMARK VINA RESULT:     -12.1      3.115      5.228
REMARK  Name = 5287728
REMARK  9 active torsions:
REMARK  status: ('A' for Active; 'I' for Inactive)
REMARK    1  A    between atoms: S_1  and  N_4
REMARK    2  A    between atoms: S_1  and  N_22
REMARK    3  A    between atoms: C_5  and  N_10
REMARK    4  A    between atoms: N_10  and  C_13
REMARK    5  A    between atoms: C_13  and  C_14
REMARK    6  A    between atoms: C_15  and  O_20
REMARK    7  A    between atoms: N_22  and  C_24
REMARK    8  A    between atoms: C_27  and  O_30
REMARK    9  A    between atoms: O_30  and  C_32
REMARK                            x       y       z     vdW  Elec       q    Type
REMARK                         _______ _______ _______ _____ _____    ______ ____
ROOT
ATOM      1  S   UNL     1      35.627 -18.357 -21.609  0.00  0.00    +0.113 S 
ATOM      2  O   UNL     1      37.061 -18.364 -21.834  0.00  0.00    -0.138 OA
ATOM      3  O   UNL     1      34.713 -18.449 -22.733  0.00  0.00    -0.138 OA
ENDROOT
BRANCH   1   4
ATOM      4  N   UNL     1      35.257 -19.614 -20.502  0.00  0.00    -0.143 NA
ATOM      5  C   UNL     1      34.695 -22.140 -19.176  0.00  0.00    -0.059 C 
ATOM      6  C   UNL     1      33.588 -21.132 -19.504  0.00  0.00    -0.002 C 
ATOM      7  C   UNL     1      36.037 -21.418 -19.012  0.00  0.00    -0.002 C 
ATOM      8  C   UNL     1      33.951 -20.300 -20.731  0.00  0.00    +0.095 C 
ATOM      9  C   UNL     1      36.364 -20.582 -20.245  0.00  0.00    +0.095 C 
BRANCH   5  10
ATOM     10  N   UNL     1      34.364 -22.867 -17.953  0.00  0.00    +0.388 N 
ATOM     11  H   UNL     1      34.879 -22.460 -17.172  0.00  0.00    -0.084 HD
ATOM     12  H   UNL     1      34.619 -23.847 -18.075  0.00  0.00    -0.084 HD
BRANCH  10  13
ATOM     13  C   UNL     1      32.937 -22.787 -17.676  0.00  0.00    -0.051 C 
BRANCH  13  14
ATOM     14  C   UNL     1      32.629 -23.080 -16.232  0.00  0.00    -0.010 C 
ATOM     15  C   UNL     1      31.319 -23.040 -15.772  0.00  0.00    +0.128 C 
ATOM     16  C   UNL     1      33.677 -23.390 -15.374  0.00  0.00    -0.003 C 
ATOM     17  C   UNL     1      31.052 -23.314 -14.431  0.00  0.00    +0.036 C 
ATOM     18  C   UNL     1      33.409 -23.663 -14.032  0.00  0.00    -0.000 C 
ATOM     19  C   UNL     1      32.097 -23.626 -13.561  0.00  0.00    +0.003 C 
BRANCH  15  20
ATOM     20  O   UNL     1      30.287 -22.737 -16.609  0.00  0.00    -0.506 OA
ATOM     21  H   UNL     1      29.898 -21.885 -16.584  0.00  0.00    +0.292 HD
ENDBRANCH  15  20
ENDBRANCH  13  14
ENDBRANCH  10  13
ENDBRANCH   5  10
ENDBRANCH   1   4
BRANCH   1  22
ATOM     22  N   UNL     1      35.254 -16.969 -20.654  0.00  0.00    -0.205 N 
ATOM     23  H   UNL     1      35.504 -16.913 -19.703  0.00  0.00    +0.175 HD
BRANCH  22  24
ATOM     24  C   UNL     1      34.559 -15.894 -21.314  0.00  0.00    +0.069 C 
ATOM     25  C   UNL     1      33.497 -15.268 -20.673  0.00  0.00    +0.053 C 
ATOM     26  C   UNL     1      34.958 -15.497 -22.584  0.00  0.00    +0.016 C 
ATOM     27  C   UNL     1      32.823 -14.228 -21.314  0.00  0.00    +0.147 C 
ATOM     28  C   UNL     1      34.284 -14.457 -23.224  0.00  0.00    +0.004 C 
ATOM     29  C   UNL     1      33.217 -13.822 -22.589  0.00  0.00    +0.038 C 
BRANCH  27  30
ATOM     30  O   UNL     1      31.781 -13.610 -20.694  0.00  0.00    -0.453 OA
BRANCH  30  32
ATOM     31  F   UNL     1      31.943  -8.138 -20.275  0.00  0.00    -0.204 F 
ATOM     32  C   UNL     1      31.821 -12.229 -20.588  0.00  0.00    +0.145 C 
ATOM     33  C   UNL     1      31.869 -11.466 -21.741  0.00  0.00    +0.040 C 
ATOM     34  C   UNL     1      31.813 -11.650 -19.333  0.00  0.00    +0.040 C 
ATOM     35  C   UNL     1      31.909 -10.077 -21.635  0.00  0.00    +0.033 C 
ATOM     36  C   UNL     1      31.856 -10.260 -19.226  0.00  0.00    +0.033 C 
ATOM     37  C   UNL     1      31.903  -9.473 -20.377  0.00  0.00    +0.140 C 
ENDBRANCH  30  32
ENDBRANCH  27  30
ENDBRANCH  22  24
ENDBRANCH   1  22
TORSDOF 9
ENDMDL
MODEL 3
REMARK VINA RESULT:     -11.7      4.273     11.512
REMARK  Name = 5287728
REMARK  9 active torsions:
REMARK  status: ('A' for Active; 'I' for Inactive)
REMARK    1  A    between atoms: S_1  and  N_4
REMARK    2  A    between atoms: S_1  and  N_22
REMARK    3  A    between atoms: C_5  and  N_10
REMARK    4  A    between atoms: N_10  and  C_13
REMARK    5  A    between atoms: C_13  and  C_14
REMARK    6  A    between atoms: C_15  and  O_20
REMARK    7  A    between atoms: N_22  and  C_24
REMARK    8  A    between atoms: C_27  and  O_30
REMARK    9  A    between atoms: O_30  and  C_32
REMARK                            x       y       z     vdW  Elec       q    Type
REMARK                         _______ _______ _______ _____ _____    ______ ____
ROOT
ATOM      1  S   UNL     1      35.062 -18.515 -22.369  0.00  0.00    +0.113 S 
ATOM      2  O   UNL     1      34.626 -19.210 -23.567  0.00  0.00    -0.138 OA
ATOM      3  O   UNL     1      36.455 -18.569 -21.963  0.00  0.00    -0.138 OA
ENDROOT
BRANCH   1   4
ATOM      4  N   UNL     1      34.600 -16.870 -22.511  0.00  0.00    -0.143 NA
ATOM      5  C   UNL     1      34.489 -13.972 -22.734  0.00  0.00    -0.059 C 
ATOM      6  C   UNL     1      34.138 -14.700 -21.432  0.00  0.00    -0.002 C 
ATOM      7  C   UNL     1      34.239 -14.889 -23.937  0.00  0.00    -0.002 C 
ATOM      8  C   UNL     1      34.897 -16.020 -21.321  0.00  0.00    +0.095 C 
ATOM      9  C   UNL     1      34.996 -16.206 -23.789  0.00  0.00    +0.095 C 
BRANCH   5  10
ATOM     10  N   UNL     1      33.692 -12.754 -22.858  0.00  0.00    +0.388 N 
ATOM     11  H   UNL     1      33.572 -12.532 -23.846  0.00  0.00    -0.084 HD
ATOM     12  H   UNL     1      34.177 -11.995 -22.379  0.00  0.00    -0.084 HD
BRANCH  10  13
ATOM     13  C   UNL     1      32.383 -12.931 -22.247  0.00  0.00    -0.051 C 
BRANCH  13  14
ATOM     14  C   UNL     1      32.075 -11.839 -21.257  0.00  0.00    -0.010 C 
ATOM     15  C   UNL     1      32.133 -10.506 -21.642  0.00  0.00    +0.128 C 
ATOM     16  C   UNL     1      31.734 -12.191 -19.956  0.00  0.00    -0.003 C 
ATOM     17  C   UNL     1      31.845  -9.508 -20.712  0.00  0.00    +0.036 C 
ATOM     18  C   UNL     1      31.447 -11.192 -19.026  0.00  0.00    -0.000 C 
ATOM     19  C   UNL     1      31.502  -9.851 -19.404  0.00  0.00    +0.003 C 
BRANCH  15  20
ATOM     20  O   UNL     1      32.466 -10.154 -22.915  0.00  0.00    -0.506 OA
ATOM     21  H   UNL     1      33.330 -10.322 -23.237  0.00  0.00    +0.292 HD
ENDBRANCH  15  20
ENDBRANCH  13  14
ENDBRANCH  10  13
ENDBRANCH   5  10
ENDBRANCH   1   4
BRANCH   1  22
ATOM     22  N   UNL     1      34.045 -19.023 -21.071  0.00  0.00    -0.205 N 
ATOM     23  H   UNL     1      33.213 -18.546 -20.850  0.00  0.00    +0.175 HD
BRANCH  22  24
ATOM     24  C   UNL     1      34.472 -20.178 -20.324  0.00  0.00    +0.069 C 
ATOM     25  C   UNL     1      33.522 -21.045 -19.799  0.00  0.00    +0.053 C 
ATOM     26  C   UNL     1      35.829 -20.411 -20.138  0.00  0.00    +0.016 C 
ATOM     27  C   UNL     1      33.937 -22.163 -19.076  0.00  0.00    +0.147 C 
ATOM     28  C   UNL     1      36.243 -21.529 -19.415  0.00  0.00    +0.004 C 
ATOM     29  C   UNL     1      35.297 -22.405 -18.884  0.00  0.00    +0.038 C 
BRANCH  27  30
ATOM     30  O   UNL     1      33.013 -23.017 -18.556  0.00  0.00    -0.453 OA
BRANCH  30  32
ATOM     31  F   UNL     1      32.489 -23.197 -13.094  0.00  0.00    -0.204 F 
ATOM     32  C   UNL     1      32.881 -23.062 -17.178  0.00  0.00    +0.145 C 
ATOM     33  C   UNL     1      33.989 -23.359 -16.404  0.00  0.00    +0.040 C 
ATOM     34  C   UNL     1      31.645 -22.810 -16.612  0.00  0.00    +0.040 C 
ATOM     35  C   UNL     1      33.855 -23.404 -15.017  0.00  0.00    +0.033 C 
ATOM     36  C   UNL     1      31.511 -22.856 -15.224  0.00  0.00    +0.033 C 
ATOM     37  C   UNL     1      32.617 -23.153 -14.427  0.00  0.00    +0.140 C 
ENDBRANCH  30  32
ENDBRANCH  27  30
ENDBRANCH  22  24
ENDBRANCH   1  22
TORSDOF 9
ENDMDL
MODEL 4
REMARK VINA RESULT:     -11.7      5.885     12.457
REMARK  Name = 5287728
REMARK  9 active torsions:
REMARK  status: ('A' for Active; 'I' for Inactive)
REMARK    1  A    between atoms: S_1  and  N_4
REMARK    2  A    between atoms: S_1  and  N_22
REMARK    3  A    between atoms: C_5  and  N_10
REMARK    4  A    between atoms: N_10  and  C_13
REMARK    5  A    between atoms: C_13  and  C_14
REMARK    6  A    between atoms: C_15  and  O_20
REMARK    7  A    between atoms: N_22  and  C_24
REMARK    8  A    between atoms: C_27  and  O_30
REMARK    9  A    between atoms: O_30  and  C_32
REMARK                            x       y       z     vdW  Elec       q    Type
REMARK                         _______ _______ _______ _____ _____    ______ ____
ROOT
ATOM      1  S   UNL     1      33.776 -22.692 -18.194  0.00  0.00    +0.113 S 
ATOM      2  O   UNL     1      32.522 -22.235 -17.624  0.00  0.00    -0.138 OA
ATOM      3  O   UNL     1      33.818 -23.916 -18.974  0.00  0.00    -0.138 OA
ENDROOT
BRANCH   1   4
ATOM      4  N   UNL     1      34.424 -21.419 -19.143  0.00  0.00    -0.143 NA
ATOM      5  C   UNL     1      35.458 -19.712 -21.258  0.00  0.00    -0.059 C 
ATOM      6  C   UNL     1      36.377 -20.364 -20.220  0.00  0.00    -0.002 C 
ATOM      7  C   UNL     1      34.052 -19.523 -20.677  0.00  0.00    -0.002 C 
ATOM      8  C   UNL     1      35.782 -21.674 -19.708  0.00  0.00    +0.095 C 
ATOM      9  C   UNL     1      33.492 -20.844 -20.158  0.00  0.00    +0.095 C 
BRANCH   5  10
ATOM     10  N   UNL     1      36.006 -18.423 -21.673  0.00  0.00    +0.388 N 
ATOM     11  H   UNL     1      37.025 -18.476 -21.669  0.00  0.00    -0.084 HD
ATOM     12  H   UNL     1      35.685 -17.706 -21.024  0.00  0.00    -0.084 HD
BRANCH  10  13
ATOM     13  C   UNL     1      35.552 -18.077 -23.013  0.00  0.00    -0.051 C 
BRANCH  13  14
ATOM     14  C   UNL     1      34.964 -16.693 -23.064  0.00  0.00    -0.010 C 
ATOM     15  C   UNL     1      34.601 -16.130 -24.281  0.00  0.00    +0.128 C 
ATOM     16  C   UNL     1      34.792 -15.993 -21.876  0.00  0.00    -0.003 C 
ATOM     17  C   UNL     1      34.057 -14.846 -24.311  0.00  0.00    +0.036 C 
ATOM     18  C   UNL     1      34.248 -14.709 -21.907  0.00  0.00    -0.000 C 
ATOM     19  C   UNL     1      33.881 -14.136 -23.124  0.00  0.00    +0.003 C 
BRANCH  15  20
ATOM     20  O   UNL     1      34.766 -16.811 -25.450  0.00  0.00    -0.506 OA
ATOM     21  H   UNL     1      34.560 -17.724 -25.494  0.00  0.00    +0.292 HD
ENDBRANCH  15  20
ENDBRANCH  13  14
ENDBRANCH  10  13
ENDBRANCH   5  10
ENDBRANCH   1   4
BRANCH   1  22
ATOM     22  N   UNL     1      34.935 -22.763 -16.918  0.00  0.00    -0.205 N 
ATOM     23  H   UNL     1      35.846 -22.404 -17.027  0.00  0.00    +0.175 HD
BRANCH  22  24
ATOM     24  C   UNL     1      34.508 -23.371 -15.685  0.00  0.00    +0.069 C 
ATOM     25  C   UNL     1      33.217 -23.147 -15.221  0.00  0.00    +0.053 C 
ATOM     26  C   UNL     1      35.390 -24.175 -14.974  0.00  0.00    +0.016 C 
ATOM     27  C   UNL     1      32.804 -23.736 -14.025  0.00  0.00    +0.147 C 
ATOM     28  C   UNL     1      34.976 -24.763 -13.780  0.00  0.00    +0.004 C 
ATOM     29  C   UNL     1      33.684 -24.544 -13.306  0.00  0.00    +0.038 C 
BRANCH  27  30
ATOM     30  O   UNL     1      31.543 -23.520 -13.562  0.00  0.00    -0.453 OA
BRANCH  30  32
ATOM     31  F   UNL     1      27.406 -23.895 -17.153  0.00  0.00    -0.204 F 
ATOM     32  C   UNL     1      30.499 -23.615 -14.468  0.00  0.00    +0.145 C 
ATOM     33  C   UNL     1      30.097 -24.864 -14.904  0.00  0.00    +0.040 C 
ATOM     34  C   UNL     1      29.886 -22.458 -14.912  0.00  0.00    +0.040 C 
ATOM     35  C   UNL     1      29.046 -24.960 -15.815  0.00  0.00    +0.033 C 
ATOM     36  C   UNL     1      28.836 -22.552 -15.825  0.00  0.00    +0.033 C 
ATOM     37  C   UNL     1      28.416 -23.804 -16.276  0.00  0.00    +0.140 C 
ENDBRANCH  30  32
ENDBRANCH  27  30
ENDBRANCH  22  24
ENDBRANCH   1  22
TORSDOF 9
ENDMDL
MODEL 5
REMARK VINA RESULT:     -11.4      3.507      6.073
REMARK  Name = 5287728
REMARK  9 active torsions:
REMARK  status: ('A' for Active; 'I' for Inactive)
REMARK    1  A    between atoms: S_1  and  N_4
REMARK    2  A    between atoms: S_1  and  N_22
REMARK    3  A    between atoms: C_5  and  N_10
REMARK    4  A    between atoms: N_10  and  C_13
REMARK    5  A    between atoms: C_13  and  C_14
REMARK    6  A    between atoms: C_15  and  O_20
REMARK    7  A    between atoms: N_22  and  C_24
REMARK    8  A    between atoms: C_27  and  O_30
REMARK    9  A    between atoms: O_30  and  C_32
REMARK                            x       y       z     vdW  Elec       q    Type
REMARK                         _______ _______ _______ _____ _____    ______ ____
ROOT
ATOM      1  S   UNL     1      36.191 -18.797 -21.395  0.00  0.00    +0.113 S 
ATOM      2  O   UNL     1      37.508 -18.725 -20.789  0.00  0.00    -0.138 OA
ATOM      3  O   UNL     1      36.049 -19.196 -22.784  0.00  0.00    -0.138 OA
ENDROOT
BRANCH   1   4
ATOM      4  N   UNL     1      35.218 -19.827 -20.430  0.00  0.00    -0.143 NA
ATOM      5  C   UNL     1      33.609 -21.987 -19.332  0.00  0.00    -0.059 C 
ATOM      6  C   UNL     1      32.981 -20.685 -19.840  0.00  0.00    -0.002 C 
ATOM      7  C   UNL     1      35.051 -21.737 -18.877  0.00  0.00    -0.002 C 
ATOM      8  C   UNL     1      33.834 -20.057 -20.940  0.00  0.00    +0.095 C 
ATOM      9  C   UNL     1      35.873 -21.094 -19.990  0.00  0.00    +0.095 C 
BRANCH   5  10
ATOM     10  N   UNL     1      32.821 -22.525 -18.227  0.00  0.00    +0.388 N 
ATOM     11  H   UNL     1      32.233 -23.284 -18.573  0.00  0.00    -0.084 HD
ATOM     12  H   UNL     1      32.244 -21.778 -17.840  0.00  0.00    -0.084 HD
BRANCH  10  13
ATOM     13  C   UNL     1      33.688 -23.036 -17.176  0.00  0.00    -0.051 C 
BRANCH  13  14
ATOM     14  C   UNL     1      32.932 -23.292 -15.900  0.00  0.00    -0.010 C 
ATOM     15  C   UNL     1      33.559 -23.906 -14.823  0.00  0.00    +0.128 C 
ATOM     16  C   UNL     1      31.600 -22.903 -15.822  0.00  0.00    -0.003 C 
ATOM     17  C   UNL     1      32.843 -24.135 -13.649  0.00  0.00    +0.036 C 
ATOM     18  C   UNL     1      30.884 -23.134 -14.646  0.00  0.00    -0.000 C 
ATOM     19  C   UNL     1      31.505 -23.749 -13.561  0.00  0.00    +0.003 C 
BRANCH  15  20
ATOM     20  O   UNL     1      34.865 -24.289 -14.893  0.00  0.00    -0.506 OA
ATOM     21  H   UNL     1      35.086 -25.200 -14.907  0.00  0.00    +0.292 HD
ENDBRANCH  15  20
ENDBRANCH  13  14
ENDBRANCH  10  13
ENDBRANCH   5  10
ENDBRANCH   1   4
BRANCH   1  22
ATOM     22  N   UNL     1      35.412 -17.280 -21.132  0.00  0.00    -0.205 N 
ATOM     23  H   UNL     1      35.239 -16.938 -20.225  0.00  0.00    +0.175 HD
BRANCH  22  24
ATOM     24  C   UNL     1      35.025 -16.537 -22.304  0.00  0.00    +0.069 C 
ATOM     25  C   UNL     1      34.812 -15.167 -22.207  0.00  0.00    +0.053 C 
ATOM     26  C   UNL     1      34.869 -17.198 -23.515  0.00  0.00    +0.016 C 
ATOM     27  C   UNL     1      34.437 -14.448 -23.343  0.00  0.00    +0.147 C 
ATOM     28  C   UNL     1      34.493 -16.479 -24.649  0.00  0.00    +0.004 C 
ATOM     29  C   UNL     1      34.278 -15.104 -24.563  0.00  0.00    +0.038 C 
BRANCH  27  30
ATOM     30  O   UNL     1      34.225 -13.106 -23.258  0.00  0.00    -0.453 OA
BRANCH  30  32
ATOM     31  F   UNL     1      30.409 -11.342 -19.726  0.00  0.00    -0.204 F 
ATOM     32  C   UNL     1      33.263 -12.661 -22.367  0.00  0.00    +0.145 C 
ATOM     33  C   UNL     1      32.862 -13.493 -21.336  0.00  0.00    +0.040 C 
ATOM     34  C   UNL     1      32.727 -11.396 -22.530  0.00  0.00    +0.040 C 
ATOM     35  C   UNL     1      31.893 -13.044 -20.439  0.00  0.00    +0.033 C 
ATOM     36  C   UNL     1      31.757 -10.948 -21.634  0.00  0.00    +0.033 C 
ATOM     37  C   UNL     1      31.340 -11.772 -20.588  0.00  0.00    +0.140 C 
ENDBRANCH  30  32
ENDBRANCH  27  30
ENDBRANCH  22  24
ENDBRANCH   1  22
TORSDOF 9
ENDMDL
MODEL 6
REMARK VINA RESULT:     -11.3      3.555     11.248
REMARK  Name = 5287728
REMARK  9 active torsions:
REMARK  status: ('A' for Active; 'I' for Inactive)
REMARK    1  A    between atoms: S_1  and  N_4
REMARK    2  A    between atoms: S_1  and  N_22
REMARK    3  A    between atoms: C_5  and  N_10
REMARK    4  A    between atoms: N_10  and  C_13
REMARK    5  A    between atoms: C_13  and  C_14
REMARK    6  A    between atoms: C_15  and  O_20
REMARK    7  A    between atoms: N_22  and  C_24
REMARK    8  A    between atoms: C_27  and  O_30
REMARK    9  A    between atoms: O_30  and  C_32
REMARK                            x       y       z     vdW  Elec       q    Type
REMARK                         _______ _______ _______ _____ _____    ______ ____
ROOT
ATOM      1  S   UNL     1      33.798 -14.364 -21.066  0.00  0.00    +0.113 S 
ATOM      2  O   UNL     1      34.849 -14.280 -20.069  0.00  0.00    -0.138 OA
ATOM      3  O   UNL     1      32.663 -15.246 -20.855  0.00  0.00    -0.138 OA
ENDROOT
BRANCH   1   4
ATOM      4  N   UNL     1      33.210 -12.779 -21.354  0.00  0.00    -0.143 NA
ATOM      5  C   UNL     1      31.705 -10.423 -22.153  0.00  0.00    -0.059 C 
ATOM      6  C   UNL     1      32.993 -10.844 -22.869  0.00  0.00    -0.002 C 
ATOM      7  C   UNL     1      31.714 -10.927 -20.706  0.00  0.00    -0.002 C 
ATOM      8  C   UNL     1      33.197 -12.355 -22.785  0.00  0.00    +0.095 C 
ATOM      9  C   UNL     1      31.937 -12.436 -20.654  0.00  0.00    +0.095 C 
BRANCH   5  10
ATOM     10  N   UNL     1      31.573  -8.968 -22.176  0.00  0.00    +0.388 N 
ATOM     11  H   UNL     1      30.817  -8.690 -21.550  0.00  0.00    -0.084 HD
ATOM     12  H   UNL     1      31.371  -8.672 -23.131  0.00  0.00    -0.084 HD
BRANCH  10  13
ATOM     13  C   UNL     1      32.809  -8.332 -21.743  0.00  0.00    -0.051 C 
BRANCH  13  14
ATOM     14  C   UNL     1      33.358  -7.402 -22.791  0.00  0.00    -0.010 C 
ATOM     15  C   UNL     1      32.537  -6.452 -23.386  0.00  0.00    +0.128 C 
ATOM     16  C   UNL     1      34.695  -7.513 -23.151  0.00  0.00    -0.003 C 
ATOM     17  C   UNL     1      33.061  -5.598 -24.355  0.00  0.00    +0.036 C 
ATOM     18  C   UNL     1      35.219  -6.659 -24.123  0.00  0.00    -0.000 C 
ATOM     19  C   UNL     1      34.403  -5.702 -24.724  0.00  0.00    +0.003 C 
BRANCH  15  20
ATOM     20  O   UNL     1      31.224  -6.337 -23.037  0.00  0.00    -0.506 OA
ATOM     21  H   UNL     1      30.972  -6.395 -22.136  0.00  0.00    +0.292 HD
ENDBRANCH  15  20
ENDBRANCH  13  14
ENDBRANCH  10  13
ENDBRANCH   5  10
ENDBRANCH   1   4
BRANCH   1  22
ATOM     22  N   UNL     1      34.543 -14.710 -22.584  0.00  0.00    -0.205 N 
ATOM     23  H   UNL     1      34.770 -13.996 -23.222  0.00  0.00    +0.175 HD
BRANCH  22  24
ATOM     24  C   UNL     1      34.817 -16.094 -22.873  0.00  0.00    +0.069 C 
ATOM     25  C   UNL     1      35.409 -16.893 -21.902  0.00  0.00    +0.053 C 
ATOM     26  C   UNL     1      34.485 -16.614 -24.118  0.00  0.00    +0.016 C 
ATOM     27  C   UNL     1      35.675 -18.233 -22.184  0.00  0.00    +0.147 C 
ATOM     28  C   UNL     1      34.751 -17.954 -24.397  0.00  0.00    +0.004 C 
ATOM     29  C   UNL     1      35.346 -18.763 -23.431  0.00  0.00    +0.038 C 
BRANCH  27  30
ATOM     30  O   UNL     1      36.257 -19.023 -21.240  0.00  0.00    -0.453 OA
BRANCH  30  32
ATOM     31  F   UNL     1      33.056 -22.602 -18.577  0.00  0.00    -0.204 F 
ATOM     32  C   UNL     1      35.450 -19.926 -20.568  0.00  0.00    +0.145 C 
ATOM     33  C   UNL     1      34.075 -19.799 -20.661  0.00  0.00    +0.040 C 
ATOM     34  C   UNL     1      36.038 -20.931 -19.823  0.00  0.00    +0.040 C 
ATOM     35  C   UNL     1      33.262 -20.708 -19.985  0.00  0.00    +0.033 C 
ATOM     36  C   UNL     1      35.225 -21.840 -19.145  0.00  0.00    +0.033 C 
ATOM     37  C   UNL     1      33.837 -21.728 -19.227  0.00  0.00    +0.140 C 
ENDBRANCH  30  32
ENDBRANCH  27  30
ENDBRANCH  22  24
ENDBRANCH   1  22
TORSDOF 9
ENDMDL
MODEL 7
REMARK VINA RESULT:     -11.3      1.455      1.696
REMARK  Name = 5287728
REMARK  9 active torsions:
REMARK  status: ('A' for Active; 'I' for Inactive)
REMARK    1  A    between atoms: S_1  and  N_4
REMARK    2  A    between atoms: S_1  and  N_22
REMARK    3  A    between atoms: C_5  and  N_10
REMARK    4  A    between atoms: N_10  and  C_13
REMARK    5  A    between atoms: C_13  and  C_14
REMARK    6  A    between atoms: C_15  and  O_20
REMARK    7  A    between atoms: N_22  and  C_24
REMARK    8  A    between atoms: C_27  and  O_30
REMARK    9  A    between atoms: O_30  and  C_32
REMARK                            x       y       z     vdW  Elec       q    Type
REMARK                         _______ _______ _______ _____ _____    ______ ____
ROOT
ATOM      1  S   UNL     1      33.676 -14.067 -23.130  0.00  0.00    +0.113 S 
ATOM      2  O   UNL     1      34.792 -13.166 -22.908  0.00  0.00    -0.138 OA
ATOM      3  O   UNL     1      32.976 -14.059 -24.402  0.00  0.00    -0.138 OA
ENDROOT
BRANCH   1   4
ATOM      4  N   UNL     1      34.212 -15.665 -22.813  0.00  0.00    -0.143 NA
ATOM      5  C   UNL     1      35.735 -18.081 -22.265  0.00  0.00    -0.059 C 
ATOM      6  C   UNL     1      35.147 -17.789 -23.649  0.00  0.00    -0.002 C 
ATOM      7  C   UNL     1      34.910 -17.377 -21.180  0.00  0.00    -0.002 C 
ATOM      8  C   UNL     1      35.036 -16.285 -23.892  0.00  0.00    +0.095 C 
ATOM      9  C   UNL     1      34.802 -15.881 -21.459  0.00  0.00    +0.095 C 
BRANCH   5  10
ATOM     10  N   UNL     1      35.756 -19.521 -22.023  0.00  0.00    +0.388 N 
ATOM     11  H   UNL     1      36.599 -19.760 -21.500  0.00  0.00    -0.084 HD
ATOM     12  H   UNL     1      35.746 -20.004 -22.921  0.00  0.00    -0.084 HD
BRANCH  10  13
ATOM     13  C   UNL     1      34.588 -19.933 -21.258  0.00  0.00    -0.051 C 
BRANCH  13  14
ATOM     14  C   UNL     1      34.965 -20.775 -20.069  0.00  0.00    -0.010 C 
ATOM     15  C   UNL     1      33.999 -21.510 -19.395  0.00  0.00    +0.128 C 
ATOM     16  C   UNL     1      36.293 -20.801 -19.661  0.00  0.00    -0.003 C 
ATOM     17  C   UNL     1      34.365 -22.284 -18.295  0.00  0.00    +0.036 C 
ATOM     18  C   UNL     1      36.660 -21.575 -18.560  0.00  0.00    -0.000 C 
ATOM     19  C   UNL     1      35.696 -22.317 -17.878  0.00  0.00    +0.003 C 
BRANCH  15  20
ATOM     20  O   UNL     1      32.694 -21.489 -19.789  0.00  0.00    -0.506 OA
ATOM     21  H   UNL     1      32.475 -21.629 -20.690  0.00  0.00    +0.292 HD
ENDBRANCH  15  20
ENDBRANCH  13  14
ENDBRANCH  10  13
ENDBRANCH   5  10
ENDBRANCH   1   4
BRANCH   1  22
ATOM     22  N   UNL     1      32.556 -13.842 -21.837  0.00  0.00    -0.205 N 
ATOM     23  H   UNL     1      32.165 -14.605 -21.353  0.00  0.00    +0.175 HD
BRANCH  22  24
ATOM     24  C   UNL     1      32.221 -12.483 -21.496  0.00  0.00    +0.069 C 
ATOM     25  C   UNL     1      32.583 -11.452 -22.355  0.00  0.00    +0.053 C 
ATOM     26  C   UNL     1      31.541 -12.220 -20.314  0.00  0.00    +0.016 C 
ATOM     27  C   UNL     1      32.259 -10.136 -22.024  0.00  0.00    +0.147 C 
ATOM     28  C   UNL     1      31.218 -10.904 -19.984  0.00  0.00    +0.004 C 
ATOM     29  C   UNL     1      31.576  -9.863 -20.839  0.00  0.00    +0.038 C 
BRANCH  27  30
ATOM     30  O   UNL     1      32.610  -9.119 -22.858  0.00  0.00    -0.453 OA
BRANCH  30  32
ATOM     31  F   UNL     1      30.679  -4.106 -21.729  0.00  0.00    -0.204 F 
ATOM     32  C   UNL     1      32.123  -7.855 -22.573  0.00  0.00    +0.145 C 
ATOM     33  C   UNL     1      30.967  -7.421 -23.198  0.00  0.00    +0.040 C 
ATOM     34  C   UNL     1      32.804  -7.058 -21.671  0.00  0.00    +0.040 C 
ATOM     35  C   UNL     1      30.477  -6.148 -22.910  0.00  0.00    +0.033 C 
ATOM     36  C   UNL     1      32.315  -5.784 -21.385  0.00  0.00    +0.033 C 
ATOM     37  C   UNL     1      31.150  -5.329 -22.004  0.00  0.00    +0.140 C 
ENDBRANCH  30  32
ENDBRANCH  27  30
ENDBRANCH  22  24
ENDBRANCH   1  22
TORSDOF 9
ENDMDL
MODEL 8
REMARK VINA RESULT:     -11.2      5.945     12.704
REMARK  Name = 5287728
REMARK  9 active torsions:
REMARK  status: ('A' for Active; 'I' for Inactive)
REMARK    1  A    between atoms: S_1  and  N_4
REMARK    2  A    between atoms: S_1  and  N_22
REMARK    3  A    between atoms: C_5  and  N_10
REMARK    4  A    between atoms: N_10  and  C_13
REMARK    5  A    between atoms: C_13  and  C_14
REMARK    6  A    between atoms: C_15  and  O_20
REMARK    7  A    between atoms: N_22  and  C_24
REMARK    8  A    between atoms: C_27  and  O_30
REMARK    9  A    between atoms: O_30  and  C_32
REMARK                            x       y       z     vdW  Elec       q    Type
REMARK                         _______ _______ _______ _____ _____    ______ ____
ROOT
ATOM      1  S   UNL     1      33.894 -23.046 -17.882  0.00  0.00    +0.113 S 
ATOM      2  O   UNL     1      33.663 -24.357 -18.461  0.00  0.00    -0.138 OA
ATOM      3  O   UNL     1      34.922 -22.866 -16.872  0.00  0.00    -0.138 OA
ENDROOT
BRANCH   1   4
ATOM      4  N   UNL     1      34.189 -21.944 -19.162  0.00  0.00    -0.143 NA
ATOM      5  C   UNL     1      34.727 -19.621 -20.827  0.00  0.00    -0.059 C 
ATOM      6  C   UNL     1      33.332 -20.249 -20.736  0.00  0.00    -0.002 C 
ATOM      7  C   UNL     1      35.801 -20.673 -20.531  0.00  0.00    -0.002 C 
ATOM      8  C   UNL     1      33.122 -20.924 -19.383  0.00  0.00    +0.095 C 
ATOM      9  C   UNL     1      35.555 -21.342 -19.182  0.00  0.00    +0.095 C 
BRANCH   5  10
ATOM     10  N   UNL     1      34.934 -19.053 -22.157  0.00  0.00    +0.388 N 
ATOM     11  H   UNL     1      34.031 -18.796 -22.556  0.00  0.00    -0.084 HD
ATOM     12  H   UNL     1      35.396 -19.749 -22.743  0.00  0.00    -0.084 HD
BRANCH  10  13
ATOM     13  C   UNL     1      35.779 -17.870 -22.086  0.00  0.00    -0.051 C 
BRANCH  13  14
ATOM     14  C   UNL     1      34.982 -16.603 -22.247  0.00  0.00    -0.010 C 
ATOM     15  C   UNL     1      34.639 -16.147 -23.513  0.00  0.00    +0.128 C 
ATOM     16  C   UNL     1      34.600 -15.903 -21.110  0.00  0.00    -0.003 C 
ATOM     17  C   UNL     1      33.900 -14.971 -23.645  0.00  0.00    +0.036 C 
ATOM     18  C   UNL     1      33.862 -14.726 -21.242  0.00  0.00    -0.000 C 
ATOM     19  C   UNL     1      33.512 -14.261 -22.508  0.00  0.00    +0.003 C 
BRANCH  15  20
ATOM     20  O   UNL     1      35.010 -16.829 -24.633  0.00  0.00    -0.506 OA
ATOM     21  H   UNL     1      35.515 -17.615 -24.557  0.00  0.00    +0.292 HD
ENDBRANCH  15  20
ENDBRANCH  13  14
ENDBRANCH  10  13
ENDBRANCH   5  10
ENDBRANCH   1   4
BRANCH   1  22
ATOM     22  N   UNL     1      32.380 -22.459 -17.297  0.00  0.00    -0.205 N 
ATOM     23  H   UNL     1      31.847 -21.807 -17.806  0.00  0.00    +0.175 HD
BRANCH  22  24
ATOM     24  C   UNL     1      31.932 -22.970 -16.027  0.00  0.00    +0.069 C 
ATOM     25  C   UNL     1      32.865 -23.279 -15.045  0.00  0.00    +0.053 C 
ATOM     26  C   UNL     1      30.573 -23.147 -15.799  0.00  0.00    +0.016 C 
ATOM     27  C   UNL     1      32.431 -23.775 -13.815  0.00  0.00    +0.147 C 
ATOM     28  C   UNL     1      30.140 -23.642 -14.570  0.00  0.00    +0.004 C 
ATOM     29  C   UNL     1      31.068 -23.956 -13.578  0.00  0.00    +0.038 C 
BRANCH  27  30
ATOM     30  O   UNL     1      33.337 -24.083 -12.848  0.00  0.00    -0.453 OA
BRANCH  30  32
ATOM     31  F   UNL     1      38.566 -24.775 -14.374  0.00  0.00    -0.204 F 
ATOM     32  C   UNL     1      34.656 -24.257 -13.233  0.00  0.00    +0.145 C 
ATOM     33  C   UNL     1      34.947 -25.130 -14.266  0.00  0.00    +0.040 C 
ATOM     34  C   UNL     1      35.649 -23.554 -12.575  0.00  0.00    +0.040 C 
ATOM     35  C   UNL     1      36.274 -25.305 -14.654  0.00  0.00    +0.033 C 
ATOM     36  C   UNL     1      36.977 -23.730 -12.962  0.00  0.00    +0.033 C 
ATOM     37  C   UNL     1      37.290 -24.606 -14.002  0.00  0.00    +0.140 C 
ENDBRANCH  30  32
ENDBRANCH  27  30
ENDBRANCH  22  24
ENDBRANCH   1  22
TORSDOF 9
ENDMDL
MODEL 9
REMARK VINA RESULT:     -11.2      6.093     13.344
REMARK  Name = 5287728
REMARK  9 active torsions:
REMARK  status: ('A' for Active; 'I' for Inactive)
REMARK    1  A    between atoms: S_1  and  N_4
REMARK    2  A    between atoms: S_1  and  N_22
REMARK    3  A    between atoms: C_5  and  N_10
REMARK    4  A    between atoms: N_10  and  C_13
REMARK    5  A    between atoms: C_13  and  C_14
REMARK    6  A    between atoms: C_15  and  O_20
REMARK    7  A    between atoms: N_22  and  C_24
REMARK    8  A    between atoms: C_27  and  O_30
REMARK    9  A    between atoms: O_30  and  C_32
REMARK                            x       y       z     vdW  Elec       q    Type
REMARK                         _______ _______ _______ _____ _____    ______ ____
ROOT
ATOM      1  S   UNL     1      33.662 -22.718 -18.294  0.00  0.00    +0.113 S 
ATOM      2  O   UNL     1      32.358 -22.267 -17.840  0.00  0.00    -0.138 OA
ATOM      3  O   UNL     1      33.782 -23.945 -19.059  0.00  0.00    -0.138 OA
ENDROOT
BRANCH   1   4
ATOM      4  N   UNL     1      34.383 -21.444 -19.188  0.00  0.00    -0.143 NA
ATOM      5  C   UNL     1      35.569 -19.733 -21.218  0.00  0.00    -0.059 C 
ATOM      6  C   UNL     1      36.412 -20.401 -20.126  0.00  0.00    -0.002 C 
ATOM      7  C   UNL     1      34.130 -19.535 -20.730  0.00  0.00    -0.002 C 
ATOM      8  C   UNL     1      35.772 -21.708 -19.664  0.00  0.00    +0.095 C 
ATOM      9  C   UNL     1      33.525 -20.854 -20.258  0.00  0.00    +0.095 C 
BRANCH   5  10
ATOM     10  N   UNL     1      36.155 -18.447 -21.587  0.00  0.00    +0.388 N 
ATOM     11  H   UNL     1      36.236 -18.394 -22.603  0.00  0.00    -0.084 HD
ATOM     12  H   UNL     1      37.075 -18.369 -21.153  0.00  0.00    -0.084 HD
BRANCH  10  13
ATOM     13  C   UNL     1      35.324 -17.348 -21.117  0.00  0.00    -0.051 C 
BRANCH  13  14
ATOM     14  C   UNL     1      34.901 -16.444 -22.244  0.00  0.00    -0.010 C 
ATOM     15  C   UNL     1      34.431 -15.165 -21.978  0.00  0.00    +0.128 C 
ATOM     16  C   UNL     1      34.991 -16.913 -23.549  0.00  0.00    -0.003 C 
ATOM     17  C   UNL     1      34.044 -14.340 -23.034  0.00  0.00    +0.036 C 
ATOM     18  C   UNL     1      34.603 -16.089 -24.605  0.00  0.00    -0.000 C 
ATOM     19  C   UNL     1      34.130 -14.803 -24.348  0.00  0.00    +0.003 C 
BRANCH  15  20
ATOM     20  O   UNL     1      34.341 -14.698 -20.701  0.00  0.00    -0.506 OA
ATOM     21  H   UNL     1      34.952 -14.057 -20.392  0.00  0.00    +0.292 HD
ENDBRANCH  15  20
ENDBRANCH  13  14
ENDBRANCH  10  13
ENDBRANCH   5  10
ENDBRANCH   1   4
BRANCH   1  22
ATOM     22  N   UNL     1      34.703 -22.772 -16.918  0.00  0.00    -0.205 N 
ATOM     23  H   UNL     1      35.625 -22.428 -16.955  0.00  0.00    +0.175 HD
BRANCH  22  24
ATOM     24  C   UNL     1      34.159 -23.346 -15.714  0.00  0.00    +0.069 C 
ATOM     25  C   UNL     1      35.020 -23.801 -14.723  0.00  0.00    +0.053 C 
ATOM     26  C   UNL     1      32.782 -23.437 -15.559  0.00  0.00    +0.016 C 
ATOM     27  C   UNL     1      34.492 -24.357 -13.557  0.00  0.00    +0.147 C 
ATOM     28  C   UNL     1      32.256 -23.993 -14.394  0.00  0.00    +0.004 C 
ATOM     29  C   UNL     1      33.110 -24.452 -13.393  0.00  0.00    +0.038 C 
BRANCH  27  30
ATOM     30  O   UNL     1      35.327 -24.807 -12.581  0.00  0.00    -0.453 OA
BRANCH  30  32
ATOM     31  F   UNL     1      40.386 -26.348 -14.055  0.00  0.00    -0.204 F 
ATOM     32  C   UNL     1      36.603 -25.196 -12.953  0.00  0.00    +0.145 C 
ATOM     33  C   UNL     1      36.756 -26.248 -13.837  0.00  0.00    +0.040 C 
ATOM     34  C   UNL     1      37.692 -24.521 -12.431  0.00  0.00    +0.040 C 
ATOM     35  C   UNL     1      38.041 -26.639 -14.212  0.00  0.00    +0.033 C 
ATOM     36  C   UNL     1      38.977 -24.913 -12.804  0.00  0.00    +0.033 C 
ATOM     37  C   UNL     1      39.151 -25.972 -13.695  0.00  0.00    +0.140 C 
ENDBRANCH  30  32
ENDBRANCH  27  30
ENDBRANCH  22  24
ENDBRANCH   1  22
TORSDOF 9
ENDMDL
