MODEL 1
REMARK VINA RESULT:     -11.3      0.000      0.000
REMARK  Name = 25113615
REMARK  7 active torsions:
REMARK  status: ('A' for Active; 'I' for Inactive)
REMARK    1  A    between atoms: N_2  and  C_20
REMARK    2  A    between atoms: C_3  and  C_7
REMARK    3  A    between atoms: C_11  and  C_12
REMARK    4  A    between atoms: C_12  and  C_13
REMARK    5  A    between atoms: C_13  and  C_14
REMARK    6  A    between atoms: C_20  and  C_21
REMARK    7  A    between atoms: C_26  and  C_29
REMARK                            x       y       z     vdW  Elec       q    Type
REMARK                         _______ _______ _______ _____ _____    ______ ____
ROOT
ATOM      1  O   UNL     1      35.513 -23.496 -13.312  0.00  0.00    -0.273 OA
ATOM      2  N   UNL     1      33.905 -25.031 -14.003  0.00  0.00    -0.299 N 
ATOM      3  C   UNL     1      35.156 -24.440 -14.014  0.00  0.00    +0.241 C 
ATOM      4  H   UNL     1      33.737 -25.784 -14.615  0.00  0.00    +0.150 HD
ENDROOT
BRANCH   3   7
ATOM      5  O   UNL     1      38.738 -22.668 -15.743  0.00  0.00    -0.275 OA
ATOM      6  N   UNL     1      37.341 -24.349 -14.992  0.00  0.00    -0.273 N 
ATOM      7  C   UNL     1      36.087 -25.099 -14.986  0.00  0.00    +0.152 C 
ATOM      8  C   UNL     1      36.478 -26.492 -14.500  0.00  0.00    +0.031 C 
ATOM      9  C   UNL     1      37.680 -26.227 -13.595  0.00  0.00    +0.024 C 
ATOM     10  C   UNL     1      38.390 -25.078 -14.291  0.00  0.00    +0.094 C 
ATOM     11  C   UNL     1      37.616 -23.176 -15.674  0.00  0.00    +0.226 C 
BRANCH  11  12
ATOM     12  C   UNL     1      36.446 -22.518 -16.361  0.00  0.00    +0.090 C 
BRANCH  12  13
ATOM     13  C   UNL     1      36.841 -22.036 -17.749  0.00  0.00    +0.036 C 
BRANCH  13  14
ATOM     14  C   UNL     1      35.662 -21.624 -18.596  0.00  0.00    -0.022 C 
ATOM     15  C   UNL     1      35.852 -20.789 -19.697  0.00  0.00    -0.004 C 
ATOM     16  C   UNL     1      34.382 -22.077 -18.278  0.00  0.00    -0.004 C 
ATOM     17  C   UNL     1      34.763 -20.407 -20.481  0.00  0.00    -0.000 C 
ATOM     18  C   UNL     1      33.293 -21.695 -19.061  0.00  0.00    -0.000 C 
ATOM     19  C   UNL     1      33.483 -20.860 -20.162  0.00  0.00    -0.000 C 
ENDBRANCH  13  14
ENDBRANCH  12  13
ENDBRANCH  11  12
ENDBRANCH   3   7
BRANCH   2  20
ATOM     20  C   UNL     1      32.833 -24.597 -13.136  0.00  0.00    +0.116 C 
BRANCH  20  21
ATOM     21  C   UNL     1      31.585 -24.273 -13.906  0.00  0.00    -0.003 C 
ATOM     22  C   UNL     1      30.496 -25.143 -13.866  0.00  0.00    -0.003 C 
ATOM     23  C   UNL     1      31.516 -23.104 -14.665  0.00  0.00    -0.003 C 
ATOM     24  C   UNL     1      29.337 -24.844 -14.583  0.00  0.00    +0.002 C 
ATOM     25  C   UNL     1      30.357 -22.805 -15.382  0.00  0.00    +0.002 C 
ATOM     26  C   UNL     1      29.268 -23.675 -15.341  0.00  0.00    +0.031 C 
BRANCH  26  29
ATOM     27  N   UNL     1      27.145 -22.420 -15.624  0.00  0.00    -0.343 N 
ATOM     28  N   UNL     1      27.811 -23.984 -17.227  0.00  0.00    -0.285 NA
ATOM     29  C   UNL     1      28.060 -23.364 -16.087  0.00  0.00    +0.117 C 
ATOM     30  H   UNL     1      26.333 -22.225 -16.145  0.00  0.00    +0.144 HD
ATOM     31  H   UNL     1      27.310 -21.949 -14.776  0.00  0.00    +0.144 HD
ATOM     32  H   UNL     1      26.994 -23.775 -17.733  0.00  0.00    +0.188 HD
ENDBRANCH  26  29
ENDBRANCH  20  21
ENDBRANCH   2  20
TORSDOF 7
ENDMDL
MODEL 2
REMARK VINA RESULT:     -10.9      2.940      6.472
REMARK  Name = 25113615
REMARK  7 active torsions:
REMARK  status: ('A' for Active; 'I' for Inactive)
REMARK    1  A    between atoms: N_2  and  C_20
REMARK    2  A    between atoms: C_3  and  C_7
REMARK    3  A    between atoms: C_11  and  C_12
REMARK    4  A    between atoms: C_12  and  C_13
REMARK    5  A    between atoms: C_13  and  C_14
REMARK    6  A    between atoms: C_20  and  C_21
REMARK    7  A    between atoms: C_26  and  C_29
REMARK                            x       y       z     vdW  Elec       q    Type
REMARK                         _______ _______ _______ _____ _____    ______ ____
ROOT
ATOM      1  O   UNL     1      34.975 -24.912 -15.703  0.00  0.00    -0.273 OA
ATOM      2  N   UNL     1      34.830 -22.760 -16.580  0.00  0.00    -0.299 N 
ATOM      3  C   UNL     1      35.153 -23.699 -15.615  0.00  0.00    +0.241 C 
ATOM      4  H   UNL     1      35.021 -21.813 -16.394  0.00  0.00    +0.150 HD
ENDROOT
BRANCH   3   7
ATOM      5  O   UNL     1      34.812 -25.122 -11.514  0.00  0.00    -0.275 OA
ATOM      6  N   UNL     1      35.773 -24.064 -13.330  0.00  0.00    -0.273 N 
ATOM      7  C   UNL     1      35.788 -23.078 -14.409  0.00  0.00    +0.152 C 
ATOM      8  C   UNL     1      37.270 -22.809 -14.657  0.00  0.00    +0.031 C 
ATOM      9  C   UNL     1      37.938 -24.128 -14.277  0.00  0.00    +0.024 C 
ATOM     10  C   UNL     1      37.102 -24.615 -13.104  0.00  0.00    +0.094 C 
ATOM     11  C   UNL     1      34.715 -24.375 -12.492  0.00  0.00    +0.226 C 
BRANCH  11  12
ATOM     12  C   UNL     1      33.390 -23.740 -12.830  0.00  0.00    +0.090 C 
BRANCH  12  13
ATOM     13  C   UNL     1      32.370 -24.802 -13.212  0.00  0.00    +0.036 C 
BRANCH  13  14
ATOM     14  C   UNL     1      31.321 -24.302 -14.176  0.00  0.00    -0.022 C 
ATOM     15  C   UNL     1      30.052 -24.878 -14.187  0.00  0.00    -0.004 C 
ATOM     16  C   UNL     1      31.623 -23.264 -15.057  0.00  0.00    -0.004 C 
ATOM     17  C   UNL     1      29.082 -24.417 -15.078  0.00  0.00    -0.000 C 
ATOM     18  C   UNL     1      30.654 -22.802 -15.949  0.00  0.00    -0.000 C 
ATOM     19  C   UNL     1      29.384 -23.379 -15.959  0.00  0.00    -0.000 C 
ENDBRANCH  13  14
ENDBRANCH  12  13
ENDBRANCH  11  12
ENDBRANCH   3   7
BRANCH   2  20
ATOM     20  C   UNL     1      34.227 -23.105 -17.848  0.00  0.00    +0.116 C 
BRANCH  20  21
ATOM     21  C   UNL     1      34.419 -22.024 -18.872  0.00  0.00    -0.003 C 
ATOM     22  C   UNL     1      35.705 -21.679 -19.288  0.00  0.00    -0.003 C 
ATOM     23  C   UNL     1      33.312 -21.363 -19.406  0.00  0.00    -0.003 C 
ATOM     24  C   UNL     1      35.884 -20.672 -20.237  0.00  0.00    +0.002 C 
ATOM     25  C   UNL     1      33.492 -20.358 -20.356  0.00  0.00    +0.002 C 
ATOM     26  C   UNL     1      34.778 -20.012 -20.772  0.00  0.00    +0.031 C 
BRANCH  26  29
ATOM     27  N   UNL     1      34.798 -19.215 -23.123  0.00  0.00    -0.343 N 
ATOM     28  N   UNL     1      35.305 -17.747 -21.378  0.00  0.00    -0.285 NA
ATOM     29  C   UNL     1      34.965 -18.965 -21.763  0.00  0.00    +0.117 C 
ATOM     30  H   UNL     1      34.931 -18.492 -23.777  0.00  0.00    +0.144 HD
ATOM     31  H   UNL     1      34.548 -20.116 -23.430  0.00  0.00    +0.144 HD
ATOM     32  H   UNL     1      35.433 -17.037 -22.047  0.00  0.00    +0.188 HD
ENDBRANCH  26  29
ENDBRANCH  20  21
ENDBRANCH   2  20
TORSDOF 7
ENDMDL
MODEL 3
REMARK VINA RESULT:     -10.5      9.296     12.838
REMARK  Name = 25113615
REMARK  7 active torsions:
REMARK  status: ('A' for Active; 'I' for Inactive)
REMARK    1  A    between atoms: N_2  and  C_20
REMARK    2  A    between atoms: C_3  and  C_7
REMARK    3  A    between atoms: C_11  and  C_12
REMARK    4  A    between atoms: C_12  and  C_13
REMARK    5  A    between atoms: C_13  and  C_14
REMARK    6  A    between atoms: C_20  and  C_21
REMARK    7  A    between atoms: C_26  and  C_29
REMARK                            x       y       z     vdW  Elec       q    Type
REMARK                         _______ _______ _______ _____ _____    ______ ____
ROOT
ATOM      1  O   UNL     1      33.254 -15.286 -21.430  0.00  0.00    -0.273 OA
ATOM      2  N   UNL     1      32.952 -13.128 -22.250  0.00  0.00    -0.299 N 
ATOM      3  C   UNL     1      33.533 -14.384 -22.216  0.00  0.00    +0.241 C 
ATOM      4  H   UNL     1      33.262 -12.487 -22.930  0.00  0.00    +0.150 HD
ENDROOT
BRANCH   3   7
ATOM      5  O   UNL     1      34.646 -18.143 -24.110  0.00  0.00    -0.275 OA
ATOM      6  N   UNL     1      34.341 -15.861 -23.921  0.00  0.00    -0.273 N 
ATOM      7  C   UNL     1      34.563 -14.562 -23.290  0.00  0.00    +0.152 C 
ATOM      8  C   UNL     1      34.352 -13.551 -24.414  0.00  0.00    +0.031 C 
ATOM      9  C   UNL     1      33.343 -14.243 -25.328  0.00  0.00    +0.024 C 
ATOM     10  C   UNL     1      33.744 -15.706 -25.242  0.00  0.00    +0.094 C 
ATOM     11  C   UNL     1      34.750 -17.101 -23.460  0.00  0.00    +0.226 C 
BRANCH  11  12
ATOM     12  C   UNL     1      35.354 -17.128 -22.078  0.00  0.00    +0.090 C 
BRANCH  12  13
ATOM     13  C   UNL     1      36.260 -18.340 -21.915  0.00  0.00    +0.036 C 
BRANCH  13  14
ATOM     14  C   UNL     1      35.662 -19.420 -21.046  0.00  0.00    -0.022 C 
ATOM     15  C   UNL     1      34.277 -19.560 -20.963  0.00  0.00    -0.004 C 
ATOM     16  C   UNL     1      36.494 -20.277 -20.327  0.00  0.00    -0.004 C 
ATOM     17  C   UNL     1      33.722 -20.557 -20.160  0.00  0.00    -0.000 C 
ATOM     18  C   UNL     1      35.940 -21.274 -19.524  0.00  0.00    -0.000 C 
ATOM     19  C   UNL     1      34.554 -21.414 -19.440  0.00  0.00    -0.000 C 
ENDBRANCH  13  14
ENDBRANCH  12  13
ENDBRANCH  11  12
ENDBRANCH   3   7
BRANCH   2  20
ATOM     20  C   UNL     1      31.914 -12.713 -21.334  0.00  0.00    +0.116 C 
BRANCH  20  21
ATOM     21  C   UNL     1      32.002 -11.249 -21.013  0.00  0.00    -0.003 C 
ATOM     22  C   UNL     1      32.194 -10.321 -22.037  0.00  0.00    -0.003 C 
ATOM     23  C   UNL     1      31.895 -10.816 -19.690  0.00  0.00    -0.003 C 
ATOM     24  C   UNL     1      32.278  -8.961 -21.738  0.00  0.00    +0.002 C 
ATOM     25  C   UNL     1      31.979  -9.456 -19.392  0.00  0.00    +0.002 C 
ATOM     26  C   UNL     1      32.171  -8.529 -20.417  0.00  0.00    +0.031 C 
BRANCH  26  29
ATOM     27  N   UNL     1      31.467  -6.174 -20.769  0.00  0.00    -0.343 N 
ATOM     28  N   UNL     1      33.102  -6.690 -19.181  0.00  0.00    -0.285 NA
ATOM     29  C   UNL     1      32.257  -7.111 -20.106  0.00  0.00    +0.117 C 
ATOM     30  H   UNL     1      31.543  -5.219 -20.544  0.00  0.00    +0.144 HD
ATOM     31  H   UNL     1      30.835  -6.467 -21.464  0.00  0.00    +0.144 HD
ATOM     32  H   UNL     1      33.162  -5.730 -18.970  0.00  0.00    +0.188 HD
ENDBRANCH  26  29
ENDBRANCH  20  21
ENDBRANCH   2  20
TORSDOF 7
ENDMDL
MODEL 4
REMARK VINA RESULT:     -10.0      3.249      7.070
REMARK  Name = 25113615
REMARK  7 active torsions:
REMARK  status: ('A' for Active; 'I' for Inactive)
REMARK    1  A    between atoms: N_2  and  C_20
REMARK    2  A    between atoms: C_3  and  C_7
REMARK    3  A    between atoms: C_11  and  C_12
REMARK    4  A    between atoms: C_12  and  C_13
REMARK    5  A    between atoms: C_13  and  C_14
REMARK    6  A    between atoms: C_20  and  C_21
REMARK    7  A    between atoms: C_26  and  C_29
REMARK                            x       y       z     vdW  Elec       q    Type
REMARK                         _______ _______ _______ _____ _____    ______ ____
ROOT
ATOM      1  O   UNL     1      34.324 -23.590 -16.542  0.00  0.00    -0.273 OA
ATOM      2  N   UNL     1      35.791 -22.166 -17.656  0.00  0.00    -0.299 N 
ATOM      3  C   UNL     1      35.264 -22.799 -16.543  0.00  0.00    +0.241 C 
ATOM      4  H   UNL     1      36.549 -21.550 -17.531  0.00  0.00    +0.150 HD
ENDROOT
BRANCH   3   7
ATOM      5  O   UNL     1      35.463 -25.186 -12.908  0.00  0.00    -0.275 OA
ATOM      6  N   UNL     1      36.154 -23.647 -14.487  0.00  0.00    -0.273 N 
ATOM      7  C   UNL     1      35.992 -22.434 -15.285  0.00  0.00    +0.152 C 
ATOM      8  C   UNL     1      37.419 -21.990 -15.597  0.00  0.00    +0.031 C 
ATOM      9  C   UNL     1      38.201 -23.301 -15.618  0.00  0.00    +0.024 C 
ATOM     10  C   UNL     1      37.530 -24.122 -14.529  0.00  0.00    +0.094 C 
ATOM     11  C   UNL     1      35.215 -24.238 -13.657  0.00  0.00    +0.226 C 
BRANCH  11  12
ATOM     12  C   UNL     1      33.826 -23.653 -13.703  0.00  0.00    +0.090 C 
BRANCH  12  13
ATOM     13  C   UNL     1      32.783 -24.732 -13.453  0.00  0.00    +0.036 C 
BRANCH  13  14
ATOM     14  C   UNL     1      31.448 -24.430 -14.089  0.00  0.00    -0.022 C 
ATOM     15  C   UNL     1      31.251 -23.222 -14.757  0.00  0.00    -0.004 C 
ATOM     16  C   UNL     1      30.412 -25.360 -14.009  0.00  0.00    -0.004 C 
ATOM     17  C   UNL     1      30.018 -22.942 -15.346  0.00  0.00    -0.000 C 
ATOM     18  C   UNL     1      29.178 -25.080 -14.598  0.00  0.00    -0.000 C 
ATOM     19  C   UNL     1      28.981 -23.872 -15.266  0.00  0.00    -0.000 C 
ENDBRANCH  13  14
ENDBRANCH  12  13
ENDBRANCH  11  12
ENDBRANCH   3   7
BRANCH   2  20
ATOM     20  C   UNL     1      35.283 -22.367 -18.994  0.00  0.00    +0.116 C 
BRANCH  20  21
ATOM     21  C   UNL     1      35.288 -21.096 -19.793  0.00  0.00    -0.003 C 
ATOM     22  C   UNL     1      36.496 -20.461 -20.084  0.00  0.00    -0.003 C 
ATOM     23  C   UNL     1      34.086 -20.547 -20.242  0.00  0.00    -0.003 C 
ATOM     24  C   UNL     1      36.501 -19.278 -20.824  0.00  0.00    +0.002 C 
ATOM     25  C   UNL     1      34.092 -19.365 -20.982  0.00  0.00    +0.002 C 
ATOM     26  C   UNL     1      35.300 -18.731 -21.273  0.00  0.00    +0.031 C 
BRANCH  26  29
ATOM     27  N   UNL     1      34.886 -16.292 -21.490  0.00  0.00    -0.343 N 
ATOM     28  N   UNL     1      35.714 -17.512 -23.302  0.00  0.00    -0.285 NA
ATOM     29  C   UNL     1      35.307 -17.499 -22.045  0.00  0.00    +0.117 C 
ATOM     30  H   UNL     1      34.898 -15.470 -22.031  0.00  0.00    +0.144 HD
ATOM     31  H   UNL     1      34.576 -16.262 -20.556  0.00  0.00    +0.144 HD
ATOM     32  H   UNL     1      35.719 -16.679 -23.827  0.00  0.00    +0.188 HD
ENDBRANCH  26  29
ENDBRANCH  20  21
ENDBRANCH   2  20
TORSDOF 7
ENDMDL
MODEL 5
REMARK VINA RESULT:      -9.8     11.820     15.441
REMARK  Name = 25113615
REMARK  7 active torsions:
REMARK  status: ('A' for Active; 'I' for Inactive)
REMARK    1  A    between atoms: N_2  and  C_20
REMARK    2  A    between atoms: C_3  and  C_7
REMARK    3  A    between atoms: C_11  and  C_12
REMARK    4  A    between atoms: C_12  and  C_13
REMARK    5  A    between atoms: C_13  and  C_14
REMARK    6  A    between atoms: C_20  and  C_21
REMARK    7  A    between atoms: C_26  and  C_29
REMARK                            x       y       z     vdW  Elec       q    Type
REMARK                         _______ _______ _______ _____ _____    ______ ____
ROOT
ATOM      1  O   UNL     1      33.768 -11.776 -23.265  0.00  0.00    -0.273 OA
ATOM      2  N   UNL     1      32.550  -9.954 -22.479  0.00  0.00    -0.299 N 
ATOM      3  C   UNL     1      32.815 -11.302 -22.651  0.00  0.00    +0.241 C 
ATOM      4  H   UNL     1      31.751  -9.696 -21.965  0.00  0.00    +0.150 HD
ENDROOT
BRANCH   3   7
ATOM      5  O   UNL     1      33.673 -14.725 -20.100  0.00  0.00    -0.275 OA
ATOM      6  N   UNL     1      32.485 -12.918 -20.913  0.00  0.00    -0.273 N 
ATOM      7  C   UNL     1      31.803 -12.172 -21.968  0.00  0.00    +0.152 C 
ATOM      8  C   UNL     1      30.772 -11.322 -21.229  0.00  0.00    +0.031 C 
ATOM      9  C   UNL     1      31.421 -11.082 -19.868  0.00  0.00    +0.024 C 
ATOM     10  C   UNL     1      32.150 -12.388 -19.597  0.00  0.00    +0.094 C 
ATOM     11  C   UNL     1      33.238 -14.071 -21.051  0.00  0.00    +0.226 C 
BRANCH  11  12
ATOM     12  C   UNL     1      33.514 -14.518 -22.465  0.00  0.00    +0.090 C 
BRANCH  12  13
ATOM     13  C   UNL     1      34.925 -15.077 -22.584  0.00  0.00    +0.036 C 
BRANCH  13  14
ATOM     14  C   UNL     1      34.969 -16.585 -22.613  0.00  0.00    -0.022 C 
ATOM     15  C   UNL     1      35.166 -17.300 -21.432  0.00  0.00    -0.004 C 
ATOM     16  C   UNL     1      34.813 -17.264 -23.822  0.00  0.00    -0.004 C 
ATOM     17  C   UNL     1      35.206 -18.695 -21.458  0.00  0.00    -0.000 C 
ATOM     18  C   UNL     1      34.854 -18.658 -23.848  0.00  0.00    -0.000 C 
ATOM     19  C   UNL     1      35.051 -19.373 -22.666  0.00  0.00    -0.000 C 
ENDBRANCH  13  14
ENDBRANCH  12  13
ENDBRANCH  11  12
ENDBRANCH   3   7
BRANCH   2  20
ATOM     20  C   UNL     1      33.388  -8.909 -23.019  0.00  0.00    +0.116 C 
BRANCH  20  21
ATOM     21  C   UNL     1      32.686  -7.582 -23.042  0.00  0.00    -0.003 C 
ATOM     22  C   UNL     1      33.246  -6.509 -23.736  0.00  0.00    -0.003 C 
ATOM     23  C   UNL     1      31.475  -7.420 -22.367  0.00  0.00    -0.003 C 
ATOM     24  C   UNL     1      32.595  -5.275 -23.756  0.00  0.00    +0.002 C 
ATOM     25  C   UNL     1      30.825  -6.187 -22.388  0.00  0.00    +0.002 C 
ATOM     26  C   UNL     1      31.384  -5.114 -23.082  0.00  0.00    +0.031 C 
BRANCH  26  29
ATOM     27  N   UNL     1      30.442  -3.168 -24.302  0.00  0.00    -0.343 N 
ATOM     28  N   UNL     1      30.330  -3.263 -21.970  0.00  0.00    -0.285 NA
ATOM     29  C   UNL     1      30.706  -3.829 -23.104  0.00  0.00    +0.117 C 
ATOM     30  H   UNL     1      29.982  -2.298 -24.294  0.00  0.00    +0.144 HD
ATOM     31  H   UNL     1      30.717  -3.571 -25.157  0.00  0.00    +0.144 HD
ATOM     32  H   UNL     1      29.871  -2.393 -21.983  0.00  0.00    +0.188 HD
ENDBRANCH  26  29
ENDBRANCH  20  21
ENDBRANCH   2  20
TORSDOF 7
ENDMDL
MODEL 6
REMARK VINA RESULT:      -9.7      2.962      6.701
REMARK  Name = 25113615
REMARK  7 active torsions:
REMARK  status: ('A' for Active; 'I' for Inactive)
REMARK    1  A    between atoms: N_2  and  C_20
REMARK    2  A    between atoms: C_3  and  C_7
REMARK    3  A    between atoms: C_11  and  C_12
REMARK    4  A    between atoms: C_12  and  C_13
REMARK    5  A    between atoms: C_13  and  C_14
REMARK    6  A    between atoms: C_20  and  C_21
REMARK    7  A    between atoms: C_26  and  C_29
REMARK                            x       y       z     vdW  Elec       q    Type
REMARK                         _______ _______ _______ _____ _____    ______ ____
ROOT
ATOM      1  O   UNL     1      35.388 -24.762 -16.145  0.00  0.00    -0.273 OA
ATOM      2  N   UNL     1      34.078 -22.910 -16.669  0.00  0.00    -0.299 N 
ATOM      3  C   UNL     1      34.839 -23.708 -15.832  0.00  0.00    +0.241 C 
ATOM      4  H   UNL     1      33.687 -22.084 -16.302  0.00  0.00    +0.150 HD
ENDROOT
BRANCH   3   7
ATOM      5  O   UNL     1      32.689 -25.057 -12.294  0.00  0.00    -0.275 OA
ATOM      6  N   UNL     1      34.408 -24.104 -13.509  0.00  0.00    -0.273 N 
ATOM      7  C   UNL     1      34.957 -23.133 -14.453  0.00  0.00    +0.152 C 
ATOM      8  C   UNL     1      36.423 -22.997 -14.050  0.00  0.00    +0.031 C 
ATOM      9  C   UNL     1      36.758 -24.366 -13.461  0.00  0.00    +0.024 C 
ATOM     10  C   UNL     1      35.469 -24.766 -12.762  0.00  0.00    +0.094 C 
ATOM     11  C   UNL     1      33.074 -24.314 -13.200  0.00  0.00    +0.226 C 
BRANCH  11  12
ATOM     12  C   UNL     1      32.072 -23.569 -14.045  0.00  0.00    +0.090 C 
BRANCH  12  13
ATOM     13  C   UNL     1      30.652 -23.959 -13.660  0.00  0.00    +0.036 C 
BRANCH  13  14
ATOM     14  C   UNL     1      29.649 -23.720 -14.762  0.00  0.00    -0.022 C 
ATOM     15  C   UNL     1      29.077 -22.458 -14.923  0.00  0.00    -0.004 C 
ATOM     16  C   UNL     1      29.292 -24.762 -15.618  0.00  0.00    -0.004 C 
ATOM     17  C   UNL     1      28.149 -22.237 -15.941  0.00  0.00    -0.000 C 
ATOM     18  C   UNL     1      28.364 -24.541 -16.635  0.00  0.00    -0.000 C 
ATOM     19  C   UNL     1      27.793 -23.279 -16.797  0.00  0.00    -0.000 C 
ENDBRANCH  13  14
ENDBRANCH  12  13
ENDBRANCH  11  12
ENDBRANCH   3   7
BRANCH   2  20
ATOM     20  C   UNL     1      33.832 -23.230 -18.057  0.00  0.00    +0.116 C 
BRANCH  20  21
ATOM     21  C   UNL     1      34.175 -22.085 -18.966  0.00  0.00    -0.003 C 
ATOM     22  C   UNL     1      33.158 -21.316 -19.533  0.00  0.00    -0.003 C 
ATOM     23  C   UNL     1      35.511 -21.791 -19.246  0.00  0.00    -0.003 C 
ATOM     24  C   UNL     1      33.477 -20.254 -20.380  0.00  0.00    +0.002 C 
ATOM     25  C   UNL     1      35.828 -20.729 -20.092  0.00  0.00    +0.002 C 
ATOM     26  C   UNL     1      34.811 -19.961 -20.659  0.00  0.00    +0.031 C 
BRANCH  26  29
ATOM     27  N   UNL     1      34.968 -18.946 -22.920  0.00  0.00    -0.343 N 
ATOM     28  N   UNL     1      35.623 -17.730 -21.035  0.00  0.00    -0.285 NA
ATOM     29  C   UNL     1      35.143 -18.853 -21.541  0.00  0.00    +0.117 C 
ATOM     30  H   UNL     1      35.200 -18.184 -23.498  0.00  0.00    +0.144 HD
ATOM     31  H   UNL     1      34.615 -19.775 -23.316  0.00  0.00    +0.144 HD
ATOM     32  H   UNL     1      35.848 -16.980 -21.630  0.00  0.00    +0.188 HD
ENDBRANCH  26  29
ENDBRANCH  20  21
ENDBRANCH   2  20
TORSDOF 7
ENDMDL
MODEL 7
REMARK VINA RESULT:      -9.4     11.457     15.143
REMARK  Name = 25113615
REMARK  7 active torsions:
REMARK  status: ('A' for Active; 'I' for Inactive)
REMARK    1  A    between atoms: N_2  and  C_20
REMARK    2  A    between atoms: C_3  and  C_7
REMARK    3  A    between atoms: C_11  and  C_12
REMARK    4  A    between atoms: C_12  and  C_13
REMARK    5  A    between atoms: C_13  and  C_14
REMARK    6  A    between atoms: C_20  and  C_21
REMARK    7  A    between atoms: C_26  and  C_29
REMARK                            x       y       z     vdW  Elec       q    Type
REMARK                         _______ _______ _______ _____ _____    ______ ____
ROOT
ATOM      1  O   UNL     1      33.787 -11.282 -23.719  0.00  0.00    -0.273 OA
ATOM      2  N   UNL     1      33.109 -13.148 -22.503  0.00  0.00    -0.299 N 
ATOM      3  C   UNL     1      33.329 -11.796 -22.701  0.00  0.00    +0.241 C 
ATOM      4  H   UNL     1      32.736 -13.441 -21.640  0.00  0.00    +0.150 HD
ENDROOT
BRANCH   3   7
ATOM      5  O   UNL     1      31.186  -8.008 -22.826  0.00  0.00    -0.275 OA
ATOM      6  N   UNL     1      31.893 -10.029 -21.957  0.00  0.00    -0.273 N 
ATOM      7  C   UNL     1      32.916 -10.974 -21.517  0.00  0.00    +0.152 C 
ATOM      8  C   UNL     1      32.213 -11.841 -20.477  0.00  0.00    +0.031 C 
ATOM      9  C   UNL     1      30.756 -11.833 -20.936  0.00  0.00    +0.024 C 
ATOM     10  C   UNL     1      30.574 -10.427 -21.484  0.00  0.00    +0.094 C 
ATOM     11  C   UNL     1      32.088  -8.820 -22.605  0.00  0.00    +0.226 C 
BRANCH  11  12
ATOM     12  C   UNL     1      33.499  -8.522 -23.043  0.00  0.00    +0.090 C 
BRANCH  12  13
ATOM     13  C   UNL     1      33.875  -7.088 -22.696  0.00  0.00    +0.036 C 
BRANCH  13  14
ATOM     14  C   UNL     1      33.985  -6.192 -23.905  0.00  0.00    -0.022 C 
ATOM     15  C   UNL     1      32.924  -5.357 -24.254  0.00  0.00    -0.004 C 
ATOM     16  C   UNL     1      35.149  -6.198 -24.674  0.00  0.00    -0.004 C 
ATOM     17  C   UNL     1      33.025  -4.528 -25.371  0.00  0.00    -0.000 C 
ATOM     18  C   UNL     1      35.250  -5.369 -25.792  0.00  0.00    -0.000 C 
ATOM     19  C   UNL     1      34.188  -4.534 -26.140  0.00  0.00    -0.000 C 
ENDBRANCH  13  14
ENDBRANCH  12  13
ENDBRANCH  11  12
ENDBRANCH   3   7
BRANCH   2  20
ATOM     20  C   UNL     1      33.401 -14.151 -23.502  0.00  0.00    +0.116 C 
BRANCH  20  21
ATOM     21  C   UNL     1      34.126 -15.329 -22.918  0.00  0.00    -0.003 C 
ATOM     22  C   UNL     1      34.667 -16.301 -23.760  0.00  0.00    -0.003 C 
ATOM     23  C   UNL     1      34.257 -15.454 -21.534  0.00  0.00    -0.003 C 
ATOM     24  C   UNL     1      35.338 -17.398 -23.218  0.00  0.00    +0.002 C 
ATOM     25  C   UNL     1      34.929 -16.550 -20.993  0.00  0.00    +0.002 C 
ATOM     26  C   UNL     1      35.469 -17.522 -21.835  0.00  0.00    +0.031 C 
BRANCH  26  29
ATOM     27  N   UNL     1      37.557 -18.778 -21.355  0.00  0.00    -0.343 N 
ATOM     28  N   UNL     1      35.490 -19.622 -20.668  0.00  0.00    -0.285 NA
ATOM     29  C   UNL     1      36.171 -18.664 -21.271  0.00  0.00    +0.117 C 
ATOM     30  H   UNL     1      38.011 -19.560 -20.967  0.00  0.00    +0.144 HD
ATOM     31  H   UNL     1      38.082 -18.076 -21.803  0.00  0.00    +0.144 HD
ATOM     32  H   UNL     1      35.962 -20.396 -20.286  0.00  0.00    +0.188 HD
ENDBRANCH  26  29
ENDBRANCH  20  21
ENDBRANCH   2  20
TORSDOF 7
ENDMDL
MODEL 8
REMARK VINA RESULT:      -9.3      5.442      8.750
REMARK  Name = 25113615
REMARK  7 active torsions:
REMARK  status: ('A' for Active; 'I' for Inactive)
REMARK    1  A    between atoms: N_2  and  C_20
REMARK    2  A    between atoms: C_3  and  C_7
REMARK    3  A    between atoms: C_11  and  C_12
REMARK    4  A    between atoms: C_12  and  C_13
REMARK    5  A    between atoms: C_13  and  C_14
REMARK    6  A    between atoms: C_20  and  C_21
REMARK    7  A    between atoms: C_26  and  C_29
REMARK                            x       y       z     vdW  Elec       q    Type
REMARK                         _______ _______ _______ _____ _____    ______ ____
ROOT
ATOM      1  O   UNL     1      36.736 -18.217 -20.759  0.00  0.00    -0.273 OA
ATOM      2  N   UNL     1      35.720 -20.278 -20.381  0.00  0.00    -0.299 N 
ATOM      3  C   UNL     1      35.804 -19.003 -20.914  0.00  0.00    +0.241 C 
ATOM      4  H   UNL     1      34.919 -20.816 -20.577  0.00  0.00    +0.150 HD
ENDROOT
BRANCH   3   7
ATOM      5  O   UNL     1      35.226 -15.324 -23.168  0.00  0.00    -0.275 OA
ATOM      6  N   UNL     1      34.986 -17.561 -22.643  0.00  0.00    -0.273 N 
ATOM      7  C   UNL     1      34.612 -18.660 -21.756  0.00  0.00    +0.152 C 
ATOM      8  C   UNL     1      34.268 -19.810 -22.699  0.00  0.00    +0.031 C 
ATOM      9  C   UNL     1      35.151 -19.546 -23.917  0.00  0.00    +0.024 C 
ATOM     10  C   UNL     1      35.166 -18.029 -24.011  0.00  0.00    +0.094 C 
ATOM     11  C   UNL     1      35.033 -16.211 -22.334  0.00  0.00    +0.226 C 
BRANCH  11  12
ATOM     12  C   UNL     1      34.829 -15.854 -20.884  0.00  0.00    +0.090 C 
BRANCH  12  13
ATOM     13  C   UNL     1      33.347 -15.699 -20.574  0.00  0.00    +0.036 C 
BRANCH  13  14
ATOM     14  C   UNL     1      32.837 -14.294 -20.788  0.00  0.00    -0.022 C 
ATOM     15  C   UNL     1      32.357 -13.555 -19.708  0.00  0.00    -0.004 C 
ATOM     16  C   UNL     1      32.846 -13.737 -22.067  0.00  0.00    -0.004 C 
ATOM     17  C   UNL     1      31.885 -12.256 -19.905  0.00  0.00    -0.000 C 
ATOM     18  C   UNL     1      32.375 -12.439 -22.264  0.00  0.00    -0.000 C 
ATOM     19  C   UNL     1      31.894 -11.698 -21.183  0.00  0.00    -0.000 C 
ENDBRANCH  13  14
ENDBRANCH  12  13
ENDBRANCH  11  12
ENDBRANCH   3   7
BRANCH   2  20
ATOM     20  C   UNL     1      36.752 -20.857 -19.552  0.00  0.00    +0.116 C 
BRANCH  20  21
ATOM     21  C   UNL     1      36.178 -21.605 -18.383  0.00  0.00    -0.003 C 
ATOM     22  C   UNL     1      34.871 -22.088 -18.439  0.00  0.00    -0.003 C 
ATOM     23  C   UNL     1      36.950 -21.813 -17.239  0.00  0.00    -0.003 C 
ATOM     24  C   UNL     1      34.336 -22.780 -17.352  0.00  0.00    +0.002 C 
ATOM     25  C   UNL     1      36.415 -22.506 -16.153  0.00  0.00    +0.002 C 
ATOM     26  C   UNL     1      35.108 -22.989 -16.209  0.00  0.00    +0.031 C 
BRANCH  26  29
ATOM     27  N   UNL     1      33.487 -23.196 -14.340  0.00  0.00    -0.343 N 
ATOM     28  N   UNL     1      35.057 -24.882 -14.730  0.00  0.00    -0.285 NA
ATOM     29  C   UNL     1      34.551 -23.712 -15.078  0.00  0.00    +0.117 C 
ATOM     30  H   UNL     1      33.126 -23.702 -13.577  0.00  0.00    +0.144 HD
ATOM     31  H   UNL     1      33.098 -22.325 -14.581  0.00  0.00    +0.144 HD
ATOM     32  H   UNL     1      34.681 -25.373 -13.964  0.00  0.00    +0.188 HD
ENDBRANCH  26  29
ENDBRANCH  20  21
ENDBRANCH   2  20
TORSDOF 7
ENDMDL
MODEL 9
REMARK VINA RESULT:      -9.3      2.841      7.103
REMARK  Name = 25113615
REMARK  7 active torsions:
REMARK  status: ('A' for Active; 'I' for Inactive)
REMARK    1  A    between atoms: N_2  and  C_20
REMARK    2  A    between atoms: C_3  and  C_7
REMARK    3  A    between atoms: C_11  and  C_12
REMARK    4  A    between atoms: C_12  and  C_13
REMARK    5  A    between atoms: C_13  and  C_14
REMARK    6  A    between atoms: C_20  and  C_21
REMARK    7  A    between atoms: C_26  and  C_29
REMARK                            x       y       z     vdW  Elec       q    Type
REMARK                         _______ _______ _______ _____ _____    ______ ____
ROOT
ATOM      1  O   UNL     1      36.834 -20.500 -18.196  0.00  0.00    -0.273 OA
ATOM      2  N   UNL     1      36.899 -22.646 -17.295  0.00  0.00    -0.299 N 
ATOM      3  C   UNL     1      36.492 -21.680 -18.200  0.00  0.00    +0.241 C 
ATOM      4  H   UNL     1      36.555 -23.563 -17.402  0.00  0.00    +0.150 HD
ENDROOT
BRANCH   3   7
ATOM      5  O   UNL     1      32.166 -22.059 -17.879  0.00  0.00    -0.275 OA
ATOM      6  N   UNL     1      34.212 -21.811 -18.924  0.00  0.00    -0.273 N 
ATOM      7  C   UNL     1      35.573 -22.234 -19.246  0.00  0.00    +0.152 C 
ATOM      8  C   UNL     1      35.858 -21.599 -20.605  0.00  0.00    +0.031 C 
ATOM      9  C   UNL     1      35.007 -20.331 -20.589  0.00  0.00    +0.024 C 
ATOM     10  C   UNL     1      33.763 -20.759 -19.827  0.00  0.00    +0.094 C 
ATOM     11  C   UNL     1      33.350 -22.383 -18.004  0.00  0.00    +0.226 C 
BRANCH  11  12
ATOM     12  C   UNL     1      33.934 -23.463 -17.129  0.00  0.00    +0.090 C 
BRANCH  12  13
ATOM     13  C   UNL     1      34.029 -22.990 -15.686  0.00  0.00    +0.036 C 
BRANCH  13  14
ATOM     14  C   UNL     1      32.922 -23.524 -14.810  0.00  0.00    -0.022 C 
ATOM     15  C   UNL     1      31.683 -22.885 -14.785  0.00  0.00    -0.004 C 
ATOM     16  C   UNL     1      33.139 -24.655 -14.024  0.00  0.00    -0.004 C 
ATOM     17  C   UNL     1      30.659 -23.378 -13.975  0.00  0.00    -0.000 C 
ATOM     18  C   UNL     1      32.116 -25.148 -13.214  0.00  0.00    -0.000 C 
ATOM     19  C   UNL     1      30.876 -24.509 -13.189  0.00  0.00    -0.000 C 
ENDBRANCH  13  14
ENDBRANCH  12  13
ENDBRANCH  11  12
ENDBRANCH   3   7
BRANCH   2  20
ATOM     20  C   UNL     1      37.805 -22.374 -16.203  0.00  0.00    +0.116 C 
BRANCH  20  21
ATOM     21  C   UNL     1      37.448 -23.155 -14.971  0.00  0.00    -0.003 C 
ATOM     22  C   UNL     1      37.180 -22.488 -13.776  0.00  0.00    -0.003 C 
ATOM     23  C   UNL     1      37.387 -24.549 -15.020  0.00  0.00    -0.003 C 
ATOM     24  C   UNL     1      36.852 -23.213 -12.630  0.00  0.00    +0.002 C 
ATOM     25  C   UNL     1      37.058 -25.273 -13.875  0.00  0.00    +0.002 C 
ATOM     26  C   UNL     1      36.790 -24.606 -12.680  0.00  0.00    +0.031 C 
BRANCH  26  29
ATOM     27  N   UNL     1      35.592 -24.837 -10.518  0.00  0.00    -0.343 N 
ATOM     28  N   UNL     1      36.951 -26.568 -11.302  0.00  0.00    -0.285 NA
ATOM     29  C   UNL     1      36.446 -25.361 -11.486  0.00  0.00    +0.117 C 
ATOM     30  H   UNL     1      35.373 -25.366  -9.717  0.00  0.00    +0.144 HD
ATOM     31  H   UNL     1      35.208 -23.939 -10.634  0.00  0.00    +0.144 HD
ATOM     32  H   UNL     1      36.719 -27.081 -10.495  0.00  0.00    +0.188 HD
ENDBRANCH  26  29
ENDBRANCH  20  21
ENDBRANCH   2  20
TORSDOF 7
ENDMDL
