MODEL 1
REMARK VINA RESULT:     -11.8      0.000      0.000
REMARK  Name = 446399
REMARK  4 active torsions:
REMARK  status: ('A' for Active; 'I' for Inactive)
REMARK    1  A    between atoms: N_3  and  S_21
REMARK    2  A    between atoms: C_4  and  C_10
REMARK    3  A    between atoms: N_9  and  C_16
REMARK    4  A    between atoms: S_21  and  C_25
REMARK                            x       y       z     vdW  Elec       q    Type
REMARK                         _______ _______ _______ _____ _____    ______ ____
ROOT
ATOM      1  O   UNL     1      33.682 -13.872 -25.417  0.00  0.00    -0.275 OA
ATOM      2  N   UNL     1      34.003 -15.220 -23.553  0.00  0.00    -0.277 N 
ATOM      3  N   UNL     1      35.314 -17.542 -22.560  0.00  0.00    -0.152 NA
ATOM      4  C   UNL     1      33.820 -13.998 -24.197  0.00  0.00    +0.225 C 
ATOM      5  C   UNL     1      34.171 -15.404 -22.106  0.00  0.00    +0.113 C 
ATOM      6  C   UNL     1      33.969 -16.465 -24.321  0.00  0.00    +0.113 C 
ATOM      7  C   UNL     1      35.403 -16.254 -21.809  0.00  0.00    +0.117 C 
ATOM      8  C   UNL     1      35.201 -17.316 -24.033  0.00  0.00    +0.117 C 
ENDROOT
BRANCH   4  10
ATOM      9  N   UNL     1      32.680 -10.207 -22.607  0.00  0.00    -0.307 N 
ATOM     10  C   UNL     1      33.798 -12.770 -23.322  0.00  0.00    +0.080 C 
ATOM     11  C   UNL     1      32.438 -12.658 -22.638  0.00  0.00    +0.031 C 
ATOM     12  C   UNL     1      34.067 -11.523 -24.160  0.00  0.00    +0.031 C 
ATOM     13  C   UNL     1      32.336 -11.383 -21.800  0.00  0.00    +0.091 C 
ATOM     14  C   UNL     1      33.967 -10.255 -23.315  0.00  0.00    +0.091 C 
BRANCH   9  16
ATOM     15  N   UNL     1      31.234  -6.410 -21.462  0.00  0.00    -0.242 NA
ATOM     16  C   UNL     1      32.200  -8.948 -22.227  0.00  0.00    +0.051 C 
ATOM     17  C   UNL     1      31.478  -8.147 -23.126  0.00  0.00    +0.035 C 
ATOM     18  C   UNL     1      32.427  -8.446 -20.936  0.00  0.00    +0.035 C 
ATOM     19  C   UNL     1      31.025  -6.908 -22.701  0.00  0.00    +0.100 C 
ATOM     20  C   UNL     1      31.931  -7.194 -20.609  0.00  0.00    +0.100 C 
ENDBRANCH   9  16
ENDBRANCH   4  10
BRANCH   3  21
ATOM     21  S   UNL     1      36.438 -18.746 -22.089  0.00  0.00    +0.063 S 
ATOM     22  O   UNL     1      37.472 -18.136 -21.283  0.00  0.00    -0.153 OA
ATOM     23  O   UNL     1      36.769 -19.554 -23.243  0.00  0.00    -0.153 OA
BRANCH  21  25
ATOM     24 CL   UNL     1      32.605 -23.756 -16.442  0.00  0.00    -0.082 Cl
ATOM     25  C   UNL     1      35.420 -19.715 -21.021  0.00  0.00    +0.122 C 
ATOM     26  C   UNL     1      36.014 -20.495 -20.043  0.00  0.00    +0.020 C 
ATOM     27  C   UNL     1      34.047 -19.678 -21.179  0.00  0.00    +0.020 C 
ATOM     28  C   UNL     1      35.218 -21.272 -19.185  0.00  0.00    +0.001 C 
ATOM     29  C   UNL     1      33.811 -21.245 -19.333  0.00  0.00    +0.001 C 
ATOM     30  C   UNL     1      33.241 -20.443 -20.335  0.00  0.00    +0.001 C 
ATOM     31  C   UNL     1      35.788 -22.074 -18.183  0.00  0.00    +0.001 C 
ATOM     32  C   UNL     1      33.014 -22.021 -18.474  0.00  0.00    +0.011 C 
ATOM     33  C   UNL     1      34.981 -22.840 -17.339  0.00  0.00    +0.011 C 
ATOM     34  C   UNL     1      33.597 -22.813 -17.485  0.00  0.00    +0.058 C 
ENDBRANCH  21  25
ENDBRANCH   3  21
TORSDOF 4
ENDMDL
MODEL 2
REMARK VINA RESULT:     -11.6      4.697     11.528
REMARK  Name = 446399
REMARK  4 active torsions:
REMARK  status: ('A' for Active; 'I' for Inactive)
REMARK    1  A    between atoms: N_3  and  S_21
REMARK    2  A    between atoms: C_4  and  C_10
REMARK    3  A    between atoms: N_9  and  C_16
REMARK    4  A    between atoms: S_21  and  C_25
REMARK                            x       y       z     vdW  Elec       q    Type
REMARK                         _______ _______ _______ _____ _____    ______ ____
ROOT
ATOM      1  O   UNL     1      34.269 -15.617 -25.096  0.00  0.00    -0.275 OA
ATOM      2  N   UNL     1      34.327 -14.134 -23.309  0.00  0.00    -0.277 N 
ATOM      3  N   UNL     1      32.963 -12.000 -22.013  0.00  0.00    -0.152 NA
ATOM      4  C   UNL     1      34.541 -15.370 -23.918  0.00  0.00    +0.225 C 
ATOM      5  C   UNL     1      34.638 -13.808 -21.912  0.00  0.00    +0.113 C 
ATOM      6  C   UNL     1      33.813 -13.011 -24.093  0.00  0.00    +0.113 C 
ATOM      7  C   UNL     1      33.431 -13.179 -21.223  0.00  0.00    +0.117 C 
ATOM      8  C   UNL     1      32.602 -12.382 -23.412  0.00  0.00    +0.117 C 
ENDROOT
BRANCH   4  10
ATOM      9  N   UNL     1      34.862 -18.829 -21.442  0.00  0.00    -0.307 N 
ATOM     10  C   UNL     1      35.140 -16.452 -23.056  0.00  0.00    +0.080 C 
ATOM     11  C   UNL     1      34.865 -17.815 -23.686  0.00  0.00    +0.031 C 
ATOM     12  C   UNL     1      34.544 -16.396 -21.652  0.00  0.00    +0.031 C 
ATOM     13  C   UNL     1      35.383 -18.954 -22.808  0.00  0.00    +0.091 C 
ATOM     14  C   UNL     1      35.069 -17.533 -20.779  0.00  0.00    +0.091 C 
BRANCH   9  16
ATOM     15  N   UNL     1      34.644 -22.253 -18.983  0.00  0.00    -0.242 NA
ATOM     16  C   UNL     1      34.790 -19.965 -20.626  0.00  0.00    +0.051 C 
ATOM     17  C   UNL     1      33.553 -20.469 -20.196  0.00  0.00    +0.035 C 
ATOM     18  C   UNL     1      35.953 -20.634 -20.213  0.00  0.00    +0.035 C 
ATOM     19  C   UNL     1      33.535 -21.597 -19.390  0.00  0.00    +0.100 C 
ATOM     20  C   UNL     1      35.827 -21.754 -19.406  0.00  0.00    +0.100 C 
ENDBRANCH   9  16
ENDBRANCH   4  10
BRANCH   3  21
ATOM     21  S   UNL     1      31.837 -10.984 -21.217  0.00  0.00    +0.063 S 
ATOM     22  O   UNL     1      32.301 -10.727 -19.872  0.00  0.00    -0.153 OA
ATOM     23  O   UNL     1      30.501 -11.483 -21.464  0.00  0.00    -0.153 OA
BRANCH  21  25
ATOM     24 CL   UNL     1      34.037  -4.135 -25.683  0.00  0.00    -0.082 Cl
ATOM     25  C   UNL     1      32.045  -9.502 -22.154  0.00  0.00    +0.122 C 
ATOM     26  C   UNL     1      33.320  -9.112 -22.530  0.00  0.00    +0.020 C 
ATOM     27  C   UNL     1      30.932  -8.758 -22.497  0.00  0.00    +0.020 C 
ATOM     28  C   UNL     1      33.503  -7.935 -23.276  0.00  0.00    +0.001 C 
ATOM     29  C   UNL     1      32.373  -7.162 -23.635  0.00  0.00    +0.001 C 
ATOM     30  C   UNL     1      31.096  -7.586 -23.238  0.00  0.00    +0.001 C 
ATOM     31  C   UNL     1      34.781  -7.511 -23.673  0.00  0.00    +0.001 C 
ATOM     32  C   UNL     1      32.556  -5.986 -24.382  0.00  0.00    +0.011 C 
ATOM     33  C   UNL     1      34.944  -6.340 -24.414  0.00  0.00    +0.011 C 
ATOM     34  C   UNL     1      33.833  -5.578 -24.767  0.00  0.00    +0.058 C 
ENDBRANCH  21  25
ENDBRANCH   3  21
TORSDOF 4
ENDMDL
MODEL 3
REMARK VINA RESULT:     -11.0      4.694     11.637
REMARK  Name = 446399
REMARK  4 active torsions:
REMARK  status: ('A' for Active; 'I' for Inactive)
REMARK    1  A    between atoms: N_3  and  S_21
REMARK    2  A    between atoms: C_4  and  C_10
REMARK    3  A    between atoms: N_9  and  C_16
REMARK    4  A    between atoms: S_21  and  C_25
REMARK                            x       y       z     vdW  Elec       q    Type
REMARK                         _______ _______ _______ _____ _____    ______ ____
ROOT
ATOM      1  O   UNL     1      32.292 -21.705 -17.926  0.00  0.00    -0.275 OA
ATOM      2  N   UNL     1      34.102 -21.632 -19.379  0.00  0.00    -0.277 N 
ATOM      3  N   UNL     1      35.557 -20.002 -21.201  0.00  0.00    -0.152 NA
ATOM      4  C   UNL     1      33.449 -22.025 -18.212  0.00  0.00    +0.225 C 
ATOM      5  C   UNL     1      35.476 -21.994 -19.749  0.00  0.00    +0.113 C 
ATOM      6  C   UNL     1      33.391 -20.847 -20.388  0.00  0.00    +0.113 C 
ATOM      7  C   UNL     1      36.278 -20.753 -20.129  0.00  0.00    +0.117 C 
ATOM      8  C   UNL     1      34.184 -19.602 -20.767  0.00  0.00    +0.117 C 
ENDROOT
BRANCH   4  10
ATOM      9  N   UNL     1      35.307 -23.411 -14.632  0.00  0.00    -0.307 N 
ATOM     10  C   UNL     1      34.232 -22.892 -17.259  0.00  0.00    +0.080 C 
ATOM     11  C   UNL     1      33.332 -23.315 -16.101  0.00  0.00    +0.031 C 
ATOM     12  C   UNL     1      35.443 -22.128 -16.729  0.00  0.00    +0.031 C 
ATOM     13  C   UNL     1      34.103 -24.131 -15.063  0.00  0.00    +0.091 C 
ATOM     14  C   UNL     1      36.209 -22.951 -15.696  0.00  0.00    +0.091 C 
BRANCH   9  16
ATOM     15  N   UNL     1      37.025 -24.303 -10.880  0.00  0.00    -0.242 NA
ATOM     16  C   UNL     1      35.877 -23.707 -13.387  0.00  0.00    +0.051 C 
ATOM     17  C   UNL     1      35.114 -24.286 -12.361  0.00  0.00    +0.035 C 
ATOM     18  C   UNL     1      37.229 -23.433 -13.127  0.00  0.00    +0.035 C 
ATOM     19  C   UNL     1      35.726 -24.559 -11.147  0.00  0.00    +0.100 C 
ATOM     20  C   UNL     1      37.745 -23.745 -11.880  0.00  0.00    +0.100 C 
ENDBRANCH   9  16
ENDBRANCH   4  10
BRANCH   3  21
ATOM     21  S   UNL     1      36.467 -18.775 -21.976  0.00  0.00    +0.063 S 
ATOM     22  O   UNL     1      36.461 -19.012 -23.402  0.00  0.00    -0.153 OA
ATOM     23  O   UNL     1      37.708 -18.586 -21.255  0.00  0.00    -0.153 OA
BRANCH  21  25
ATOM     24 CL   UNL     1      31.559 -11.883 -21.650  0.00  0.00    -0.082 Cl
ATOM     25  C   UNL     1      35.435 -17.379 -21.655  0.00  0.00    +0.122 C 
ATOM     26  C   UNL     1      35.032 -16.577 -22.711  0.00  0.00    +0.020 C 
ATOM     27  C   UNL     1      35.046 -17.110 -20.356  0.00  0.00    +0.020 C 
ATOM     28  C   UNL     1      34.210 -15.463 -22.472  0.00  0.00    +0.001 C 
ATOM     29  C   UNL     1      33.803 -15.174 -21.148  0.00  0.00    +0.001 C 
ATOM     30  C   UNL     1      34.229 -16.007 -20.102  0.00  0.00    +0.001 C 
ATOM     31  C   UNL     1      33.784 -14.630 -23.520  0.00  0.00    +0.001 C 
ATOM     32  C   UNL     1      32.981 -14.060 -20.910  0.00  0.00    +0.011 C 
ATOM     33  C   UNL     1      32.968 -13.527 -23.264  0.00  0.00    +0.011 C 
ATOM     34  C   UNL     1      32.568 -13.243 -21.962  0.00  0.00    +0.058 C 
ENDBRANCH  21  25
ENDBRANCH   3  21
TORSDOF 4
ENDMDL
MODEL 4
REMARK VINA RESULT:     -10.8      5.039      8.113
REMARK  Name = 446399
REMARK  4 active torsions:
REMARK  status: ('A' for Active; 'I' for Inactive)
REMARK    1  A    between atoms: N_3  and  S_21
REMARK    2  A    between atoms: C_4  and  C_10
REMARK    3  A    between atoms: N_9  and  C_16
REMARK    4  A    between atoms: S_21  and  C_25
REMARK                            x       y       z     vdW  Elec       q    Type
REMARK                         _______ _______ _______ _____ _____    ______ ____
ROOT
ATOM      1  O   UNL     1      32.685  -5.238 -21.404  0.00  0.00    -0.275 OA
ATOM      2  N   UNL     1      32.941  -7.529 -21.692  0.00  0.00    -0.277 N 
ATOM      3  N   UNL     1      32.137 -10.094 -20.758  0.00  0.00    -0.152 NA
ATOM      4  C   UNL     1      32.845  -6.214 -22.143  0.00  0.00    +0.225 C 
ATOM      5  C   UNL     1      33.131  -8.710 -22.542  0.00  0.00    +0.113 C 
ATOM      6  C   UNL     1      32.923  -7.814 -20.256  0.00  0.00    +0.113 C 
ATOM      7  C   UNL     1      32.093  -9.781 -22.218  0.00  0.00    +0.117 C 
ATOM      8  C   UNL     1      31.883  -8.878 -19.926  0.00  0.00    +0.117 C 
ENDROOT
BRANCH   4  10
ATOM      9  N   UNL     1      33.933  -4.525 -25.906  0.00  0.00    -0.307 N 
ATOM     10  C   UNL     1      32.944  -6.003 -23.633  0.00  0.00    +0.080 C 
ATOM     11  C   UNL     1      34.406  -6.088 -24.062  0.00  0.00    +0.031 C 
ATOM     12  C   UNL     1      32.366  -4.641 -24.010  0.00  0.00    +0.031 C 
ATOM     13  C   UNL     1      34.570  -5.800 -25.554  0.00  0.00    +0.091 C 
ATOM     14  C   UNL     1      32.530  -4.363 -25.502  0.00  0.00    +0.091 C 
BRANCH   9  16
ATOM     15  N   UNL     1      35.214  -2.446 -29.350  0.00  0.00    -0.242 NA
ATOM     16  C   UNL     1      34.359  -3.836 -27.049  0.00  0.00    +0.051 C 
ATOM     17  C   UNL     1      34.839  -2.520 -26.963  0.00  0.00    +0.035 C 
ATOM     18  C   UNL     1      34.316  -4.439 -28.316  0.00  0.00    +0.035 C 
ATOM     19  C   UNL     1      35.248  -1.881 -28.123  0.00  0.00    +0.100 C 
ATOM     20  C   UNL     1      34.748  -3.714 -29.415  0.00  0.00    +0.100 C 
ENDBRANCH   9  16
ENDBRANCH   4  10
BRANCH   3  21
ATOM     21  S   UNL     1      31.280 -11.498 -20.282  0.00  0.00    +0.063 S 
ATOM     22  O   UNL     1      29.970 -11.482 -20.895  0.00  0.00    -0.153 OA
ATOM     23  O   UNL     1      31.435 -11.680 -18.855  0.00  0.00    -0.153 OA
BRANCH  21  25
ATOM     24 CL   UNL     1      36.000 -17.948 -23.076  0.00  0.00    -0.082 Cl
ATOM     25  C   UNL     1      32.241 -12.735 -21.096  0.00  0.00    +0.122 C 
ATOM     26  C   UNL     1      32.767 -13.781 -20.355  0.00  0.00    +0.020 C 
ATOM     27  C   UNL     1      32.453 -12.639 -22.459  0.00  0.00    +0.020 C 
ATOM     28  C   UNL     1      33.535 -14.773 -20.987  0.00  0.00    +0.001 C 
ATOM     29  C   UNL     1      33.760 -14.689 -22.382  0.00  0.00    +0.001 C 
ATOM     30  C   UNL     1      33.213 -13.616 -23.103  0.00  0.00    +0.001 C 
ATOM     31  C   UNL     1      34.082 -15.846 -20.266  0.00  0.00    +0.001 C 
ATOM     32  C   UNL     1      34.527 -15.682 -23.015  0.00  0.00    +0.011 C 
ATOM     33  C   UNL     1      34.842 -16.823 -20.911  0.00  0.00    +0.011 C 
ATOM     34  C   UNL     1      35.064 -16.741 -22.283  0.00  0.00    +0.058 C 
ENDBRANCH  21  25
ENDBRANCH   3  21
TORSDOF 4
ENDMDL
MODEL 5
REMARK VINA RESULT:     -10.5      1.708      2.295
REMARK  Name = 446399
REMARK  4 active torsions:
REMARK  status: ('A' for Active; 'I' for Inactive)
REMARK    1  A    between atoms: N_3  and  S_21
REMARK    2  A    between atoms: C_4  and  C_10
REMARK    3  A    between atoms: N_9  and  C_16
REMARK    4  A    between atoms: S_21  and  C_25
REMARK                            x       y       z     vdW  Elec       q    Type
REMARK                         _______ _______ _______ _____ _____    ______ ____
ROOT
ATOM      1  O   UNL     1      32.315 -13.834 -19.568  0.00  0.00    -0.275 OA
ATOM      2  N   UNL     1      33.909 -14.667 -21.039  0.00  0.00    -0.277 N 
ATOM      3  N   UNL     1      35.153 -17.028 -22.026  0.00  0.00    -0.152 NA
ATOM      4  C   UNL     1      32.900 -13.785 -20.654  0.00  0.00    +0.225 C 
ATOM      5  C   UNL     1      34.623 -14.637 -22.321  0.00  0.00    +0.113 C 
ATOM      6  C   UNL     1      34.383 -15.690 -20.106  0.00  0.00    +0.113 C 
ATOM      7  C   UNL     1      34.610 -16.014 -22.979  0.00  0.00    +0.117 C 
ATOM      8  C   UNL     1      34.366 -17.069 -20.756  0.00  0.00    +0.117 C 
ENDROOT
BRANCH   4  10
ATOM      9  N   UNL     1      32.602  -9.978 -22.556  0.00  0.00    -0.307 N 
ATOM     10  C   UNL     1      32.522 -12.717 -21.649  0.00  0.00    +0.080 C 
ATOM     11  C   UNL     1      33.787 -12.117 -22.257  0.00  0.00    +0.031 C 
ATOM     12  C   UNL     1      31.703 -11.627 -20.962  0.00  0.00    +0.031 C 
ATOM     13  C   UNL     1      33.459 -10.971 -23.214  0.00  0.00    +0.091 C 
ATOM     14  C   UNL     1      31.377 -10.488 -21.926  0.00  0.00    +0.091 C 
BRANCH   9  16
ATOM     15  N   UNL     1      32.540  -6.011 -23.997  0.00  0.00    -0.242 NA
ATOM     16  C   UNL     1      32.582  -8.662 -23.034  0.00  0.00    +0.051 C 
ATOM     17  C   UNL     1      33.770  -7.993 -23.363  0.00  0.00    +0.035 C 
ATOM     18  C   UNL     1      31.371  -7.971 -23.198  0.00  0.00    +0.035 C 
ATOM     19  C   UNL     1      33.696  -6.691 -23.833  0.00  0.00    +0.100 C 
ATOM     20  C   UNL     1      31.404  -6.671 -23.675  0.00  0.00    +0.100 C 
ENDBRANCH   9  16
ENDBRANCH   4  10
BRANCH   3  21
ATOM     21  S   UNL     1      35.520 -18.555 -22.709  0.00  0.00    +0.063 S 
ATOM     22  O   UNL     1      36.957 -18.704 -22.788  0.00  0.00    -0.153 OA
ATOM     23  O   UNL     1      34.683 -18.761 -23.871  0.00  0.00    -0.153 OA
BRANCH  21  25
ATOM     24 CL   UNL     1      33.898 -23.733 -16.210  0.00  0.00    -0.082 Cl
ATOM     25  C   UNL     1      34.937 -19.615 -21.424  0.00  0.00    +0.122 C 
ATOM     26  C   UNL     1      35.845 -20.170 -20.539  0.00  0.00    +0.020 C 
ATOM     27  C   UNL     1      33.582 -19.871 -21.322  0.00  0.00    +0.020 C 
ATOM     28  C   UNL     1      35.397 -21.016 -19.510  0.00  0.00    +0.001 C 
ATOM     29  C   UNL     1      34.013 -21.288 -19.393  0.00  0.00    +0.001 C 
ATOM     30  C   UNL     1      33.119 -20.708 -20.306  0.00  0.00    +0.001 C 
ATOM     31  C   UNL     1      36.292 -21.596 -18.596  0.00  0.00    +0.001 C 
ATOM     32  C   UNL     1      33.565 -22.133 -18.363  0.00  0.00    +0.011 C 
ATOM     33  C   UNL     1      35.828 -22.433 -17.581  0.00  0.00    +0.011 C 
ATOM     34  C   UNL     1      34.467 -22.701 -17.465  0.00  0.00    +0.058 C 
ENDBRANCH  21  25
ENDBRANCH   3  21
TORSDOF 4
ENDMDL
MODEL 6
REMARK VINA RESULT:     -10.2      5.154     11.947
REMARK  Name = 446399
REMARK  4 active torsions:
REMARK  status: ('A' for Active; 'I' for Inactive)
REMARK    1  A    between atoms: N_3  and  S_21
REMARK    2  A    between atoms: C_4  and  C_10
REMARK    3  A    between atoms: N_9  and  C_16
REMARK    4  A    between atoms: S_21  and  C_25
REMARK                            x       y       z     vdW  Elec       q    Type
REMARK                         _______ _______ _______ _____ _____    ______ ____
ROOT
ATOM      1  O   UNL     1      32.030 -21.697 -18.002  0.00  0.00    -0.275 OA
ATOM      2  N   UNL     1      34.024 -21.659 -19.193  0.00  0.00    -0.277 N 
ATOM      3  N   UNL     1      35.869 -20.000 -20.585  0.00  0.00    -0.152 NA
ATOM      4  C   UNL     1      33.179 -22.110 -18.180  0.00  0.00    +0.225 C 
ATOM      5  C   UNL     1      35.394 -22.128 -19.431  0.00  0.00    +0.113 C 
ATOM      6  C   UNL     1      33.539 -20.684 -20.171  0.00  0.00    +0.113 C 
ATOM      7  C   UNL     1      36.357 -20.949 -19.540  0.00  0.00    +0.117 C 
ATOM      8  C   UNL     1      34.494 -19.501 -20.279  0.00  0.00    +0.117 C 
ENDROOT
BRANCH   4  10
ATOM      9  N   UNL     1      34.759 -23.978 -14.685  0.00  0.00    -0.307 N 
ATOM     10  C   UNL     1      33.735 -23.166 -17.259  0.00  0.00    +0.080 C 
ATOM     11  C   UNL     1      32.817 -23.321 -16.049  0.00  0.00    +0.031 C 
ATOM     12  C   UNL     1      35.140 -22.779 -16.803  0.00  0.00    +0.031 C 
ATOM     13  C   UNL     1      33.379 -24.325 -15.043  0.00  0.00    +0.091 C 
ATOM     14  C   UNL     1      35.696 -23.789 -15.801  0.00  0.00    +0.091 C 
BRANCH   9  16
ATOM     15  N   UNL     1      36.355 -25.332 -11.019  0.00  0.00    -0.242 NA
ATOM     16  C   UNL     1      35.289 -24.428 -13.469  0.00  0.00    +0.051 C 
ATOM     17  C   UNL     1      34.717 -24.045 -12.246  0.00  0.00    +0.035 C 
ATOM     18  C   UNL     1      36.408 -25.274 -13.436  0.00  0.00    +0.035 C 
ATOM     19  C   UNL     1      35.278 -24.517 -11.070  0.00  0.00    +0.100 C 
ATOM     20  C   UNL     1      36.893 -25.691 -12.207  0.00  0.00    +0.100 C 
ENDBRANCH   9  16
ENDBRANCH   4  10
BRANCH   3  21
ATOM     21  S   UNL     1      36.992 -18.800 -21.070  0.00  0.00    +0.063 S 
ATOM     22  O   UNL     1      38.107 -19.439 -21.734  0.00  0.00    -0.153 OA
ATOM     23  O   UNL     1      37.203 -17.885 -19.970  0.00  0.00    -0.153 OA
BRANCH  21  25
ATOM     24 CL   UNL     1      32.507 -13.805 -26.229  0.00  0.00    -0.082 Cl
ATOM     25  C   UNL     1      36.037 -17.964 -22.297  0.00  0.00    +0.122 C 
ATOM     26  C   UNL     1      35.711 -16.632 -22.110  0.00  0.00    +0.020 C 
ATOM     27  C   UNL     1      35.633 -18.654 -23.425  0.00  0.00    +0.020 C 
ATOM     28  C   UNL     1      34.952 -15.952 -23.078  0.00  0.00    +0.001 C 
ATOM     29  C   UNL     1      34.531 -16.644 -24.238  0.00  0.00    +0.001 C 
ATOM     30  C   UNL     1      34.879 -17.994 -24.396  0.00  0.00    +0.001 C 
ATOM     31  C   UNL     1      34.604 -14.600 -22.919  0.00  0.00    +0.001 C 
ATOM     32  C   UNL     1      33.773 -15.964 -25.206  0.00  0.00    +0.011 C 
ATOM     33  C   UNL     1      33.850 -13.941 -23.890  0.00  0.00    +0.011 C 
ATOM     34  C   UNL     1      33.435 -14.622 -25.031  0.00  0.00    +0.058 C 
ENDBRANCH  21  25
ENDBRANCH   3  21
TORSDOF 4
ENDMDL
MODEL 7
REMARK VINA RESULT:      -9.9      3.624      6.409
REMARK  Name = 446399
REMARK  4 active torsions:
REMARK  status: ('A' for Active; 'I' for Inactive)
REMARK    1  A    between atoms: N_3  and  S_21
REMARK    2  A    between atoms: C_4  and  C_10
REMARK    3  A    between atoms: N_9  and  C_16
REMARK    4  A    between atoms: S_21  and  C_25
REMARK                            x       y       z     vdW  Elec       q    Type
REMARK                         _______ _______ _______ _____ _____    ______ ____
ROOT
ATOM      1  O   UNL     1      37.019 -18.540 -20.597  0.00  0.00    -0.275 OA
ATOM      2  N   UNL     1      35.342 -20.147 -20.541  0.00  0.00    -0.277 N 
ATOM      3  N   UNL     1      34.139 -22.199 -18.981  0.00  0.00    -0.152 NA
ATOM      4  C   UNL     1      35.873 -18.903 -20.878  0.00  0.00    +0.225 C 
ATOM      5  C   UNL     1      33.986 -20.608 -20.860  0.00  0.00    +0.113 C 
ATOM      6  C   UNL     1      36.179 -21.143 -19.871  0.00  0.00    +0.113 C 
ATOM      7  C   UNL     1      33.290 -21.143 -19.611  0.00  0.00    +0.117 C 
ATOM      8  C   UNL     1      35.492 -21.676 -18.619  0.00  0.00    +0.117 C 
ENDROOT
BRANCH   4  10
ATOM      9  N   UNL     1      34.533 -15.514 -23.095  0.00  0.00    -0.307 N 
ATOM     10  C   UNL     1      34.965 -17.963 -21.630  0.00  0.00    +0.080 C 
ATOM     11  C   UNL     1      35.484 -17.785 -23.054  0.00  0.00    +0.031 C 
ATOM     12  C   UNL     1      34.907 -16.611 -20.922  0.00  0.00    +0.031 C 
ATOM     13  C   UNL     1      34.643 -16.776 -23.836  0.00  0.00    +0.091 C 
ATOM     14  C   UNL     1      34.062 -15.610 -21.707  0.00  0.00    +0.091 C 
BRANCH   9  16
ATOM     15  N   UNL     1      33.687 -11.947 -25.190  0.00  0.00    -0.242 NA
ATOM     16  C   UNL     1      34.253 -14.331 -23.790  0.00  0.00    +0.051 C 
ATOM     17  C   UNL     1      34.386 -13.079 -23.171  0.00  0.00    +0.035 C 
ATOM     18  C   UNL     1      33.829 -14.361 -25.128  0.00  0.00    +0.035 C 
ATOM     19  C   UNL     1      34.096 -11.937 -23.901  0.00  0.00    +0.100 C 
ATOM     20  C   UNL     1      33.564 -13.162 -25.771  0.00  0.00    +0.100 C 
ENDBRANCH   9  16
ENDBRANCH   4  10
BRANCH   3  21
ATOM     21  S   UNL     1      33.368 -23.134 -17.770  0.00  0.00    +0.063 S 
ATOM     22  O   UNL     1      33.227 -24.494 -18.243  0.00  0.00    -0.153 OA
ATOM     23  O   UNL     1      32.230 -22.398 -17.264  0.00  0.00    -0.153 OA
BRANCH  21  25
ATOM     24 CL   UNL     1      38.632 -23.808 -11.173  0.00  0.00    -0.082 Cl
ATOM     25  C   UNL     1      34.621 -23.120 -16.527  0.00  0.00    +0.122 C 
ATOM     26  C   UNL     1      34.426 -23.840 -15.360  0.00  0.00    +0.020 C 
ATOM     27  C   UNL     1      35.777 -22.392 -16.740  0.00  0.00    +0.020 C 
ATOM     28  C   UNL     1      35.414 -23.840 -14.361  0.00  0.00    +0.001 C 
ATOM     29  C   UNL     1      36.602 -23.099 -14.564  0.00  0.00    +0.001 C 
ATOM     30  C   UNL     1      36.768 -22.381 -15.759  0.00  0.00    +0.001 C 
ATOM     31  C   UNL     1      35.248 -24.559 -13.167  0.00  0.00    +0.001 C 
ATOM     32  C   UNL     1      37.591 -23.100 -13.566  0.00  0.00    +0.011 C 
ATOM     33  C   UNL     1      36.240 -24.547 -12.185  0.00  0.00    +0.011 C 
ATOM     34  C   UNL     1      37.409 -23.819 -12.384  0.00  0.00    +0.058 C 
ENDBRANCH  21  25
ENDBRANCH   3  21
TORSDOF 4
ENDMDL
MODEL 8
REMARK VINA RESULT:      -9.5      6.916     13.519
REMARK  Name = 446399
REMARK  4 active torsions:
REMARK  status: ('A' for Active; 'I' for Inactive)
REMARK    1  A    between atoms: N_3  and  S_21
REMARK    2  A    between atoms: C_4  and  C_10
REMARK    3  A    between atoms: N_9  and  C_16
REMARK    4  A    between atoms: S_21  and  C_25
REMARK                            x       y       z     vdW  Elec       q    Type
REMARK                         _______ _______ _______ _____ _____    ______ ____
ROOT
ATOM      1  O   UNL     1      32.705  -8.854 -20.082  0.00  0.00    -0.275 OA
ATOM      2  N   UNL     1      31.500  -7.684 -21.686  0.00  0.00    -0.277 N 
ATOM      3  N   UNL     1      31.154  -5.160 -22.951  0.00  0.00    -0.152 NA
ATOM      4  C   UNL     1      32.138  -8.814 -21.177  0.00  0.00    +0.225 C 
ATOM      5  C   UNL     1      30.818  -7.603 -22.983  0.00  0.00    +0.113 C 
ATOM      6  C   UNL     1      31.413  -6.466 -20.879  0.00  0.00    +0.113 C 
ATOM      7  C   UNL     1      31.309  -6.395 -23.777  0.00  0.00    +0.117 C 
ATOM      8  C   UNL     1      31.908  -5.258 -21.665  0.00  0.00    +0.117 C 
ENDROOT
BRANCH   4  10
ATOM      9  N   UNL     1      33.257 -12.574 -22.853  0.00  0.00    -0.307 N 
ATOM     10  C   UNL     1      32.120 -10.047 -22.044  0.00  0.00    +0.080 C 
ATOM     11  C   UNL     1      32.011 -11.288 -21.161  0.00  0.00    +0.031 C 
ATOM     12  C   UNL     1      33.390 -10.115 -22.888  0.00  0.00    +0.031 C 
ATOM     13  C   UNL     1      32.070 -12.572 -21.989  0.00  0.00    +0.091 C 
ATOM     14  C   UNL     1      33.440 -11.398 -23.715  0.00  0.00    +0.091 C 
BRANCH   9  16
ATOM     15  N   UNL     1      34.814 -16.250 -24.226  0.00  0.00    -0.242 NA
ATOM     16  C   UNL     1      33.774 -13.793 -23.309  0.00  0.00    +0.051 C 
ATOM     17  C   UNL     1      33.499 -14.257 -24.605  0.00  0.00    +0.035 C 
ATOM     18  C   UNL     1      34.581 -14.591 -22.482  0.00  0.00    +0.035 C 
ATOM     19  C   UNL     1      34.035 -15.470 -25.008  0.00  0.00    +0.100 C 
ATOM     20  C   UNL     1      35.068 -15.789 -22.981  0.00  0.00    +0.100 C 
ENDBRANCH   9  16
ENDBRANCH   4  10
BRANCH   3  21
ATOM     21  S   UNL     1      31.341  -3.683 -23.799  0.00  0.00    +0.063 S 
ATOM     22  O   UNL     1      31.826  -2.672 -22.885  0.00  0.00    -0.153 OA
ATOM     23  O   UNL     1      30.164  -3.455 -24.609  0.00  0.00    -0.153 OA
BRANCH  21  25
ATOM     24 CL   UNL     1      37.256  -4.897 -29.735  0.00  0.00    -0.082 Cl
ATOM     25  C   UNL     1      32.668  -4.115 -24.880  0.00  0.00    +0.122 C 
ATOM     26  C   UNL     1      32.797  -3.457 -26.092  0.00  0.00    +0.020 C 
ATOM     27  C   UNL     1      33.557  -5.103 -24.497  0.00  0.00    +0.020 C 
ATOM     28  C   UNL     1      33.848  -3.790 -26.963  0.00  0.00    +0.001 C 
ATOM     29  C   UNL     1      34.766  -4.799 -26.586  0.00  0.00    +0.001 C 
ATOM     30  C   UNL     1      34.607  -5.445 -25.351  0.00  0.00    +0.001 C 
ATOM     31  C   UNL     1      34.008  -3.142 -28.199  0.00  0.00    +0.001 C 
ATOM     32  C   UNL     1      35.818  -5.131 -27.457  0.00  0.00    +0.011 C 
ATOM     33  C   UNL     1      35.058  -3.486 -29.052  0.00  0.00    +0.011 C 
ATOM     34  C   UNL     1      35.961  -4.478 -28.681  0.00  0.00    +0.058 C 
ENDBRANCH  21  25
ENDBRANCH   3  21
TORSDOF 4
ENDMDL
MODEL 9
REMARK VINA RESULT:      -9.4      1.880      3.033
REMARK  Name = 446399
REMARK  4 active torsions:
REMARK  status: ('A' for Active; 'I' for Inactive)
REMARK    1  A    between atoms: N_3  and  S_21
REMARK    2  A    between atoms: C_4  and  C_10
REMARK    3  A    between atoms: N_9  and  C_16
REMARK    4  A    between atoms: S_21  and  C_25
REMARK                            x       y       z     vdW  Elec       q    Type
REMARK                         _______ _______ _______ _____ _____    ______ ____
ROOT
ATOM      1  O   UNL     1      34.929 -17.314 -25.075  0.00  0.00    -0.275 OA
ATOM      2  N   UNL     1      34.811 -17.917 -22.835  0.00  0.00    -0.277 N 
ATOM      3  N   UNL     1      35.650 -19.819 -20.892  0.00  0.00    -0.152 NA
ATOM      4  C   UNL     1      34.884 -17.000 -23.883  0.00  0.00    +0.225 C 
ATOM      5  C   UNL     1      34.757 -17.578 -21.408  0.00  0.00    +0.113 C 
ATOM      6  C   UNL     1      34.712 -19.349 -23.121  0.00  0.00    +0.113 C 
ATOM      7  C   UNL     1      35.812 -18.357 -20.628  0.00  0.00    +0.117 C 
ATOM      8  C   UNL     1      35.767 -20.132 -22.349  0.00  0.00    +0.117 C 
ENDROOT
BRANCH   4  10
ATOM      9  N   UNL     1      33.548 -13.087 -22.835  0.00  0.00    -0.307 N 
ATOM     10  C   UNL     1      34.912 -15.542 -23.502  0.00  0.00    +0.080 C 
ATOM     11  C   UNL     1      34.224 -15.355 -22.153  0.00  0.00    +0.031 C 
ATOM     12  C   UNL     1      34.207 -14.708 -24.569  0.00  0.00    +0.031 C 
ATOM     13  C   UNL     1      34.153 -13.880 -21.759  0.00  0.00    +0.091 C 
ATOM     14  C   UNL     1      34.144 -13.235 -24.170  0.00  0.00    +0.091 C 
BRANCH   9  16
ATOM     15  N   UNL     1      31.731  -9.389 -21.918  0.00  0.00    -0.242 NA
ATOM     16  C   UNL     1      32.945 -11.860 -22.531  0.00  0.00    +0.051 C 
ATOM     17  C   UNL     1      31.952 -11.767 -21.544  0.00  0.00    +0.035 C 
ATOM     18  C   UNL     1      33.316 -10.686 -23.204  0.00  0.00    +0.035 C 
ATOM     19  C   UNL     1      31.386 -10.529 -21.280  0.00  0.00    +0.100 C 
ATOM     20  C   UNL     1      32.690  -9.497 -22.866  0.00  0.00    +0.100 C 
ENDBRANCH   9  16
ENDBRANCH   4  10
BRANCH   3  21
ATOM     21  S   UNL     1      36.526 -20.855 -19.847  0.00  0.00    +0.063 S 
ATOM     22  O   UNL     1      37.349 -20.053 -18.969  0.00  0.00    -0.153 OA
ATOM     23  O   UNL     1      37.096 -21.933 -20.627  0.00  0.00    -0.153 OA
BRANCH  21  25
ATOM     24 CL   UNL     1      31.035 -24.404 -14.468  0.00  0.00    -0.082 Cl
ATOM     25  C   UNL     1      35.200 -21.519 -18.890  0.00  0.00    +0.122 C 
ATOM     26  C   UNL     1      35.483 -22.171 -17.701  0.00  0.00    +0.020 C 
ATOM     27  C   UNL     1      33.902 -21.375 -19.342  0.00  0.00    +0.020 C 
ATOM     28  C   UNL     1      34.439 -22.704 -16.927  0.00  0.00    +0.001 C 
ATOM     29  C   UNL     1      33.104 -22.566 -17.377  0.00  0.00    +0.001 C 
ATOM     30  C   UNL     1      32.853 -21.899 -18.586  0.00  0.00    +0.001 C 
ATOM     31  C   UNL     1      34.691 -23.371 -15.717  0.00  0.00    +0.001 C 
ATOM     32  C   UNL     1      32.060 -23.099 -16.602  0.00  0.00    +0.011 C 
ATOM     33  C   UNL     1      33.641 -23.895 -14.961  0.00  0.00    +0.011 C 
ATOM     34  C   UNL     1      32.328 -23.759 -15.404  0.00  0.00    +0.058 C 
ENDBRANCH  21  25
ENDBRANCH   3  21
TORSDOF 4
ENDMDL
