MODEL 1
REMARK VINA RESULT:     -12.3      0.000      0.000
REMARK  Name = 115237
REMARK  5 active torsions:
REMARK  status: ('A' for Active; 'I' for Inactive)
REMARK    1  A    between atoms: N_1  and  C_18
REMARK    2  A    between atoms: C_2  and  C_11
REMARK    3  A    between atoms: C_18  and  C_19
REMARK    4  A    between atoms: C_19  and  C_23
REMARK    5  A    between atoms: C_25  and  O_32
REMARK                            x       y       z     vdW  Elec       q    Type
REMARK                         _______ _______ _______ _____ _____    ______ ____
ROOT
ATOM      1  N   UNL     1      35.960 -19.957 -20.142  0.00  0.00    +0.387 N 
ATOM      2  C   UNL     1      35.393 -18.818 -22.785  0.00  0.00    +0.039 C 
ATOM      3  C   UNL     1      34.294 -19.409 -21.888  0.00  0.00    -0.017 C 
ATOM      4  C   UNL     1      36.577 -18.351 -21.921  0.00  0.00    -0.017 C 
ATOM      5  C   UNL     1      34.856 -20.485 -20.957  0.00  0.00    -0.077 C 
ATOM      6  C   UNL     1      37.056 -19.465 -20.988  0.00  0.00    -0.077 C 
ATOM      7  H   UNL     1      35.603 -19.169 -19.601  0.00  0.00    -0.080 HD
ENDROOT
BRANCH   2  11
ATOM      8  F   UNL     1      33.528 -12.426 -23.732  0.00  0.00    -0.204 F 
ATOM      9  O   UNL     1      34.173 -16.838 -25.537  0.00  0.00    -0.354 OA
ATOM     10  N   UNL     1      34.621 -18.028 -24.977  0.00  0.00    -0.081 NA
ATOM     11  C   UNL     1      34.878 -17.734 -23.704  0.00  0.00    +0.100 A 
ATOM     12  C   UNL     1      34.620 -16.392 -23.388  0.00  0.00    +0.054 A 
ATOM     13  C   UNL     1      34.173 -15.863 -24.586  0.00  0.00    +0.179 A 
ATOM     14  C   UNL     1      34.702 -15.558 -22.263  0.00  0.00    +0.007 C 
ATOM     15  C   UNL     1      33.793 -14.536 -24.764  0.00  0.00    +0.070 C 
ATOM     16  C   UNL     1      34.324 -14.215 -22.406  0.00  0.00    +0.030 C 
ATOM     17  C   UNL     1      33.879 -13.717 -23.635  0.00  0.00    +0.143 C 
ENDBRANCH   2  11
BRANCH   1  18
ATOM     18  C   UNL     1      36.447 -20.980 -19.217  0.00  0.00    -0.076 C 
BRANCH  18  19
ATOM     19  C   UNL     1      35.598 -22.237 -19.342  0.00  0.00    -0.007 C 
BRANCH  19  23
ATOM     20  O   UNL     1      32.871 -22.565 -18.894  0.00  0.00    -0.274 OA
ATOM     21  N   UNL     1      33.101 -23.309 -16.698  0.00  0.00    -0.235 N 
ATOM     22  N   UNL     1      35.246 -23.311 -15.698  0.00  0.00    -0.397 NA
ATOM     23  C   UNL     1      35.060 -22.654 -18.004  0.00  0.00    +0.123 C 
ATOM     24  C   UNL     1      31.650 -23.463 -16.569  0.00  0.00    +0.100 C 
ATOM     25  C   UNL     1      33.400 -24.019 -14.314  0.00  0.00    +0.177 C 
ATOM     26  C   UNL     1      31.213 -24.351 -15.419  0.00  0.00    +0.025 C 
ATOM     27  C   UNL     1      31.899 -23.877 -14.156  0.00  0.00    +0.040 C 
ATOM     28  C   UNL     1      33.964 -23.496 -15.631  0.00  0.00    +0.192 C 
ATOM     29  C   UNL     1      33.577 -22.838 -17.925  0.00  0.00    +0.237 C 
ATOM     30  C   UNL     1      35.781 -22.890 -16.890  0.00  0.00    +0.097 C 
ATOM     31  C   UNL     1      37.273 -22.698 -16.825  0.00  0.00    +0.062 C 
BRANCH  25  32
ATOM     32  O   UNL     1      34.039 -23.328 -13.249  0.00  0.00    -0.376 OA
ATOM     33  H   UNL     1      35.001 -23.379 -13.362  0.00  0.00    +0.211 HD
ENDBRANCH  25  32
ENDBRANCH  19  23
ENDBRANCH  18  19
ENDBRANCH   1  18
TORSDOF 5
ENDMDL
MODEL 2
REMARK VINA RESULT:     -12.3      4.984     11.017
REMARK  Name = 115237
REMARK  5 active torsions:
REMARK  status: ('A' for Active; 'I' for Inactive)
REMARK    1  A    between atoms: N_1  and  C_18
REMARK    2  A    between atoms: C_2  and  C_11
REMARK    3  A    between atoms: C_18  and  C_19
REMARK    4  A    between atoms: C_19  and  C_23
REMARK    5  A    between atoms: C_25  and  O_32
REMARK                            x       y       z     vdW  Elec       q    Type
REMARK                         _______ _______ _______ _____ _____    ______ ____
ROOT
ATOM      1  N   UNL     1      34.734 -14.877 -22.593  0.00  0.00    +0.387 N 
ATOM      2  C   UNL     1      34.681 -17.649 -21.636  0.00  0.00    +0.039 C 
ATOM      3  C   UNL     1      35.399 -17.237 -22.931  0.00  0.00    -0.017 C 
ATOM      4  C   UNL     1      34.589 -16.445 -20.684  0.00  0.00    -0.017 C 
ATOM      5  C   UNL     1      34.758 -15.993 -23.550  0.00  0.00    -0.077 C 
ATOM      6  C   UNL     1      33.977 -15.230 -21.384  0.00  0.00    -0.077 C 
ATOM      7  H   UNL     1      35.696 -14.680 -22.316  0.00  0.00    -0.080 HD
ENDROOT
BRANCH   2  11
ATOM      8  F   UNL     1      33.955 -23.628 -18.645  0.00  0.00    -0.204 F 
ATOM      9  O   UNL     1      36.868 -20.151 -20.244  0.00  0.00    -0.354 OA
ATOM     10  N   UNL     1      36.627 -18.936 -20.874  0.00  0.00    -0.081 NA
ATOM     11  C   UNL     1      35.302 -18.863 -20.984  0.00  0.00    +0.100 A 
ATOM     12  C   UNL     1      34.644 -19.982 -20.453  0.00  0.00    +0.054 A 
ATOM     13  C   UNL     1      35.683 -20.773 -19.994  0.00  0.00    +0.179 A 
ATOM     14  C   UNL     1      33.325 -20.433 -20.298  0.00  0.00    +0.007 C 
ATOM     15  C   UNL     1      35.514 -22.010 -19.378  0.00  0.00    +0.070 C 
ATOM     16  C   UNL     1      33.118 -21.674 -19.680  0.00  0.00    +0.030 C 
ATOM     17  C   UNL     1      34.194 -22.446 -19.230  0.00  0.00    +0.143 C 
ENDBRANCH   2  11
BRANCH   1  18
ATOM     18  C   UNL     1      34.172 -13.680 -23.218  0.00  0.00    -0.076 C 
BRANCH  18  19
ATOM     19  C   UNL     1      32.739 -13.474 -22.747  0.00  0.00    -0.007 C 
BRANCH  19  23
ATOM     20  O   UNL     1      33.600 -11.169 -24.048  0.00  0.00    -0.274 OA
ATOM     21  N   UNL     1      32.786  -9.696 -22.437  0.00  0.00    -0.235 N 
ATOM     22  N   UNL     1      31.848 -10.565 -20.446  0.00  0.00    -0.397 NA
ATOM     23  C   UNL     1      32.566 -12.111 -22.141  0.00  0.00    +0.123 C 
ATOM     24  C   UNL     1      33.265  -8.545 -23.207  0.00  0.00    +0.100 C 
ATOM     25  C   UNL     1      31.969  -8.162 -20.632  0.00  0.00    +0.177 C 
ATOM     26  C   UNL     1      32.626  -7.224 -22.824  0.00  0.00    +0.025 C 
ATOM     27  C   UNL     1      32.736  -7.052 -21.324  0.00  0.00    +0.040 C 
ATOM     28  C   UNL     1      32.227  -9.563 -21.177  0.00  0.00    +0.192 C 
ATOM     29  C   UNL     1      33.032 -10.961 -22.977  0.00  0.00    +0.237 C 
ATOM     30  C   UNL     1      32.023 -11.834 -20.940  0.00  0.00    +0.097 C 
ATOM     31  C   UNL     1      31.557 -12.901 -19.985  0.00  0.00    +0.062 C 
BRANCH  25  32
ATOM     32  O   UNL     1      32.300  -8.153 -19.250  0.00  0.00    -0.376 OA
ATOM     33  H   UNL     1      31.642  -7.632 -18.764  0.00  0.00    +0.211 HD
ENDBRANCH  25  32
ENDBRANCH  19  23
ENDBRANCH  18  19
ENDBRANCH   1  18
TORSDOF 5
ENDMDL
MODEL 3
REMARK VINA RESULT:     -12.2      4.575     10.762
REMARK  Name = 115237
REMARK  5 active torsions:
REMARK  status: ('A' for Active; 'I' for Inactive)
REMARK    1  A    between atoms: N_1  and  C_18
REMARK    2  A    between atoms: C_2  and  C_11
REMARK    3  A    between atoms: C_18  and  C_19
REMARK    4  A    between atoms: C_19  and  C_23
REMARK    5  A    between atoms: C_25  and  O_32
REMARK                            x       y       z     vdW  Elec       q    Type
REMARK                         _______ _______ _______ _____ _____    ______ ____
ROOT
ATOM      1  N   UNL     1      35.010 -15.648 -22.982  0.00  0.00    +0.387 N 
ATOM      2  C   UNL     1      34.770 -18.236 -21.623  0.00  0.00    +0.039 C 
ATOM      3  C   UNL     1      35.435 -18.086 -23.001  0.00  0.00    -0.017 C 
ATOM      4  C   UNL     1      34.852 -16.905 -20.856  0.00  0.00    -0.017 C 
ATOM      5  C   UNL     1      34.869 -16.885 -23.762  0.00  0.00    -0.077 C 
ATOM      6  C   UNL     1      34.307 -15.748 -21.695  0.00  0.00    -0.077 C 
ATOM      7  H   UNL     1      36.002 -15.510 -22.788  0.00  0.00    -0.080 HD
ENDROOT
BRANCH   2  11
ATOM      8  F   UNL     1      33.712 -23.853 -18.080  0.00  0.00    -0.204 F 
ATOM      9  O   UNL     1      36.811 -20.664 -19.913  0.00  0.00    -0.354 OA
ATOM     10  N   UNL     1      36.639 -19.510 -20.669  0.00  0.00    -0.081 NA
ATOM     11  C   UNL     1      35.322 -19.401 -20.832  0.00  0.00    +0.100 A 
ATOM     12  C   UNL     1      34.604 -20.435 -20.216  0.00  0.00    +0.054 A 
ATOM     13  C   UNL     1      35.595 -21.214 -19.644  0.00  0.00    +0.179 A 
ATOM     14  C   UNL     1      33.262 -20.819 -20.064  0.00  0.00    +0.007 C 
ATOM     15  C   UNL     1      35.357 -22.375 -18.915  0.00  0.00    +0.070 C 
ATOM     16  C   UNL     1      32.987 -21.984 -19.333  0.00  0.00    +0.030 C 
ATOM     17  C   UNL     1      34.017 -22.745 -18.771  0.00  0.00    +0.143 C 
ENDBRANCH   2  11
BRANCH   1  18
ATOM     18  C   UNL     1      34.517 -14.502 -23.746  0.00  0.00    -0.076 C 
BRANCH  18  19
ATOM     19  C   UNL     1      33.108 -14.145 -23.295  0.00  0.00    -0.007 C 
BRANCH  19  23
ATOM     20  O   UNL     1      31.788 -13.204 -21.033  0.00  0.00    -0.274 OA
ATOM     21  N   UNL     1      32.285 -10.959 -21.412  0.00  0.00    -0.235 N 
ATOM     22  N   UNL     1      33.387 -10.342 -23.413  0.00  0.00    -0.397 NA
ATOM     23  C   UNL     1      32.998 -12.678 -22.995  0.00  0.00    +0.123 C 
ATOM     24  C   UNL     1      31.577 -10.567 -20.191  0.00  0.00    +0.100 C 
ATOM     25  C   UNL     1      32.773  -8.553 -21.915  0.00  0.00    +0.177 C 
ATOM     26  C   UNL     1      31.931  -9.184 -19.677  0.00  0.00    +0.025 C 
ATOM     27  C   UNL     1      31.792  -8.196 -20.815  0.00  0.00    +0.040 C 
ATOM     28  C   UNL     1      32.808 -10.029 -22.296  0.00  0.00    +0.192 C 
ATOM     29  C   UNL     1      32.304 -12.322 -21.719  0.00  0.00    +0.237 C 
ATOM     30  C   UNL     1      33.476 -11.670 -23.751  0.00  0.00    +0.097 C 
ATOM     31  C   UNL     1      34.153 -11.891 -25.078  0.00  0.00    +0.062 C 
BRANCH  25  32
ATOM     32  O   UNL     1      32.451  -7.800 -23.076  0.00  0.00    -0.376 OA
ATOM     33  H   UNL     1      31.529  -7.969 -23.325  0.00  0.00    +0.211 HD
ENDBRANCH  25  32
ENDBRANCH  19  23
ENDBRANCH  18  19
ENDBRANCH   1  18
TORSDOF 5
ENDMDL
MODEL 4
REMARK VINA RESULT:     -12.2      3.304     10.415
REMARK  Name = 115237
REMARK  5 active torsions:
REMARK  status: ('A' for Active; 'I' for Inactive)
REMARK    1  A    between atoms: N_1  and  C_18
REMARK    2  A    between atoms: C_2  and  C_11
REMARK    3  A    between atoms: C_18  and  C_19
REMARK    4  A    between atoms: C_19  and  C_23
REMARK    5  A    between atoms: C_25  and  O_32
REMARK                            x       y       z     vdW  Elec       q    Type
REMARK                         _______ _______ _______ _____ _____    ______ ____
ROOT
ATOM      1  N   UNL     1      34.810 -20.821 -19.906  0.00  0.00    +0.387 N 
ATOM      2  C   UNL     1      34.476 -22.925 -17.889  0.00  0.00    +0.039 C 
ATOM      3  C   UNL     1      35.808 -22.187 -18.100  0.00  0.00    -0.017 C 
ATOM      4  C   UNL     1      33.310 -22.040 -18.361  0.00  0.00    -0.017 C 
ATOM      5  C   UNL     1      35.942 -21.683 -19.539  0.00  0.00    -0.077 C 
ATOM      6  C   UNL     1      33.534 -21.541 -19.790  0.00  0.00    -0.077 C 
ATOM      7  H   UNL     1      34.788 -20.036 -19.255  0.00  0.00    -0.080 HD
ENDROOT
BRANCH   2  11
ATOM      8  F   UNL     1      30.410 -24.536 -12.781  0.00  0.00    -0.204 F 
ATOM      9  O   UNL     1      34.877 -24.138 -14.521  0.00  0.00    -0.354 OA
ATOM     10  N   UNL     1      35.375 -23.727 -15.751  0.00  0.00    -0.081 NA
ATOM     11  C   UNL     1      34.299 -23.418 -16.471  0.00  0.00    +0.100 A 
ATOM     12  C   UNL     1      33.098 -23.605 -15.772  0.00  0.00    +0.054 A 
ATOM     13  C   UNL     1      33.517 -24.065 -14.536  0.00  0.00    +0.179 A 
ATOM     14  C   UNL     1      31.724 -23.453 -16.012  0.00  0.00    +0.007 C 
ATOM     15  C   UNL     1      32.661 -24.395 -13.490  0.00  0.00    +0.070 C 
ATOM     16  C   UNL     1      30.832 -23.775 -14.979  0.00  0.00    +0.030 C 
ATOM     17  C   UNL     1      31.295 -24.238 -13.743  0.00  0.00    +0.143 C 
ENDBRANCH   2  11
BRANCH   1  18
ATOM     18  C   UNL     1      34.982 -20.302 -21.263  0.00  0.00    -0.076 C 
BRANCH  18  19
ATOM     19  C   UNL     1      35.621 -18.921 -21.212  0.00  0.00    -0.007 C 
BRANCH  19  23
ATOM     20  O   UNL     1      34.936 -16.258 -20.782  0.00  0.00    -0.274 OA
ATOM     21  N   UNL     1      34.419 -15.807 -23.009  0.00  0.00    -0.235 N 
ATOM     22  N   UNL     1      34.443 -17.576 -24.581  0.00  0.00    -0.397 NA
ATOM     23  C   UNL     1      35.100 -18.049 -22.318  0.00  0.00    +0.123 C 
ATOM     24  C   UNL     1      34.096 -14.416 -22.682  0.00  0.00    +0.100 C 
ATOM     25  C   UNL     1      33.792 -15.401 -25.402  0.00  0.00    +0.177 C 
ATOM     26  C   UNL     1      34.082 -13.478 -23.874  0.00  0.00    +0.025 C 
ATOM     27  C   UNL     1      33.204 -14.079 -24.950  0.00  0.00    +0.040 C 
ATOM     28  C   UNL     1      34.223 -16.335 -24.275  0.00  0.00    +0.192 C 
ATOM     29  C   UNL     1      34.821 -16.626 -21.951  0.00  0.00    +0.237 C 
ATOM     30  C   UNL     1      34.881 -18.423 -23.594  0.00  0.00    +0.097 C 
ATOM     31  C   UNL     1      35.079 -19.834 -24.080  0.00  0.00    +0.062 C 
BRANCH  25  32
ATOM     32  O   UNL     1      32.833 -16.080 -26.201  0.00  0.00    -0.376 OA
ATOM     33  H   UNL     1      33.280 -16.511 -26.945  0.00  0.00    +0.211 HD
ENDBRANCH  25  32
ENDBRANCH  19  23
ENDBRANCH  18  19
ENDBRANCH   1  18
TORSDOF 5
ENDMDL
MODEL 5
REMARK VINA RESULT:     -12.1      1.827      2.680
REMARK  Name = 115237
REMARK  5 active torsions:
REMARK  status: ('A' for Active; 'I' for Inactive)
REMARK    1  A    between atoms: N_1  and  C_18
REMARK    2  A    between atoms: C_2  and  C_11
REMARK    3  A    between atoms: C_18  and  C_19
REMARK    4  A    between atoms: C_19  and  C_23
REMARK    5  A    between atoms: C_25  and  O_32
REMARK                            x       y       z     vdW  Elec       q    Type
REMARK                         _______ _______ _______ _____ _____    ______ ____
ROOT
ATOM      1  N   UNL     1      34.614 -22.429 -19.478  0.00  0.00    +0.387 N 
ATOM      2  C   UNL     1      34.853 -19.704 -20.537  0.00  0.00    +0.039 C 
ATOM      3  C   UNL     1      36.048 -20.669 -20.465  0.00  0.00    -0.017 C 
ATOM      4  C   UNL     1      33.540 -20.503 -20.600  0.00  0.00    -0.017 C 
ATOM      5  C   UNL     1      35.873 -21.684 -19.333  0.00  0.00    -0.077 C 
ATOM      6  C   UNL     1      33.457 -21.524 -19.464  0.00  0.00    -0.077 C 
ATOM      7  H   UNL     1      34.632 -22.903 -20.382  0.00  0.00    -0.080 HD
ENDROOT
BRANCH   2  11
ATOM      8  F   UNL     1      34.504 -13.341 -22.685  0.00  0.00    -0.204 F 
ATOM      9  O   UNL     1      35.352 -17.974 -23.658  0.00  0.00    -0.354 OA
ATOM     10  N   UNL     1      35.323 -19.122 -22.875  0.00  0.00    -0.081 NA
ATOM     11  C   UNL     1      34.980 -18.699 -21.659  0.00  0.00    +0.100 A 
ATOM     12  C   UNL     1      34.779 -17.313 -21.596  0.00  0.00    +0.054 A 
ATOM     13  C   UNL     1      35.027 -16.896 -22.892  0.00  0.00    +0.179 A 
ATOM     14  C   UNL     1      34.424 -16.359 -20.630  0.00  0.00    +0.007 C 
ATOM     15  C   UNL     1      34.952 -15.574 -23.319  0.00  0.00    +0.070 C 
ATOM     16  C   UNL     1      34.337 -15.017 -21.026  0.00  0.00    +0.030 C 
ATOM     17  C   UNL     1      34.597 -14.635 -22.346  0.00  0.00    +0.143 C 
ENDBRANCH   2  11
BRANCH   1  18
ATOM     18  C   UNL     1      34.491 -23.434 -18.423  0.00  0.00    -0.076 C 
BRANCH  18  19
ATOM     19  C   UNL     1      34.460 -22.755 -17.061  0.00  0.00    -0.007 C 
BRANCH  19  23
ATOM     20  O   UNL     1      31.701 -22.562 -17.370  0.00  0.00    -0.274 OA
ATOM     21  N   UNL     1      31.187 -24.028 -15.634  0.00  0.00    -0.235 N 
ATOM     22  N   UNL     1      32.933 -24.868 -14.276  0.00  0.00    -0.397 NA
ATOM     23  C   UNL     1      33.509 -23.455 -16.135  0.00  0.00    +0.123 C 
ATOM     24  C   UNL     1      29.753 -23.870 -15.888  0.00  0.00    +0.100 C 
ATOM     25  C   UNL     1      30.689 -25.543 -13.701  0.00  0.00    +0.177 C 
ATOM     26  C   UNL     1      28.886 -24.962 -15.291  0.00  0.00    +0.025 C 
ATOM     27  C   UNL     1      29.241 -25.114 -13.827  0.00  0.00    +0.040 C 
ATOM     28  C   UNL     1      31.673 -24.758 -14.562  0.00  0.00    +0.192 C 
ATOM     29  C   UNL     1      32.055 -23.301 -16.453  0.00  0.00    +0.237 C 
ATOM     30  C   UNL     1      33.841 -24.212 -15.070  0.00  0.00    +0.097 C 
ATOM     31  C   UNL     1      35.264 -24.409 -14.618  0.00  0.00    +0.062 C 
BRANCH  25  32
ATOM     32  O   UNL     1      31.087 -25.418 -12.343  0.00  0.00    -0.376 OA
ATOM     33  H   UNL     1      30.671 -24.633 -11.955  0.00  0.00    +0.211 HD
ENDBRANCH  25  32
ENDBRANCH  19  23
ENDBRANCH  18  19
ENDBRANCH   1  18
TORSDOF 5
ENDMDL
MODEL 6
REMARK VINA RESULT:     -12.1      2.242      3.826
REMARK  Name = 115237
REMARK  5 active torsions:
REMARK  status: ('A' for Active; 'I' for Inactive)
REMARK    1  A    between atoms: N_1  and  C_18
REMARK    2  A    between atoms: C_2  and  C_11
REMARK    3  A    between atoms: C_18  and  C_19
REMARK    4  A    between atoms: C_19  and  C_23
REMARK    5  A    between atoms: C_25  and  O_32
REMARK                            x       y       z     vdW  Elec       q    Type
REMARK                         _______ _______ _______ _____ _____    ______ ____
ROOT
ATOM      1  N   UNL     1      34.037 -22.859 -18.942  0.00  0.00    +0.387 N 
ATOM      2  C   UNL     1      34.608 -20.287 -20.230  0.00  0.00    +0.039 C 
ATOM      3  C   UNL     1      35.640 -21.424 -20.164  0.00  0.00    -0.017 C 
ATOM      4  C   UNL     1      33.187 -20.866 -20.137  0.00  0.00    -0.017 C 
ATOM      5  C   UNL     1      35.403 -22.319 -18.946  0.00  0.00    -0.077 C 
ATOM      6  C   UNL     1      33.039 -21.781 -18.919  0.00  0.00    -0.077 C 
ATOM      7  H   UNL     1      33.906 -23.390 -19.803  0.00  0.00    -0.080 HD
ENDROOT
BRANCH   2  11
ATOM      8  F   UNL     1      34.799 -14.117 -22.900  0.00  0.00    -0.204 F 
ATOM      9  O   UNL     1      35.180 -18.875 -23.495  0.00  0.00    -0.354 OA
ATOM     10  N   UNL     1      35.065 -19.946 -22.618  0.00  0.00    -0.081 NA
ATOM     11  C   UNL     1      34.798 -19.394 -21.436  0.00  0.00    +0.100 A 
ATOM     12  C   UNL     1      34.730 -17.995 -21.486  0.00  0.00    +0.054 A 
ATOM     13  C   UNL     1      34.980 -17.712 -22.817  0.00  0.00    +0.179 A 
ATOM     14  C   UNL     1      34.494 -16.935 -20.596  0.00  0.00    +0.007 C 
ATOM     15  C   UNL     1      35.017 -16.427 -23.352  0.00  0.00    +0.070 C 
ATOM     16  C   UNL     1      34.523 -15.628 -21.102  0.00  0.00    +0.030 C 
ATOM     17  C   UNL     1      34.780 -15.382 -22.455  0.00  0.00    +0.143 C 
ENDBRANCH   2  11
BRANCH   1  18
ATOM     18  C   UNL     1      33.845 -23.757 -17.803  0.00  0.00    -0.076 C 
BRANCH  18  19
ATOM     19  C   UNL     1      33.153 -23.015 -16.669  0.00  0.00    -0.007 C 
BRANCH  19  23
ATOM     20  O   UNL     1      35.856 -22.794 -16.047  0.00  0.00    -0.274 OA
ATOM     21  N   UNL     1      35.635 -23.547 -13.853  0.00  0.00    -0.235 N 
ATOM     22  N   UNL     1      33.530 -24.329 -13.107  0.00  0.00    -0.397 NA
ATOM     23  C   UNL     1      33.696 -23.445 -15.337  0.00  0.00    +0.123 C 
ATOM     24  C   UNL     1      37.071 -23.380 -13.621  0.00  0.00    +0.100 C 
ATOM     25  C   UNL     1      35.353 -24.445 -11.531  0.00  0.00    +0.177 C 
ATOM     26  C   UNL     1      37.469 -23.331 -12.158  0.00  0.00    +0.025 C 
ATOM     27  C   UNL     1      36.865 -24.526 -11.453  0.00  0.00    +0.040 C 
ATOM     28  C   UNL     1      34.793 -24.114 -12.910  0.00  0.00    +0.192 C 
ATOM     29  C   UNL     1      35.160 -23.221 -15.127  0.00  0.00    +0.237 C 
ATOM     30  C   UNL     1      32.993 -23.990 -14.325  0.00  0.00    +0.097 C 
ATOM     31  C   UNL     1      31.525 -24.308 -14.426  0.00  0.00    +0.062 C 
BRANCH  25  32
ATOM     32  O   UNL     1      34.807 -25.689 -11.115  0.00  0.00    -0.376 OA
ATOM     33  H   UNL     1      34.305 -25.564 -10.294  0.00  0.00    +0.211 HD
ENDBRANCH  25  32
ENDBRANCH  19  23
ENDBRANCH  18  19
ENDBRANCH   1  18
TORSDOF 5
ENDMDL
MODEL 7
REMARK VINA RESULT:     -12.0      3.370     10.314
REMARK  Name = 115237
REMARK  5 active torsions:
REMARK  status: ('A' for Active; 'I' for Inactive)
REMARK    1  A    between atoms: N_1  and  C_18
REMARK    2  A    between atoms: C_2  and  C_11
REMARK    3  A    between atoms: C_18  and  C_19
REMARK    4  A    between atoms: C_19  and  C_23
REMARK    5  A    between atoms: C_25  and  O_32
REMARK                            x       y       z     vdW  Elec       q    Type
REMARK                         _______ _______ _______ _____ _____    ______ ____
ROOT
ATOM      1  N   UNL     1      35.625 -19.447 -20.781  0.00  0.00    +0.387 N 
ATOM      2  C   UNL     1      34.781 -21.896 -19.405  0.00  0.00    +0.039 C 
ATOM      3  C   UNL     1      36.158 -21.253 -19.174  0.00  0.00    -0.017 C 
ATOM      4  C   UNL     1      33.780 -20.830 -19.882  0.00  0.00    -0.017 C 
ATOM      5  C   UNL     1      36.616 -20.466 -20.404  0.00  0.00    -0.077 C 
ATOM      6  C   UNL     1      34.324 -20.059 -21.086  0.00  0.00    -0.077 C 
ATOM      7  H   UNL     1      35.499 -18.821 -19.985  0.00  0.00    -0.080 HD
ENDROOT
BRANCH   2  11
ATOM      8  F   UNL     1      35.912 -24.415 -13.273  0.00  0.00    -0.204 F 
ATOM      9  O   UNL     1      32.905 -23.778 -16.972  0.00  0.00    -0.354 OA
ATOM     10  N   UNL     1      33.041 -23.137 -18.197  0.00  0.00    -0.081 NA
ATOM     11  C   UNL     1      34.286 -22.664 -18.200  0.00  0.00    +0.100 A 
ATOM     12  C   UNL     1      34.990 -22.963 -17.025  0.00  0.00    +0.054 A 
ATOM     13  C   UNL     1      34.069 -23.673 -16.274  0.00  0.00    +0.179 A 
ATOM     14  C   UNL     1      36.269 -22.733 -16.495  0.00  0.00    +0.007 C 
ATOM     15  C   UNL     1      34.321 -24.186 -15.005  0.00  0.00    +0.070 C 
ATOM     16  C   UNL     1      36.557 -23.237 -15.219  0.00  0.00    +0.030 C 
ATOM     17  C   UNL     1      35.598 -23.949 -14.490  0.00  0.00    +0.143 C 
ENDBRANCH   2  11
BRANCH   1  18
ATOM     18  C   UNL     1      36.104 -18.666 -21.921  0.00  0.00    -0.076 C 
BRANCH  18  19
ATOM     19  C   UNL     1      34.990 -18.511 -22.947  0.00  0.00    -0.007 C 
BRANCH  19  23
ATOM     20  O   UNL     1      34.638 -17.499 -25.516  0.00  0.00    -0.274 OA
ATOM     21  N   UNL     1      34.108 -15.338 -24.825  0.00  0.00    -0.235 N 
ATOM     22  N   UNL     1      34.251 -14.793 -22.527  0.00  0.00    -0.397 NA
ATOM     23  C   UNL     1      34.686 -17.061 -23.192  0.00  0.00    +0.123 C 
ATOM     24  C   UNL     1      33.931 -14.907 -26.214  0.00  0.00    +0.100 C 
ATOM     25  C   UNL     1      33.629 -13.010 -24.030  0.00  0.00    +0.177 C 
ATOM     26  C   UNL     1      33.143 -13.622 -26.376  0.00  0.00    +0.025 C 
ATOM     27  C   UNL     1      33.748 -12.567 -25.475  0.00  0.00    +0.040 C 
ATOM     28  C   UNL     1      34.041 -14.454 -23.761  0.00  0.00    +0.192 C 
ATOM     29  C   UNL     1      34.474 -16.671 -24.621  0.00  0.00    +0.237 C 
ATOM     30  C   UNL     1      34.572 -16.099 -22.255  0.00  0.00    +0.097 C 
ATOM     31  C   UNL     1      34.806 -16.352 -20.790  0.00  0.00    +0.062 C 
BRANCH  25  32
ATOM     32  O   UNL     1      34.431 -12.159 -23.224  0.00  0.00    -0.376 OA
ATOM     33  H   UNL     1      34.729 -12.644 -22.439  0.00  0.00    +0.211 HD
ENDBRANCH  25  32
ENDBRANCH  19  23
ENDBRANCH  18  19
ENDBRANCH   1  18
TORSDOF 5
ENDMDL
MODEL 8
REMARK VINA RESULT:     -11.7      1.880      2.971
REMARK  Name = 115237
REMARK  5 active torsions:
REMARK  status: ('A' for Active; 'I' for Inactive)
REMARK    1  A    between atoms: N_1  and  C_18
REMARK    2  A    between atoms: C_2  and  C_11
REMARK    3  A    between atoms: C_18  and  C_19
REMARK    4  A    between atoms: C_19  and  C_23
REMARK    5  A    between atoms: C_25  and  O_32
REMARK                            x       y       z     vdW  Elec       q    Type
REMARK                         _______ _______ _______ _____ _____    ______ ____
ROOT
ATOM      1  N   UNL     1      35.293 -21.666 -19.959  0.00  0.00    +0.387 N 
ATOM      2  C   UNL     1      35.092 -18.904 -20.929  0.00  0.00    +0.039 C 
ATOM      3  C   UNL     1      36.419 -19.680 -20.915  0.00  0.00    -0.017 C 
ATOM      4  C   UNL     1      33.913 -19.890 -20.991  0.00  0.00    -0.017 C 
ATOM      5  C   UNL     1      36.429 -20.744 -19.815  0.00  0.00    -0.077 C 
ATOM      6  C   UNL     1      34.013 -20.947 -19.889  0.00  0.00    -0.077 C 
ATOM      7  H   UNL     1      35.358 -22.103 -20.878  0.00  0.00    -0.080 HD
ENDROOT
BRANCH   2  11
ATOM      8  F   UNL     1      33.928 -12.554 -22.811  0.00  0.00    -0.204 F 
ATOM      9  O   UNL     1      35.197 -17.037 -24.007  0.00  0.00    -0.354 OA
ATOM     10  N   UNL     1      35.341 -18.204 -23.268  0.00  0.00    -0.081 NA
ATOM     11  C   UNL     1      35.037 -17.858 -22.018  0.00  0.00    +0.100 A 
ATOM     12  C   UNL     1      34.694 -16.505 -21.891  0.00  0.00    +0.054 A 
ATOM     13  C   UNL     1      34.811 -16.024 -23.184  0.00  0.00    +0.179 A 
ATOM     14  C   UNL     1      34.305 -15.625 -20.869  0.00  0.00    +0.007 C 
ATOM     15  C   UNL     1      34.567 -14.705 -23.555  0.00  0.00    +0.070 C 
ATOM     16  C   UNL     1      34.050 -14.289 -21.208  0.00  0.00    +0.030 C 
ATOM     17  C   UNL     1      34.180 -13.840 -22.527  0.00  0.00    +0.143 C 
ENDBRANCH   2  11
BRANCH   1  18
ATOM     18  C   UNL     1      35.350 -22.710 -18.936  0.00  0.00    -0.076 C 
BRANCH  18  19
ATOM     19  C   UNL     1      36.146 -22.217 -17.736  0.00  0.00    -0.007 C 
BRANCH  19  23
ATOM     20  O   UNL     1      37.802 -22.640 -15.540  0.00  0.00    -0.274 OA
ATOM     21  N   UNL     1      36.115 -23.445 -14.150  0.00  0.00    -0.235 N 
ATOM     22  N   UNL     1      33.947 -23.778 -15.039  0.00  0.00    -0.397 NA
ATOM     23  C   UNL     1      35.634 -22.831 -16.465  0.00  0.00    +0.123 C 
ATOM     24  C   UNL     1      37.065 -23.616 -13.048  0.00  0.00    +0.100 C 
ATOM     25  C   UNL     1      34.279 -24.386 -12.727  0.00  0.00    +0.177 C 
ATOM     26  C   UNL     1      36.423 -23.739 -11.680  0.00  0.00    +0.025 C 
ATOM     27  C   UNL     1      35.352 -24.806 -11.742  0.00  0.00    +0.040 C 
ATOM     28  C   UNL     1      34.797 -23.862 -14.062  0.00  0.00    +0.192 C 
ATOM     29  C   UNL     1      36.627 -22.951 -15.353  0.00  0.00    +0.237 C 
ATOM     30  C   UNL     1      34.378 -23.261 -16.235  0.00  0.00    +0.097 C 
ATOM     31  C   UNL     1      33.299 -23.237 -17.285  0.00  0.00    +0.062 C 
BRANCH  25  32
ATOM     32  O   UNL     1      33.432 -25.498 -12.982  0.00  0.00    -0.376 OA
ATOM     33  H   UNL     1      32.693 -25.492 -12.355  0.00  0.00    +0.211 HD
ENDBRANCH  25  32
ENDBRANCH  19  23
ENDBRANCH  18  19
ENDBRANCH   1  18
TORSDOF 5
ENDMDL
MODEL 9
REMARK VINA RESULT:     -11.5      1.974      2.596
REMARK  Name = 115237
REMARK  5 active torsions:
REMARK  status: ('A' for Active; 'I' for Inactive)
REMARK    1  A    between atoms: N_1  and  C_18
REMARK    2  A    between atoms: C_2  and  C_11
REMARK    3  A    between atoms: C_18  and  C_19
REMARK    4  A    between atoms: C_19  and  C_23
REMARK    5  A    between atoms: C_25  and  O_32
REMARK                            x       y       z     vdW  Elec       q    Type
REMARK                         _______ _______ _______ _____ _____    ______ ____
ROOT
ATOM      1  N   UNL     1      36.057 -20.844 -19.395  0.00  0.00    +0.387 N 
ATOM      2  C   UNL     1      35.601 -19.294 -21.843  0.00  0.00    +0.039 C 
ATOM      3  C   UNL     1      34.448 -19.866 -21.002  0.00  0.00    -0.017 C 
ATOM      4  C   UNL     1      36.844 -19.095 -20.960  0.00  0.00    -0.017 C 
ATOM      5  C   UNL     1      34.886 -21.119 -20.240  0.00  0.00    -0.077 C 
ATOM      6  C   UNL     1      37.194 -20.376 -20.200  0.00  0.00    -0.077 C 
ATOM      7  H   UNL     1      35.807 -20.101 -18.743  0.00  0.00    -0.080 HD
ENDROOT
BRANCH   2  11
ATOM      8  F   UNL     1      33.499 -12.907 -21.753  0.00  0.00    -0.204 F 
ATOM      9  O   UNL     1      34.844 -16.763 -24.293  0.00  0.00    -0.354 OA
ATOM     10  N   UNL     1      35.252 -18.039 -23.924  0.00  0.00    -0.081 NA
ATOM     11  C   UNL     1      35.211 -18.040 -22.593  0.00  0.00    +0.100 A 
ATOM     12  C   UNL     1      34.790 -16.815 -22.055  0.00  0.00    +0.054 A 
ATOM     13  C   UNL     1      34.569 -16.035 -23.176  0.00  0.00    +0.179 A 
ATOM     14  C   UNL     1      34.569 -16.262 -20.785  0.00  0.00    +0.007 C 
ATOM     15  C   UNL     1      34.135 -14.713 -23.138  0.00  0.00    +0.070 C 
ATOM     16  C   UNL     1      34.130 -14.932 -20.710  0.00  0.00    +0.030 C 
ATOM     17  C   UNL     1      33.918 -14.175 -21.867  0.00  0.00    +0.143 C 
ENDBRANCH   2  11
BRANCH   1  18
ATOM     18  C   UNL     1      36.427 -22.035 -18.631  0.00  0.00    -0.076 C 
BRANCH  18  19
ATOM     19  C   UNL     1      35.294 -22.418 -17.689  0.00  0.00    -0.007 C 
BRANCH  19  23
ATOM     20  O   UNL     1      33.813 -23.814 -15.790  0.00  0.00    -0.274 OA
ATOM     21  N   UNL     1      35.459 -23.749 -14.143  0.00  0.00    -0.235 N 
ATOM     22  N   UNL     1      37.435 -22.507 -14.533  0.00  0.00    -0.397 NA
ATOM     23  C   UNL     1      35.811 -22.656 -16.299  0.00  0.00    +0.123 C 
ATOM     24  C   UNL     1      34.606 -24.503 -13.221  0.00  0.00    +0.100 C 
ATOM     25  C   UNL     1      37.230 -23.573 -12.378  0.00  0.00    +0.177 C 
ATOM     26  C   UNL     1      35.347 -25.145 -12.064  0.00  0.00    +0.025 C 
ATOM     27  C   UNL     1      36.201 -24.092 -11.393  0.00  0.00    +0.040 C 
ATOM     28  C   UNL     1      36.685 -23.228 -13.760  0.00  0.00    +0.192 C 
ATOM     29  C   UNL     1      34.927 -23.464 -15.403  0.00  0.00    +0.237 C 
ATOM     30  C   UNL     1      36.988 -22.228 -15.801  0.00  0.00    +0.097 C 
ATOM     31  C   UNL     1      37.945 -21.370 -16.584  0.00  0.00    +0.062 C 
BRANCH  25  32
ATOM     32  O   UNL     1      37.837 -22.409 -11.835  0.00  0.00    -0.376 OA
ATOM     33  H   UNL     1      38.740 -22.325 -12.178  0.00  0.00    +0.211 HD
ENDBRANCH  25  32
ENDBRANCH  19  23
ENDBRANCH  18  19
ENDBRANCH   1  18
TORSDOF 5
ENDMDL
