MODEL 1
REMARK VINA RESULT:     -11.3      0.000      0.000
REMARK  Name = 24963036
REMARK  7 active torsions:
REMARK  status: ('A' for Active; 'I' for Inactive)
REMARK    1  A    between atoms: N_2  and  C_20
REMARK    2  A    between atoms: C_3  and  C_7
REMARK    3  A    between atoms: C_11  and  C_12
REMARK    4  A    between atoms: C_12  and  O_13
REMARK    5  A    between atoms: O_13  and  C_14
REMARK    6  A    between atoms: C_20  and  C_21
REMARK    7  A    between atoms: C_26  and  C_29
REMARK                            x       y       z     vdW  Elec       q    Type
REMARK                         _______ _______ _______ _____ _____    ______ ____
ROOT
ATOM      1  O   UNL     1      32.298 -25.426 -12.975  0.00  0.00    -0.273 OA
ATOM      2  N   UNL     1      34.163 -24.053 -12.733  0.00  0.00    -0.299 N 
ATOM      3  C   UNL     1      32.900 -24.378 -13.196  0.00  0.00    +0.241 C 
ATOM      4  H   UNL     1      34.542 -23.178 -12.979  0.00  0.00    +0.150 HD
ENDROOT
BRANCH   3   7
ATOM      5  O   UNL     1      34.649 -23.233 -15.654  0.00  0.00    -0.272 OA
ATOM      6  N   UNL     1      32.389 -23.670 -15.410  0.00  0.00    -0.271 N 
ATOM      7  C   UNL     1      32.293 -23.275 -14.011  0.00  0.00    +0.152 C 
ATOM      8  C   UNL     1      30.798 -23.135 -13.749  0.00  0.00    +0.031 C 
ATOM      9  C   UNL     1      30.173 -24.128 -14.727  0.00  0.00    +0.024 C 
ATOM     10  C   UNL     1      31.080 -24.038 -15.944  0.00  0.00    +0.094 C 
ATOM     11  C   UNL     1      33.560 -23.546 -16.140  0.00  0.00    +0.256 C 
BRANCH  11  12
ATOM     12  C   UNL     1      33.440 -23.834 -17.615  0.00  0.00    +0.227 C 
BRANCH  12  13
ATOM     13  O   UNL     1      32.917 -22.672 -18.211  0.00  0.00    -0.347 OA
BRANCH  13  14
ATOM     14  C   UNL     1      33.717 -22.221 -19.298  0.00  0.00    +0.116 C 
ATOM     15  C   UNL     1      33.141 -20.919 -19.852  0.00  0.00    +0.030 C 
ATOM     16  C   UNL     1      35.161 -22.044 -18.832  0.00  0.00    +0.030 C 
ATOM     17  C   UNL     1      34.019 -20.341 -20.958  0.00  0.00    +0.002 C 
ATOM     18  C   UNL     1      36.041 -21.467 -19.938  0.00  0.00    +0.002 C 
ATOM     19  C   UNL     1      35.463 -20.167 -20.493  0.00  0.00    +0.000 C 
ENDBRANCH  13  14
ENDBRANCH  12  13
ENDBRANCH  11  12
ENDBRANCH   3   7
BRANCH   2  20
ATOM     20  C   UNL     1      34.953 -24.937 -11.905  0.00  0.00    +0.116 C 
BRANCH  20  21
ATOM     21  C   UNL     1      36.257 -25.297 -12.554  0.00  0.00    -0.003 C 
ATOM     22  C   UNL     1      36.284 -25.695 -13.891  0.00  0.00    -0.003 C 
ATOM     23  C   UNL     1      37.442 -25.236 -11.821  0.00  0.00    -0.003 C 
ATOM     24  C   UNL     1      37.497 -26.031 -14.495  0.00  0.00    +0.002 C 
ATOM     25  C   UNL     1      38.654 -25.571 -12.424  0.00  0.00    +0.002 C 
ATOM     26  C   UNL     1      38.682 -25.969 -13.760  0.00  0.00    +0.031 C 
BRANCH  26  29
ATOM     27  N   UNL     1      40.912 -27.058 -13.710  0.00  0.00    -0.343 N 
ATOM     28  N   UNL     1      40.194 -25.933 -15.627  0.00  0.00    -0.285 NA
ATOM     29  C   UNL     1      39.945 -26.320 -14.389  0.00  0.00    +0.117 C 
ATOM     30  H   UNL     1      41.761 -27.286 -14.155  0.00  0.00    +0.144 HD
ATOM     31  H   UNL     1      40.747 -27.353 -12.785  0.00  0.00    +0.144 HD
ATOM     32  H   UNL     1      41.048 -26.170 -16.055  0.00  0.00    +0.188 HD
ENDBRANCH  26  29
ENDBRANCH  20  21
ENDBRANCH   2  20
TORSDOF 7
ENDMDL
MODEL 2
REMARK VINA RESULT:     -10.7      2.135      6.498
REMARK  Name = 24963036
REMARK  7 active torsions:
REMARK  status: ('A' for Active; 'I' for Inactive)
REMARK    1  A    between atoms: N_2  and  C_20
REMARK    2  A    between atoms: C_3  and  C_7
REMARK    3  A    between atoms: C_11  and  C_12
REMARK    4  A    between atoms: C_12  and  O_13
REMARK    5  A    between atoms: O_13  and  C_14
REMARK    6  A    between atoms: C_20  and  C_21
REMARK    7  A    between atoms: C_26  and  C_29
REMARK                            x       y       z     vdW  Elec       q    Type
REMARK                         _______ _______ _______ _____ _____    ______ ____
ROOT
ATOM      1  O   UNL     1      34.737 -24.439 -12.164  0.00  0.00    -0.273 OA
ATOM      2  N   UNL     1      33.249 -25.416 -13.665  0.00  0.00    -0.299 N 
ATOM      3  C   UNL     1      34.498 -25.015 -13.223  0.00  0.00    +0.241 C 
ATOM      4  H   UNL     1      33.184 -25.871 -14.535  0.00  0.00    +0.150 HD
ENDROOT
BRANCH   3   7
ATOM      5  O   UNL     1      34.029 -24.281 -16.329  0.00  0.00    -0.272 OA
ATOM      6  N   UNL     1      35.896 -24.196 -14.964  0.00  0.00    -0.271 N 
ATOM      7  C   UNL     1      35.587 -25.387 -14.184  0.00  0.00    +0.152 C 
ATOM      8  C   UNL     1      36.886 -25.726 -13.463  0.00  0.00    +0.031 C 
ATOM      9  C   UNL     1      37.567 -24.369 -13.300  0.00  0.00    +0.024 C 
ATOM     10  C   UNL     1      37.187 -23.633 -14.577  0.00  0.00    +0.094 C 
ATOM     11  C   UNL     1      35.116 -23.781 -16.032  0.00  0.00    +0.256 C 
BRANCH  11  12
ATOM     12  C   UNL     1      35.673 -22.636 -16.838  0.00  0.00    +0.227 C 
BRANCH  12  13
ATOM     13  O   UNL     1      35.267 -22.844 -18.169  0.00  0.00    -0.347 OA
BRANCH  13  14
ATOM     14  C   UNL     1      34.914 -21.628 -18.817  0.00  0.00    +0.116 C 
ATOM     15  C   UNL     1      35.965 -21.286 -19.872  0.00  0.00    +0.030 C 
ATOM     16  C   UNL     1      33.522 -21.761 -19.433  0.00  0.00    +0.030 C 
ATOM     17  C   UNL     1      35.581 -20.040 -20.665  0.00  0.00    +0.002 C 
ATOM     18  C   UNL     1      33.137 -20.515 -20.225  0.00  0.00    +0.002 C 
ATOM     19  C   UNL     1      34.188 -20.172 -21.277  0.00  0.00    +0.000 C 
ENDBRANCH  13  14
ENDBRANCH  12  13
ENDBRANCH  11  12
ENDBRANCH   3   7
BRANCH   2  20
ATOM     20  C   UNL     1      32.035 -25.196 -12.911  0.00  0.00    +0.116 C 
BRANCH  20  21
ATOM     21  C   UNL     1      30.916 -24.700 -13.780  0.00  0.00    -0.003 C 
ATOM     22  C   UNL     1      29.905 -25.573 -14.181  0.00  0.00    -0.003 C 
ATOM     23  C   UNL     1      30.888 -23.366 -14.187  0.00  0.00    -0.003 C 
ATOM     24  C   UNL     1      28.866 -25.112 -14.990  0.00  0.00    +0.002 C 
ATOM     25  C   UNL     1      29.849 -22.905 -14.994  0.00  0.00    +0.002 C 
ATOM     26  C   UNL     1      28.838 -23.778 -15.396  0.00  0.00    +0.031 C 
BRANCH  26  29
ATOM     27  N   UNL     1      26.744 -22.485 -15.728  0.00  0.00    -0.343 N 
ATOM     28  N   UNL     1      27.714 -23.635 -17.516  0.00  0.00    -0.285 NA
ATOM     29  C   UNL     1      27.755 -23.298 -16.239  0.00  0.00    +0.117 C 
ATOM     30  H   UNL     1      26.020 -22.170 -16.317  0.00  0.00    +0.144 HD
ATOM     31  H   UNL     1      26.755 -22.225 -14.778  0.00  0.00    +0.144 HD
ATOM     32  H   UNL     1      26.983 -23.311 -18.088  0.00  0.00    +0.188 HD
ENDBRANCH  26  29
ENDBRANCH  20  21
ENDBRANCH   2  20
TORSDOF 7
ENDMDL
MODEL 3
REMARK VINA RESULT:     -10.2      7.903     11.364
REMARK  Name = 24963036
REMARK  7 active torsions:
REMARK  status: ('A' for Active; 'I' for Inactive)
REMARK    1  A    between atoms: N_2  and  C_20
REMARK    2  A    between atoms: C_3  and  C_7
REMARK    3  A    between atoms: C_11  and  C_12
REMARK    4  A    between atoms: C_12  and  O_13
REMARK    5  A    between atoms: O_13  and  C_14
REMARK    6  A    between atoms: C_20  and  C_21
REMARK    7  A    between atoms: C_26  and  C_29
REMARK                            x       y       z     vdW  Elec       q    Type
REMARK                         _______ _______ _______ _____ _____    ______ ____
ROOT
ATOM      1  O   UNL     1      34.151 -15.904 -23.371  0.00  0.00    -0.273 OA
ATOM      2  N   UNL     1      34.930 -17.141 -21.559  0.00  0.00    -0.299 N 
ATOM      3  C   UNL     1      34.505 -15.989 -22.198  0.00  0.00    +0.241 C 
ATOM      4  H   UNL     1      35.188 -17.082 -20.611  0.00  0.00    +0.150 HD
ENDROOT
BRANCH   3   7
ATOM      5  O   UNL     1      34.686 -13.072 -23.565  0.00  0.00    -0.272 OA
ATOM      6  N   UNL     1      33.468 -13.889 -21.775  0.00  0.00    -0.271 N 
ATOM      7  C   UNL     1      34.490 -14.803 -21.281  0.00  0.00    +0.152 C 
ATOM      8  C   UNL     1      34.029 -15.178 -19.877  0.00  0.00    +0.031 C 
ATOM      9  C   UNL     1      32.508 -15.063 -19.961  0.00  0.00    +0.024 C 
ATOM     10  C   UNL     1      32.298 -13.885 -20.900  0.00  0.00    +0.094 C 
ATOM     11  C   UNL     1      33.684 -13.039 -22.848  0.00  0.00    +0.256 C 
BRANCH  11  12
ATOM     12  C   UNL     1      32.589 -12.039 -23.116  0.00  0.00    +0.227 C 
BRANCH  12  13
ATOM     13  O   UNL     1      33.212 -10.885 -23.625  0.00  0.00    -0.347 OA
BRANCH  13  14
ATOM     14  C   UNL     1      32.756  -9.702 -22.981  0.00  0.00    +0.116 C 
ATOM     15  C   UNL     1      32.252 -10.043 -21.579  0.00  0.00    +0.030 C 
ATOM     16  C   UNL     1      33.885  -8.673 -22.938  0.00  0.00    +0.030 C 
ATOM     17  C   UNL     1      31.842  -8.791 -20.809  0.00  0.00    +0.002 C 
ATOM     18  C   UNL     1      33.474  -7.421 -22.169  0.00  0.00    +0.002 C 
ATOM     19  C   UNL     1      32.969  -7.762 -20.769  0.00  0.00    +0.000 C 
ENDBRANCH  13  14
ENDBRANCH  12  13
ENDBRANCH  11  12
ENDBRANCH   3   7
BRANCH   2  20
ATOM     20  C   UNL     1      35.012 -18.425 -22.217  0.00  0.00    +0.116 C 
BRANCH  20  21
ATOM     21  C   UNL     1      34.922 -19.562 -21.241  0.00  0.00    -0.003 C 
ATOM     22  C   UNL     1      36.087 -20.158 -20.756  0.00  0.00    -0.003 C 
ATOM     23  C   UNL     1      33.676 -20.025 -20.820  0.00  0.00    -0.003 C 
ATOM     24  C   UNL     1      36.004 -21.216 -19.850  0.00  0.00    +0.002 C 
ATOM     25  C   UNL     1      33.593 -21.082 -19.914  0.00  0.00    +0.002 C 
ATOM     26  C   UNL     1      34.757 -21.678 -19.429  0.00  0.00    +0.031 C 
BRANCH  26  29
ATOM     27  N   UNL     1      35.440 -22.802 -17.324  0.00  0.00    -0.343 N 
ATOM     28  N   UNL     1      33.853 -23.790 -18.725  0.00  0.00    -0.285 NA
ATOM     29  C   UNL     1      34.671 -22.781 -18.486  0.00  0.00    +0.117 C 
ATOM     30  H   UNL     1      35.366 -23.559 -16.698  0.00  0.00    +0.144 HD
ATOM     31  H   UNL     1      36.058 -22.060 -17.129  0.00  0.00    +0.144 HD
ATOM     32  H   UNL     1      33.793 -24.537 -18.088  0.00  0.00    +0.188 HD
ENDBRANCH  26  29
ENDBRANCH  20  21
ENDBRANCH   2  20
TORSDOF 7
ENDMDL
MODEL 4
REMARK VINA RESULT:     -10.0      7.366     11.342
REMARK  Name = 24963036
REMARK  7 active torsions:
REMARK  status: ('A' for Active; 'I' for Inactive)
REMARK    1  A    between atoms: N_2  and  C_20
REMARK    2  A    between atoms: C_3  and  C_7
REMARK    3  A    between atoms: C_11  and  C_12
REMARK    4  A    between atoms: C_12  and  O_13
REMARK    5  A    between atoms: O_13  and  C_14
REMARK    6  A    between atoms: C_20  and  C_21
REMARK    7  A    between atoms: C_26  and  C_29
REMARK                            x       y       z     vdW  Elec       q    Type
REMARK                         _______ _______ _______ _____ _____    ______ ____
ROOT
ATOM      1  O   UNL     1      35.807 -15.744 -23.491  0.00  0.00    -0.273 OA
ATOM      2  N   UNL     1      34.517 -17.236 -22.254  0.00  0.00    -0.299 N 
ATOM      3  C   UNL     1      34.724 -16.125 -23.053  0.00  0.00    +0.241 C 
ATOM      4  H   UNL     1      33.599 -17.440 -21.965  0.00  0.00    +0.150 HD
ENDROOT
BRANCH   3   7
ATOM      5  O   UNL     1      32.758 -15.456 -20.584  0.00  0.00    -0.272 OA
ATOM      6  N   UNL     1      33.359 -14.265 -22.475  0.00  0.00    -0.271 N 
ATOM      7  C   UNL     1      33.447 -15.409 -23.373  0.00  0.00    +0.152 C 
ATOM      8  C   UNL     1      33.471 -14.804 -24.771  0.00  0.00    +0.031 C 
ATOM      9  C   UNL     1      34.120 -13.438 -24.555  0.00  0.00    +0.024 C 
ATOM     10  C   UNL     1      33.594 -13.014 -23.192  0.00  0.00    +0.094 C 
ATOM     11  C   UNL     1      32.947 -14.381 -21.157  0.00  0.00    +0.256 C 
BRANCH  11  12
ATOM     12  C   UNL     1      32.744 -13.081 -20.421  0.00  0.00    +0.227 C 
BRANCH  12  13
ATOM     13  O   UNL     1      31.398 -12.719 -20.609  0.00  0.00    -0.347 OA
BRANCH  13  14
ATOM     14  C   UNL     1      31.195 -11.318 -20.462  0.00  0.00    +0.116 C 
ATOM     15  C   UNL     1      31.795 -10.850 -19.137  0.00  0.00    +0.030 C 
ATOM     16  C   UNL     1      31.813 -10.582 -21.650  0.00  0.00    +0.030 C 
ATOM     17  C   UNL     1      31.690  -9.336 -18.975  0.00  0.00    +0.002 C 
ATOM     18  C   UNL     1      31.707  -9.069 -21.489  0.00  0.00    +0.002 C 
ATOM     19  C   UNL     1      32.305  -8.601 -20.164  0.00  0.00    +0.000 C 
ENDBRANCH  13  14
ENDBRANCH  12  13
ENDBRANCH  11  12
ENDBRANCH   3   7
BRANCH   2  20
ATOM     20  C   UNL     1      35.585 -18.110 -21.823  0.00  0.00    +0.116 C 
BRANCH  20  21
ATOM     21  C   UNL     1      35.066 -19.299 -21.067  0.00  0.00    -0.003 C 
ATOM     22  C   UNL     1      33.692 -19.513 -20.963  0.00  0.00    -0.003 C 
ATOM     23  C   UNL     1      35.958 -20.188 -20.468  0.00  0.00    -0.003 C 
ATOM     24  C   UNL     1      33.209 -20.618 -20.260  0.00  0.00    +0.002 C 
ATOM     25  C   UNL     1      35.476 -21.292 -19.765  0.00  0.00    +0.002 C 
ATOM     26  C   UNL     1      34.103 -21.507 -19.661  0.00  0.00    +0.031 C 
BRANCH  26  29
ATOM     27  N   UNL     1      34.187 -23.915 -19.060  0.00  0.00    -0.343 N 
ATOM     28  N   UNL     1      32.564 -22.522 -18.119  0.00  0.00    -0.285 NA
ATOM     29  C   UNL     1      33.600 -22.658 -18.927  0.00  0.00    +0.117 C 
ATOM     30  H   UNL     1      33.830 -24.681 -18.553  0.00  0.00    +0.144 HD
ATOM     31  H   UNL     1      34.958 -24.037 -19.660  0.00  0.00    +0.144 HD
ATOM     32  H   UNL     1      32.223 -23.299 -17.621  0.00  0.00    +0.188 HD
ENDBRANCH  26  29
ENDBRANCH  20  21
ENDBRANCH   2  20
TORSDOF 7
ENDMDL
MODEL 5
REMARK VINA RESULT:     -10.0      2.519      7.162
REMARK  Name = 24963036
REMARK  7 active torsions:
REMARK  status: ('A' for Active; 'I' for Inactive)
REMARK    1  A    between atoms: N_2  and  C_20
REMARK    2  A    between atoms: C_3  and  C_7
REMARK    3  A    between atoms: C_11  and  C_12
REMARK    4  A    between atoms: C_12  and  O_13
REMARK    5  A    between atoms: O_13  and  C_14
REMARK    6  A    between atoms: C_20  and  C_21
REMARK    7  A    between atoms: C_26  and  C_29
REMARK                            x       y       z     vdW  Elec       q    Type
REMARK                         _______ _______ _______ _____ _____    ______ ____
ROOT
ATOM      1  O   UNL     1      38.289 -24.364 -14.434  0.00  0.00    -0.273 OA
ATOM      2  N   UNL     1      36.942 -22.725 -15.393  0.00  0.00    -0.299 N 
ATOM      3  C   UNL     1      37.390 -23.530 -14.360  0.00  0.00    +0.241 C 
ATOM      4  H   UNL     1      36.211 -22.092 -15.210  0.00  0.00    +0.150 HD
ENDROOT
BRANCH   3   7
ATOM      5  O   UNL     1      34.210 -23.016 -14.552  0.00  0.00    -0.272 OA
ATOM      6  N   UNL     1      35.521 -24.169 -13.033  0.00  0.00    -0.271 N 
ATOM      7  C   UNL     1      36.662 -23.264 -13.076  0.00  0.00    +0.152 C 
ATOM      8  C   UNL     1      37.502 -23.641 -11.861  0.00  0.00    +0.031 C 
ATOM      9  C   UNL     1      37.196 -25.124 -11.665  0.00  0.00    +0.024 C 
ATOM     10  C   UNL     1      35.729 -25.232 -12.053  0.00  0.00    +0.094 C 
ATOM     11  C   UNL     1      34.349 -23.925 -13.731  0.00  0.00    +0.256 C 
BRANCH  11  12
ATOM     12  C   UNL     1      33.209 -24.866 -13.438  0.00  0.00    +0.227 C 
BRANCH  12  13
ATOM     13  O   UNL     1      32.273 -24.140 -12.679  0.00  0.00    -0.347 OA
BRANCH  13  14
ATOM     14  C   UNL     1      30.966 -24.202 -13.240  0.00  0.00    +0.116 C 
ATOM     15  C   UNL     1      30.808 -23.104 -14.291  0.00  0.00    +0.030 C 
ATOM     16  C   UNL     1      30.728 -25.588 -13.836  0.00  0.00    +0.030 C 
ATOM     17  C   UNL     1      29.456 -23.188 -14.993  0.00  0.00    +0.002 C 
ATOM     18  C   UNL     1      29.376 -25.673 -14.537  0.00  0.00    +0.002 C 
ATOM     19  C   UNL     1      29.217 -24.575 -15.585  0.00  0.00    +0.000 C 
ENDBRANCH  13  14
ENDBRANCH  12  13
ENDBRANCH  11  12
ENDBRANCH   3   7
BRANCH   2  20
ATOM     20  C   UNL     1      37.496 -22.770 -16.727  0.00  0.00    +0.116 C 
BRANCH  20  21
ATOM     21  C   UNL     1      36.543 -22.222 -17.750  0.00  0.00    -0.003 C 
ATOM     22  C   UNL     1      35.194 -22.576 -17.705  0.00  0.00    -0.003 C 
ATOM     23  C   UNL     1      37.006 -21.362 -18.745  0.00  0.00    -0.003 C 
ATOM     24  C   UNL     1      34.308 -22.068 -18.656  0.00  0.00    +0.002 C 
ATOM     25  C   UNL     1      36.120 -20.855 -19.696  0.00  0.00    +0.002 C 
ATOM     26  C   UNL     1      34.772 -21.208 -19.651  0.00  0.00    +0.031 C 
BRANCH  26  29
ATOM     27  N   UNL     1      34.306 -20.005 -21.773  0.00  0.00    -0.343 N 
ATOM     28  N   UNL     1      32.547 -20.832 -20.478  0.00  0.00    -0.285 NA
ATOM     29  C   UNL     1      33.849 -20.679 -20.643  0.00  0.00    +0.117 C 
ATOM     30  H   UNL     1      33.663 -19.656 -22.432  0.00  0.00    +0.144 HD
ATOM     31  H   UNL     1      35.273 -19.878 -21.913  0.00  0.00    +0.144 HD
ATOM     32  H   UNL     1      31.920 -20.476 -21.147  0.00  0.00    +0.188 HD
ENDBRANCH  26  29
ENDBRANCH  20  21
ENDBRANCH   2  20
TORSDOF 7
ENDMDL
MODEL 6
REMARK VINA RESULT:     -10.0      8.759     13.777
REMARK  Name = 24963036
REMARK  7 active torsions:
REMARK  status: ('A' for Active; 'I' for Inactive)
REMARK    1  A    between atoms: N_2  and  C_20
REMARK    2  A    between atoms: C_3  and  C_7
REMARK    3  A    between atoms: C_11  and  C_12
REMARK    4  A    between atoms: C_12  and  O_13
REMARK    5  A    between atoms: O_13  and  C_14
REMARK    6  A    between atoms: C_20  and  C_21
REMARK    7  A    between atoms: C_26  and  C_29
REMARK                            x       y       z     vdW  Elec       q    Type
REMARK                         _______ _______ _______ _____ _____    ______ ____
ROOT
ATOM      1  O   UNL     1      32.805 -15.339 -20.979  0.00  0.00    -0.273 OA
ATOM      2  N   UNL     1      32.861 -13.283 -22.068  0.00  0.00    -0.299 N 
ATOM      3  C   UNL     1      33.330 -14.547 -21.757  0.00  0.00    +0.241 C 
ATOM      4  H   UNL     1      33.371 -12.738 -22.710  0.00  0.00    +0.150 HD
ENDROOT
BRANCH   3   7
ATOM      5  O   UNL     1      35.174 -16.902 -20.547  0.00  0.00    -0.272 OA
ATOM      6  N   UNL     1      34.581 -16.332 -22.710  0.00  0.00    -0.271 N 
ATOM      7  C   UNL     1      34.581 -14.889 -22.509  0.00  0.00    +0.152 C 
ATOM      8  C   UNL     1      34.575 -14.302 -23.915  0.00  0.00    +0.031 C 
ATOM      9  C   UNL     1      33.853 -15.365 -24.741  0.00  0.00    +0.024 C 
ATOM     10  C   UNL     1      34.309 -16.669 -24.105  0.00  0.00    +0.094 C 
ATOM     11  C   UNL     1      34.952 -17.224 -21.715  0.00  0.00    +0.256 C 
BRANCH  11  12
ATOM     12  C   UNL     1      35.066 -18.665 -22.143  0.00  0.00    +0.227 C 
BRANCH  12  13
ATOM     13  O   UNL     1      35.767 -19.334 -21.124  0.00  0.00    -0.347 OA
BRANCH  13  14
ATOM     14  C   UNL     1      35.133 -20.550 -20.746  0.00  0.00    +0.116 C 
ATOM     15  C   UNL     1      35.937 -21.224 -19.636  0.00  0.00    +0.030 C 
ATOM     16  C   UNL     1      33.697 -20.264 -20.307  0.00  0.00    +0.030 C 
ATOM     17  C   UNL     1      35.246 -22.485 -19.127  0.00  0.00    +0.002 C 
ATOM     18  C   UNL     1      33.005 -21.526 -19.799  0.00  0.00    +0.002 C 
ATOM     19  C   UNL     1      33.810 -22.200 -18.691  0.00  0.00    +0.000 C 
ENDBRANCH  13  14
ENDBRANCH  12  13
ENDBRANCH  11  12
ENDBRANCH   3   7
BRANCH   2  20
ATOM     20  C   UNL     1      31.657 -12.724 -21.495  0.00  0.00    +0.116 C 
BRANCH  20  21
ATOM     21  C   UNL     1      31.830 -11.279 -21.126  0.00  0.00    -0.003 C 
ATOM     22  C   UNL     1      32.027 -10.323 -22.123  0.00  0.00    -0.003 C 
ATOM     23  C   UNL     1      31.795 -10.892 -19.787  0.00  0.00    -0.003 C 
ATOM     24  C   UNL     1      32.189  -8.980 -21.781  0.00  0.00    +0.002 C 
ATOM     25  C   UNL     1      31.957  -9.550 -19.444  0.00  0.00    +0.002 C 
ATOM     26  C   UNL     1      32.154  -8.594 -20.440  0.00  0.00    +0.031 C 
BRANCH  26  29
ATOM     27  N   UNL     1      31.628  -6.187 -20.750  0.00  0.00    -0.343 N 
ATOM     28  N   UNL     1      33.152  -6.859 -19.111  0.00  0.00    -0.285 NA
ATOM     29  C   UNL     1      32.323  -7.195 -20.083  0.00  0.00    +0.117 C 
ATOM     30  H   UNL     1      31.757  -5.246 -20.491  0.00  0.00    +0.144 HD
ATOM     31  H   UNL     1      31.008  -6.417 -21.480  0.00  0.00    +0.144 HD
ATOM     32  H   UNL     1      33.267  -5.913 -18.867  0.00  0.00    +0.188 HD
ENDBRANCH  26  29
ENDBRANCH  20  21
ENDBRANCH   2  20
TORSDOF 7
ENDMDL
MODEL 7
REMARK VINA RESULT:      -9.8      9.820     14.914
REMARK  Name = 24963036
REMARK  7 active torsions:
REMARK  status: ('A' for Active; 'I' for Inactive)
REMARK    1  A    between atoms: N_2  and  C_20
REMARK    2  A    between atoms: C_3  and  C_7
REMARK    3  A    between atoms: C_11  and  C_12
REMARK    4  A    between atoms: C_12  and  O_13
REMARK    5  A    between atoms: O_13  and  C_14
REMARK    6  A    between atoms: C_20  and  C_21
REMARK    7  A    between atoms: C_26  and  C_29
REMARK                            x       y       z     vdW  Elec       q    Type
REMARK                         _______ _______ _______ _____ _____    ______ ____
ROOT
ATOM      1  O   UNL     1      32.247 -14.491 -22.015  0.00  0.00    -0.273 OA
ATOM      2  N   UNL     1      32.794 -12.232 -22.146  0.00  0.00    -0.299 N 
ATOM      3  C   UNL     1      32.950 -13.576 -22.438  0.00  0.00    +0.241 C 
ATOM      4  H   UNL     1      33.423 -11.590 -22.547  0.00  0.00    +0.150 HD
ENDROOT
BRANCH   3   7
ATOM      5  O   UNL     1      35.128 -15.787 -21.556  0.00  0.00    -0.272 OA
ATOM      6  N   UNL     1      34.164 -15.264 -23.594  0.00  0.00    -0.271 N 
ATOM      7  C   UNL     1      34.089 -13.825 -23.379  0.00  0.00    +0.152 C 
ATOM      8  C   UNL     1      33.820 -13.240 -24.761  0.00  0.00    +0.031 C 
ATOM      9  C   UNL     1      33.058 -14.354 -25.475  0.00  0.00    +0.024 C 
ATOM     10  C   UNL     1      33.702 -15.621 -24.933  0.00  0.00    +0.094 C 
ATOM     11  C   UNL     1      34.750 -16.125 -22.680  0.00  0.00    +0.256 C 
BRANCH  11  12
ATOM     12  C   UNL     1      34.900 -17.554 -23.136  0.00  0.00    +0.227 C 
BRANCH  12  13
ATOM     13  O   UNL     1      36.076 -18.045 -22.541  0.00  0.00    -0.347 OA
BRANCH  13  14
ATOM     14  C   UNL     1      35.809 -18.774 -21.349  0.00  0.00    +0.116 C 
ATOM     15  C   UNL     1      34.653 -19.743 -21.588  0.00  0.00    +0.030 C 
ATOM     16  C   UNL     1      37.073 -19.506 -20.901  0.00  0.00    +0.030 C 
ATOM     17  C   UNL     1      34.390 -20.619 -20.367  0.00  0.00    +0.002 C 
ATOM     18  C   UNL     1      36.811 -20.381 -19.678  0.00  0.00    +0.002 C 
ATOM     19  C   UNL     1      35.654 -21.348 -19.917  0.00  0.00    +0.000 C 
ENDBRANCH  13  14
ENDBRANCH  12  13
ENDBRANCH  11  12
ENDBRANCH   3   7
BRANCH   2  20
ATOM     20  C   UNL     1      31.754 -11.727 -21.280  0.00  0.00    +0.116 C 
BRANCH  20  21
ATOM     21  C   UNL     1      31.675 -10.228 -21.312  0.00  0.00    -0.003 C 
ATOM     22  C   UNL     1      31.885  -9.493 -20.145  0.00  0.00    -0.003 C 
ATOM     23  C   UNL     1      31.389  -9.570 -22.508  0.00  0.00    -0.003 C 
ATOM     24  C   UNL     1      31.811  -8.100 -20.175  0.00  0.00    +0.002 C 
ATOM     25  C   UNL     1      31.315  -8.177 -22.538  0.00  0.00    +0.002 C 
ATOM     26  C   UNL     1      31.525  -7.443 -21.372  0.00  0.00    +0.031 C 
BRANCH  26  29
ATOM     27  N   UNL     1      30.299  -5.318 -20.989  0.00  0.00    -0.343 N 
ATOM     28  N   UNL     1      32.478  -5.285 -21.832  0.00  0.00    -0.285 NA
ATOM     29  C   UNL     1      31.447  -5.991 -21.402  0.00  0.00    +0.117 C 
ATOM     30  H   UNL     1      30.268  -4.334 -21.017  0.00  0.00    +0.144 HD
ATOM     31  H   UNL     1      29.519  -5.826 -20.669  0.00  0.00    +0.144 HD
ATOM     32  H   UNL     1      32.428  -4.303 -21.852  0.00  0.00    +0.188 HD
ENDBRANCH  26  29
ENDBRANCH  20  21
ENDBRANCH   2  20
TORSDOF 7
ENDMDL
MODEL 8
REMARK VINA RESULT:      -9.8      5.212      8.339
REMARK  Name = 24963036
REMARK  7 active torsions:
REMARK  status: ('A' for Active; 'I' for Inactive)
REMARK    1  A    between atoms: N_2  and  C_20
REMARK    2  A    between atoms: C_3  and  C_7
REMARK    3  A    between atoms: C_11  and  C_12
REMARK    4  A    between atoms: C_12  and  O_13
REMARK    5  A    between atoms: O_13  and  C_14
REMARK    6  A    between atoms: C_20  and  C_21
REMARK    7  A    between atoms: C_26  and  C_29
REMARK                            x       y       z     vdW  Elec       q    Type
REMARK                         _______ _______ _______ _____ _____    ______ ____
ROOT
ATOM      1  O   UNL     1      36.933 -18.881 -20.788  0.00  0.00    -0.273 OA
ATOM      2  N   UNL     1      35.743 -20.714 -19.984  0.00  0.00    -0.299 N 
ATOM      3  C   UNL     1      35.907 -19.553 -20.721  0.00  0.00    +0.241 C 
ATOM      4  H   UNL     1      34.869 -21.166 -20.011  0.00  0.00    +0.150 HD
ENDROOT
BRANCH   3   7
ATOM      5  O   UNL     1      34.592 -16.674 -20.097  0.00  0.00    -0.272 OA
ATOM      6  N   UNL     1      34.894 -17.866 -22.058  0.00  0.00    -0.271 N 
ATOM      7  C   UNL     1      34.671 -19.187 -21.486  0.00  0.00    +0.152 C 
ATOM      8  C   UNL     1      34.458 -20.099 -22.689  0.00  0.00    +0.031 C 
ATOM      9  C   UNL     1      35.274 -19.427 -23.791  0.00  0.00    +0.024 C 
ATOM     10  C   UNL     1      35.098 -17.944 -23.502  0.00  0.00    +0.094 C 
ATOM     11  C   UNL     1      34.763 -16.701 -21.317  0.00  0.00    +0.256 C 
BRANCH  11  12
ATOM     12  C   UNL     1      34.856 -15.418 -22.102  0.00  0.00    +0.227 C 
BRANCH  12  13
ATOM     13  O   UNL     1      33.536 -14.990 -22.332  0.00  0.00    -0.347 OA
BRANCH  13  14
ATOM     14  C   UNL     1      33.234 -13.786 -21.636  0.00  0.00    +0.116 C 
ATOM     15  C   UNL     1      32.667 -12.758 -22.614  0.00  0.00    +0.030 C 
ATOM     16  C   UNL     1      32.255 -14.081 -20.501  0.00  0.00    +0.030 C 
ATOM     17  C   UNL     1      32.236 -11.480 -21.899  0.00  0.00    +0.002 C 
ATOM     18  C   UNL     1      31.824 -12.805 -19.785  0.00  0.00    +0.002 C 
ATOM     19  C   UNL     1      31.261 -11.776 -20.762  0.00  0.00    +0.000 C 
ENDBRANCH  13  14
ENDBRANCH  12  13
ENDBRANCH  11  12
ENDBRANCH   3   7
BRANCH   2  20
ATOM     20  C   UNL     1      36.793 -21.292 -19.177  0.00  0.00    +0.116 C 
BRANCH  20  21
ATOM     21  C   UNL     1      36.246 -22.053 -18.005  0.00  0.00    -0.003 C 
ATOM     22  C   UNL     1      34.930 -22.518 -18.028  0.00  0.00    -0.003 C 
ATOM     23  C   UNL     1      37.051 -22.295 -16.892  0.00  0.00    -0.003 C 
ATOM     24  C   UNL     1      34.420 -23.224 -16.938  0.00  0.00    +0.002 C 
ATOM     25  C   UNL     1      36.542 -23.001 -15.802  0.00  0.00    +0.002 C 
ATOM     26  C   UNL     1      35.227 -23.465 -15.825  0.00  0.00    +0.031 C 
BRANCH  26  29
ATOM     27  N   UNL     1      33.796 -23.613 -13.801  0.00  0.00    -0.343 N 
ATOM     28  N   UNL     1      35.067 -25.451 -14.482  0.00  0.00    -0.285 NA
ATOM     29  C   UNL     1      34.695 -24.201 -14.689  0.00  0.00    +0.117 C 
ATOM     30  H   UNL     1      33.448 -24.130 -13.038  0.00  0.00    +0.144 HD
ATOM     31  H   UNL     1      33.509 -22.681 -13.936  0.00  0.00    +0.144 HD
ATOM     32  H   UNL     1      34.708 -25.951 -13.714  0.00  0.00    +0.188 HD
ENDBRANCH  26  29
ENDBRANCH  20  21
ENDBRANCH   2  20
TORSDOF 7
ENDMDL
MODEL 9
REMARK VINA RESULT:      -9.7      9.239     14.286
REMARK  Name = 24963036
REMARK  7 active torsions:
REMARK  status: ('A' for Active; 'I' for Inactive)
REMARK    1  A    between atoms: N_2  and  C_20
REMARK    2  A    between atoms: C_3  and  C_7
REMARK    3  A    between atoms: C_11  and  C_12
REMARK    4  A    between atoms: C_12  and  O_13
REMARK    5  A    between atoms: O_13  and  C_14
REMARK    6  A    between atoms: C_20  and  C_21
REMARK    7  A    between atoms: C_26  and  C_29
REMARK                            x       y       z     vdW  Elec       q    Type
REMARK                         _______ _______ _______ _____ _____    ______ ____
ROOT
ATOM      1  O   UNL     1      35.220 -13.732 -22.893  0.00  0.00    -0.273 OA
ATOM      2  N   UNL     1      33.191 -12.742 -23.459  0.00  0.00    -0.299 N 
ATOM      3  C   UNL     1      33.993 -13.744 -22.941  0.00  0.00    +0.241 C 
ATOM      4  H   UNL     1      32.215 -12.866 -23.442  0.00  0.00    +0.150 HD
ENDROOT
BRANCH   3   7
ATOM      5  O   UNL     1      34.716 -16.694 -24.030  0.00  0.00    -0.272 OA
ATOM      6  N   UNL     1      34.137 -15.896 -21.936  0.00  0.00    -0.271 N 
ATOM      7  C   UNL     1      33.191 -14.888 -22.397  0.00  0.00    +0.152 C 
ATOM      8  C   UNL     1      32.411 -14.490 -21.150  0.00  0.00    +0.031 C 
ATOM      9  C   UNL     1      33.409 -14.722 -20.018  0.00  0.00    +0.024 C 
ATOM     10  C   UNL     1      34.179 -15.951 -20.477  0.00  0.00    +0.094 C 
ATOM     11  C   UNL     1      34.773 -16.772 -22.802  0.00  0.00    +0.256 C 
BRANCH  11  12
ATOM     12  C   UNL     1      35.582 -17.862 -22.145  0.00  0.00    +0.227 C 
BRANCH  12  13
ATOM     13  O   UNL     1      34.778 -19.016 -22.148  0.00  0.00    -0.347 OA
BRANCH  13  14
ATOM     14  C   UNL     1      34.755 -19.655 -20.877  0.00  0.00    +0.116 C 
ATOM     15  C   UNL     1      33.459 -20.451 -20.727  0.00  0.00    +0.030 C 
ATOM     16  C   UNL     1      35.984 -20.551 -20.730  0.00  0.00    +0.030 C 
ATOM     17  C   UNL     1      33.428 -21.235 -19.418  0.00  0.00    +0.002 C 
ATOM     18  C   UNL     1      35.954 -21.334 -19.421  0.00  0.00    +0.002 C 
ATOM     19  C   UNL     1      34.658 -22.127 -19.270  0.00  0.00    +0.000 C 
ENDBRANCH  13  14
ENDBRANCH  12  13
ENDBRANCH  11  12
ENDBRANCH   3   7
BRANCH   2  20
ATOM     20  C   UNL     1      33.719 -11.520 -24.024  0.00  0.00    +0.116 C 
BRANCH  20  21
ATOM     21  C   UNL     1      33.405 -10.325 -23.171  0.00  0.00    -0.003 C 
ATOM     22  C   UNL     1      34.135  -9.147 -23.327  0.00  0.00    -0.003 C 
ATOM     23  C   UNL     1      32.385 -10.394 -22.222  0.00  0.00    -0.003 C 
ATOM     24  C   UNL     1      33.845  -8.036 -22.534  0.00  0.00    +0.002 C 
ATOM     25  C   UNL     1      32.094  -9.284 -21.430  0.00  0.00    +0.002 C 
ATOM     26  C   UNL     1      32.824  -8.105 -21.585  0.00  0.00    +0.031 C 
BRANCH  26  29
ATOM     27  N   UNL     1      31.911  -5.815 -21.292  0.00  0.00    -0.343 N 
ATOM     28  N   UNL     1      32.830  -6.958 -19.473  0.00  0.00    -0.285 NA
ATOM     29  C   UNL     1      32.522  -6.948 -20.758  0.00  0.00    +0.117 C 
ATOM     30  H   UNL     1      31.715  -5.042 -20.714  0.00  0.00    +0.144 HD
ATOM     31  H   UNL     1      31.677  -5.787 -22.248  0.00  0.00    +0.144 HD
ATOM     32  H   UNL     1      32.625  -6.177 -18.912  0.00  0.00    +0.188 HD
ENDBRANCH  26  29
ENDBRANCH  20  21
ENDBRANCH   2  20
TORSDOF 7
ENDMDL
