MODEL 1
REMARK VINA RESULT:     -11.2      0.000      0.000
REMARK  Name = 447734
REMARK  5 active torsions:
REMARK  status: ('A' for Active; 'I' for Inactive)
REMARK    1  A    between atoms: C_3  and  C_19
REMARK    2  A    between atoms: C_9  and  C_13
REMARK    3  A    between atoms: N_18  and  C_24
REMARK    4  A    between atoms: C_21  and  O_27
REMARK    5  A    between atoms: O_27  and  C_28
REMARK                            x       y       z     vdW  Elec       q    Type
REMARK                         _______ _______ _______ _____ _____    ______ ____
ROOT
ATOM      1  C   UNL     1      35.981 -22.437 -17.302  0.00  0.00    +0.000 C 
ATOM      2  C   UNL     1      35.003 -23.252 -16.684  0.00  0.00    +0.000 C 
ATOM      3  C   UNL     1      34.332 -21.721 -18.941  0.00  0.00    +0.054 C 
ATOM      4  C   UNL     1      35.629 -21.678 -18.430  0.00  0.00    +0.005 C 
ATOM      5  C   UNL     1      33.702 -23.284 -17.211  0.00  0.00    +0.000 C 
ATOM      6  C   UNL     1      33.370 -22.523 -18.333  0.00  0.00    +0.005 C 
ATOM      7  C   UNL     1      35.355 -24.012 -15.556  0.00  0.00    +0.003 C 
ATOM      8  C   UNL     1      37.282 -22.406 -16.774  0.00  0.00    +0.000 C 
ATOM      9  C   UNL     1      36.652 -23.968 -15.044  0.00  0.00    +0.031 C 
ATOM     10  C   UNL     1      37.614 -23.166 -15.653  0.00  0.00    +0.003 C 
ENDROOT
BRANCH   9  13
ATOM     11  N   UNL     1      36.268 -25.892 -13.523  0.00  0.00    -0.343 N 
ATOM     12  N   UNL     1      38.026 -24.406 -13.123  0.00  0.00    -0.285 NA
ATOM     13  C   UNL     1      37.001 -24.760 -13.876  0.00  0.00    +0.117 C 
ATOM     14  H   UNL     1      36.522 -26.415 -12.728  0.00  0.00    +0.144 HD
ATOM     15  H   UNL     1      35.498 -26.170 -14.070  0.00  0.00    +0.144 HD
ATOM     16  H   UNL     1      38.264 -24.942 -12.331  0.00  0.00    +0.188 HD
ENDBRANCH   9  13
BRANCH   3  19
ATOM     17  O   UNL     1      32.820 -20.973 -20.544  0.00  0.00    -0.270 OA
ATOM     18  N   UNL     1      35.014 -20.145 -20.647  0.00  0.00    -0.280 N 
ATOM     19  C   UNL     1      33.983 -20.930 -20.110  0.00  0.00    +0.249 C 
ATOM     20  H   UNL     1      35.885 -20.216 -20.195  0.00  0.00    +0.155 HD
BRANCH  18  24
ATOM     21  C   UNL     1      34.875 -17.031 -22.624  0.00  0.00    +0.140 C 
ATOM     22  C   UNL     1      34.925 -17.898 -21.533  0.00  0.00    +0.052 C 
ATOM     23  C   UNL     1      34.866 -17.544 -23.921  0.00  0.00    +0.037 C 
ATOM     24  C   UNL     1      34.965 -19.265 -21.755  0.00  0.00    +0.054 C 
ATOM     25  C   UNL     1      34.906 -18.923 -24.127  0.00  0.00    +0.004 C 
ATOM     26  C   UNL     1      34.956 -19.789 -23.036  0.00  0.00    +0.015 C 
BRANCH  21  27
ATOM     27  O   UNL     1      34.836 -15.686 -22.424  0.00  0.00    -0.479 OA
BRANCH  27  28
ATOM     28  C   UNL     1      33.554 -15.071 -22.414  0.00  0.00    +0.166 C 
ATOM     29  C   UNL     1      33.195 -14.629 -23.825  0.00  0.00    +0.044 C 
ATOM     30  C   UNL     1      33.601 -13.760 -21.645  0.00  0.00    +0.044 C 
ATOM     31  C   UNL     1      33.956 -13.318 -24.021  0.00  0.00    +0.004 C 
ATOM     32  C   UNL     1      34.243 -12.776 -22.620  0.00  0.00    +0.004 C 
ENDBRANCH  27  28
ENDBRANCH  21  27
ENDBRANCH  18  24
ENDBRANCH   3  19
TORSDOF 5
ENDMDL
MODEL 2
REMARK VINA RESULT:     -11.0      5.860     12.671
REMARK  Name = 447734
REMARK  5 active torsions:
REMARK  status: ('A' for Active; 'I' for Inactive)
REMARK    1  A    between atoms: C_3  and  C_19
REMARK    2  A    between atoms: C_9  and  C_13
REMARK    3  A    between atoms: N_18  and  C_24
REMARK    4  A    between atoms: C_21  and  O_27
REMARK    5  A    between atoms: O_27  and  C_28
REMARK                            x       y       z     vdW  Elec       q    Type
REMARK                         _______ _______ _______ _____ _____    ______ ____
ROOT
ATOM      1  C   UNL     1      31.880  -9.172 -22.606  0.00  0.00    +0.000 C 
ATOM      2  C   UNL     1      31.651  -8.672 -21.302  0.00  0.00    +0.000 C 
ATOM      3  C   UNL     1      32.233 -11.394 -21.680  0.00  0.00    +0.054 C 
ATOM      4  C   UNL     1      32.169 -10.536 -22.778  0.00  0.00    +0.005 C 
ATOM      5  C   UNL     1      31.719  -9.549 -20.208  0.00  0.00    +0.000 C 
ATOM      6  C   UNL     1      32.008 -10.901 -20.397  0.00  0.00    +0.005 C 
ATOM      7  C   UNL     1      31.361  -7.308 -21.131  0.00  0.00    +0.003 C 
ATOM      8  C   UNL     1      31.811  -8.294 -23.700  0.00  0.00    +0.000 C 
ATOM      9  C   UNL     1      31.297  -6.450 -22.229  0.00  0.00    +0.031 C 
ATOM     10  C   UNL     1      31.521  -6.942 -23.512  0.00  0.00    +0.003 C 
ENDROOT
BRANCH   9  13
ATOM     11  N   UNL     1      31.789  -4.045 -22.601  0.00  0.00    -0.343 N 
ATOM     12  N   UNL     1      29.954  -4.685 -21.303  0.00  0.00    -0.285 NA
ATOM     13  C   UNL     1      30.995  -5.041 -22.034  0.00  0.00    +0.117 C 
ATOM     14  H   UNL     1      31.566  -3.097 -22.457  0.00  0.00    +0.144 HD
ATOM     15  H   UNL     1      32.571  -4.290 -23.147  0.00  0.00    +0.144 HD
ATOM     16  H   UNL     1      29.748  -3.732 -21.170  0.00  0.00    +0.188 HD
ENDBRANCH   9  13
BRANCH   3  19
ATOM     17  O   UNL     1      32.053 -13.637 -21.090  0.00  0.00    -0.270 OA
ATOM     18  N   UNL     1      33.348 -13.108 -22.975  0.00  0.00    -0.280 N 
ATOM     19  C   UNL     1      32.535 -12.803 -21.874  0.00  0.00    +0.249 C 
ATOM     20  H   UNL     1      33.655 -12.339 -23.506  0.00  0.00    +0.155 HD
BRANCH  18  24
ATOM     21  C   UNL     1      34.839 -16.484 -22.971  0.00  0.00    +0.140 C 
ATOM     22  C   UNL     1      34.408 -15.234 -22.529  0.00  0.00    +0.052 C 
ATOM     23  C   UNL     1      34.639 -16.862 -24.299  0.00  0.00    +0.037 C 
ATOM     24  C   UNL     1      33.784 -14.379 -23.423  0.00  0.00    +0.054 C 
ATOM     25  C   UNL     1      34.009 -15.988 -25.185  0.00  0.00    +0.004 C 
ATOM     26  C   UNL     1      33.579 -14.738 -24.744  0.00  0.00    +0.015 C 
BRANCH  21  27
ATOM     27  O   UNL     1      35.453 -17.337 -22.107  0.00  0.00    -0.479 OA
BRANCH  27  28
ATOM     28  C   UNL     1      35.912 -18.575 -22.636  0.00  0.00    +0.166 C 
ATOM     29  C   UNL     1      34.964 -19.687 -22.215  0.00  0.00    +0.044 C 
ATOM     30  C   UNL     1      37.225 -18.976 -21.981  0.00  0.00    +0.044 C 
ATOM     31  C   UNL     1      35.370 -20.013 -20.778  0.00  0.00    +0.004 C 
ATOM     32  C   UNL     1      36.810 -19.528 -20.619  0.00  0.00    +0.004 C 
ENDBRANCH  27  28
ENDBRANCH  21  27
ENDBRANCH  18  24
ENDBRANCH   3  19
TORSDOF 5
ENDMDL
MODEL 3
REMARK VINA RESULT:     -10.9      3.069     10.295
REMARK  Name = 447734
REMARK  5 active torsions:
REMARK  status: ('A' for Active; 'I' for Inactive)
REMARK    1  A    between atoms: C_3  and  C_19
REMARK    2  A    between atoms: C_9  and  C_13
REMARK    3  A    between atoms: N_18  and  C_24
REMARK    4  A    between atoms: C_21  and  O_27
REMARK    5  A    between atoms: O_27  and  C_28
REMARK                            x       y       z     vdW  Elec       q    Type
REMARK                         _______ _______ _______ _____ _____    ______ ____
ROOT
ATOM      1  C   UNL     1      34.815 -17.017 -22.512  0.00  0.00    +0.000 C 
ATOM      2  C   UNL     1      34.617 -17.578 -23.796  0.00  0.00    +0.000 C 
ATOM      3  C   UNL     1      35.319 -19.229 -21.635  0.00  0.00    +0.054 C 
ATOM      4  C   UNL     1      35.166 -17.856 -21.442  0.00  0.00    +0.005 C 
ATOM      5  C   UNL     1      34.774 -18.962 -23.973  0.00  0.00    +0.000 C 
ATOM      6  C   UNL     1      35.123 -19.781 -22.898  0.00  0.00    +0.005 C 
ATOM      7  C   UNL     1      34.266 -16.737 -24.866  0.00  0.00    +0.003 C 
ATOM      8  C   UNL     1      34.657 -15.632 -22.336  0.00  0.00    +0.000 C 
ATOM      9  C   UNL     1      34.114 -15.364 -24.673  0.00  0.00    +0.031 C 
ATOM     10  C   UNL     1      34.309 -14.813 -23.410  0.00  0.00    +0.003 C 
ENDROOT
BRANCH   9  13
ATOM     11  N   UNL     1      33.412 -13.170 -25.599  0.00  0.00    -0.343 N 
ATOM     12  N   UNL     1      33.732 -15.000 -27.017  0.00  0.00    -0.285 NA
ATOM     13  C   UNL     1      33.751 -14.508 -25.791  0.00  0.00    +0.117 C 
ATOM     14  H   UNL     1      33.170 -12.608 -26.371  0.00  0.00    +0.144 HD
ATOM     15  H   UNL     1      33.417 -12.786 -24.692  0.00  0.00    +0.144 HD
ATOM     16  H   UNL     1      33.487 -14.422 -27.776  0.00  0.00    +0.188 HD
ENDBRANCH   9  13
BRANCH   3  19
ATOM     17  O   UNL     1      36.858 -20.096 -20.122  0.00  0.00    -0.270 OA
ATOM     18  N   UNL     1      34.635 -20.827 -19.951  0.00  0.00    -0.280 N 
ATOM     19  C   UNL     1      35.681 -20.085 -20.517  0.00  0.00    +0.249 C 
ATOM     20  H   UNL     1      33.754 -20.716 -20.374  0.00  0.00    +0.155 HD
BRANCH  18  24
ATOM     21  C   UNL     1      33.559 -23.201 -17.337  0.00  0.00    +0.140 C 
ATOM     22  C   UNL     1      33.514 -22.327 -18.422  0.00  0.00    +0.052 C 
ATOM     23  C   UNL     1      34.772 -23.454 -16.696  0.00  0.00    +0.037 C 
ATOM     24  C   UNL     1      34.681 -21.717 -18.850  0.00  0.00    +0.054 C 
ATOM     25  C   UNL     1      35.939 -22.832 -17.139  0.00  0.00    +0.004 C 
ATOM     26  C   UNL     1      35.893 -21.957 -18.224  0.00  0.00    +0.015 C 
BRANCH  21  27
ATOM     27  O   UNL     1      32.421 -23.808 -16.904  0.00  0.00    -0.479 OA
BRANCH  27  28
ATOM     28  C   UNL     1      31.595 -23.072 -16.011  0.00  0.00    +0.166 C 
ATOM     29  C   UNL     1      32.015 -23.363 -14.578  0.00  0.00    +0.044 C 
ATOM     30  C   UNL     1      30.166 -23.590 -16.062  0.00  0.00    +0.044 C 
ATOM     31  C   UNL     1      31.369 -24.711 -14.256  0.00  0.00    +0.004 C 
ATOM     32  C   UNL     1      30.202 -24.870 -15.229  0.00  0.00    +0.004 C 
ENDBRANCH  27  28
ENDBRANCH  21  27
ENDBRANCH  18  24
ENDBRANCH   3  19
TORSDOF 5
ENDMDL
MODEL 4
REMARK VINA RESULT:     -10.8      5.851     10.263
REMARK  Name = 447734
REMARK  5 active torsions:
REMARK  status: ('A' for Active; 'I' for Inactive)
REMARK    1  A    between atoms: C_3  and  C_19
REMARK    2  A    between atoms: C_9  and  C_13
REMARK    3  A    between atoms: N_18  and  C_24
REMARK    4  A    between atoms: C_21  and  O_27
REMARK    5  A    between atoms: O_27  and  C_28
REMARK                            x       y       z     vdW  Elec       q    Type
REMARK                         _______ _______ _______ _____ _____    ______ ____
ROOT
ATOM      1  C   UNL     1      33.765 -14.389 -22.257  0.00  0.00    +0.000 C 
ATOM      2  C   UNL     1      33.536 -15.114 -21.063  0.00  0.00    +0.000 C 
ATOM      3  C   UNL     1      32.341 -12.599 -21.428  0.00  0.00    +0.054 C 
ATOM      4  C   UNL     1      33.159 -13.133 -22.424  0.00  0.00    +0.005 C 
ATOM      5  C   UNL     1      32.709 -14.562 -20.072  0.00  0.00    +0.000 C 
ATOM      6  C   UNL     1      32.116 -13.312 -20.254  0.00  0.00    +0.005 C 
ATOM      7  C   UNL     1      34.142 -16.370 -20.896  0.00  0.00    +0.003 C 
ATOM      8  C   UNL     1      34.592 -14.941 -23.248  0.00  0.00    +0.000 C 
ATOM      9  C   UNL     1      34.961 -16.904 -21.891  0.00  0.00    +0.031 C 
ATOM     10  C   UNL     1      35.186 -16.190 -23.065  0.00  0.00    +0.003 C 
ENDROOT
BRANCH   9  13
ATOM     11  N   UNL     1      35.095 -19.110 -20.760  0.00  0.00    -0.343 N 
ATOM     12  N   UNL     1      36.629 -18.548 -22.430  0.00  0.00    -0.285 NA
ATOM     13  C   UNL     1      35.581 -18.206 -21.703  0.00  0.00    +0.117 C 
ATOM     14  H   UNL     1      35.529 -19.987 -20.649  0.00  0.00    +0.144 HD
ATOM     15  H   UNL     1      34.317 -18.872 -20.205  0.00  0.00    +0.144 HD
ATOM     16  H   UNL     1      37.050 -19.429 -22.305  0.00  0.00    +0.188 HD
ENDBRANCH   9  13
BRANCH   3  19
ATOM     17  O   UNL     1      30.482 -11.221 -21.674  0.00  0.00    -0.270 OA
ATOM     18  N   UNL     1      32.598 -10.207 -21.697  0.00  0.00    -0.280 N 
ATOM     19  C   UNL     1      31.721 -11.297 -21.617  0.00  0.00    +0.249 C 
ATOM     20  H   UNL     1      33.556 -10.424 -21.637  0.00  0.00    +0.155 HD
BRANCH  18  24
ATOM     21  C   UNL     1      32.199  -6.874 -23.231  0.00  0.00    +0.140 C 
ATOM     22  C   UNL     1      32.505  -8.226 -23.078  0.00  0.00    +0.052 C 
ATOM     23  C   UNL     1      31.680  -6.150 -22.158  0.00  0.00    +0.037 C 
ATOM     24  C   UNL     1      32.287  -8.834 -21.853  0.00  0.00    +0.054 C 
ATOM     25  C   UNL     1      31.467  -6.779 -20.931  0.00  0.00    +0.004 C 
ATOM     26  C   UNL     1      31.773  -8.130 -20.777  0.00  0.00    +0.015 C 
BRANCH  21  27
ATOM     27  O   UNL     1      32.407  -6.260 -24.428  0.00  0.00    -0.479 OA
BRANCH  27  28
ATOM     28  C   UNL     1      33.339  -5.186 -24.451  0.00  0.00    +0.166 C 
ATOM     29  C   UNL     1      32.646  -3.926 -24.947  0.00  0.00    +0.044 C 
ATOM     30  C   UNL     1      34.404  -5.431 -25.508  0.00  0.00    +0.044 C 
ATOM     31  C   UNL     1      32.607  -4.084 -26.467  0.00  0.00    +0.004 C 
ATOM     32  C   UNL     1      33.716  -5.074 -26.823  0.00  0.00    +0.004 C 
ENDBRANCH  27  28
ENDBRANCH  21  27
ENDBRANCH  18  24
ENDBRANCH   3  19
TORSDOF 5
ENDMDL
MODEL 5
REMARK VINA RESULT:     -10.8      3.369     10.428
REMARK  Name = 447734
REMARK  5 active torsions:
REMARK  status: ('A' for Active; 'I' for Inactive)
REMARK    1  A    between atoms: C_3  and  C_19
REMARK    2  A    between atoms: C_9  and  C_13
REMARK    3  A    between atoms: N_18  and  C_24
REMARK    4  A    between atoms: C_21  and  O_27
REMARK    5  A    between atoms: O_27  and  C_28
REMARK                            x       y       z     vdW  Elec       q    Type
REMARK                         _______ _______ _______ _____ _____    ______ ____
ROOT
ATOM      1  C   UNL     1      35.184 -20.679 -20.250  0.00  0.00    +0.000 C 
ATOM      2  C   UNL     1      33.974 -20.151 -20.760  0.00  0.00    +0.000 C 
ATOM      3  C   UNL     1      33.911 -22.144 -18.783  0.00  0.00    +0.054 C 
ATOM      4  C   UNL     1      35.135 -21.675 -19.261  0.00  0.00    +0.005 C 
ATOM      5  C   UNL     1      32.751 -20.635 -20.268  0.00  0.00    +0.000 C 
ATOM      6  C   UNL     1      32.722 -21.625 -19.286  0.00  0.00    +0.005 C 
ATOM      7  C   UNL     1      34.023 -19.154 -21.750  0.00  0.00    +0.003 C 
ATOM      8  C   UNL     1      36.407 -20.195 -20.743  0.00  0.00    +0.000 C 
ATOM      9  C   UNL     1      35.247 -18.686 -22.229  0.00  0.00    +0.031 C 
ATOM     10  C   UNL     1      36.436 -19.205 -21.726  0.00  0.00    +0.003 C 
ENDROOT
BRANCH   9  13
ATOM     11  N   UNL     1      34.709 -17.859 -24.507  0.00  0.00    -0.343 N 
ATOM     12  N   UNL     1      35.865 -16.496 -23.002  0.00  0.00    -0.285 NA
ATOM     13  C   UNL     1      35.280 -17.654 -23.253  0.00  0.00    +0.117 C 
ATOM     14  H   UNL     1      34.743 -17.146 -25.186  0.00  0.00    +0.144 HD
ATOM     15  H   UNL     1      34.271 -18.716 -24.715  0.00  0.00    +0.144 HD
ATOM     16  H   UNL     1      35.889 -15.796 -23.693  0.00  0.00    +0.188 HD
ENDBRANCH   9  13
BRANCH   3  19
ATOM     17  O   UNL     1      33.701 -24.357 -18.097  0.00  0.00    -0.270 OA
ATOM     18  N   UNL     1      34.077 -22.737 -16.442  0.00  0.00    -0.280 N 
ATOM     19  C   UNL     1      33.878 -23.175 -17.758  0.00  0.00    +0.249 C 
ATOM     20  H   UNL     1      34.203 -21.767 -16.329  0.00  0.00    +0.155 HD
BRANCH  18  24
ATOM     21  C   UNL     1      35.385 -24.507 -13.479  0.00  0.00    +0.140 C 
ATOM     22  C   UNL     1      35.342 -23.748 -14.648  0.00  0.00    +0.052 C 
ATOM     23  C   UNL     1      34.205 -25.012 -12.933  0.00  0.00    +0.037 C 
ATOM     24  C   UNL     1      34.120 -23.506 -15.254  0.00  0.00    +0.054 C 
ATOM     25  C   UNL     1      32.983 -24.760 -13.556  0.00  0.00    +0.004 C 
ATOM     26  C   UNL     1      32.941 -24.001 -14.724  0.00  0.00    +0.015 C 
BRANCH  21  27
ATOM     27  O   UNL     1      36.577 -24.754 -12.871  0.00  0.00    -0.479 OA
BRANCH  27  28
ATOM     28  C   UNL     1      36.948 -26.117 -12.705  0.00  0.00    +0.166 C 
ATOM     29  C   UNL     1      38.313 -26.192 -12.039  0.00  0.00    +0.044 C 
ATOM     30  C   UNL     1      37.189 -26.770 -14.057  0.00  0.00    +0.044 C 
ATOM     31  C   UNL     1      39.306 -25.935 -13.172  0.00  0.00    +0.004 C 
ATOM     32  C   UNL     1      38.573 -26.276 -14.469  0.00  0.00    +0.004 C 
ENDBRANCH  27  28
ENDBRANCH  21  27
ENDBRANCH  18  24
ENDBRANCH   3  19
TORSDOF 5
ENDMDL
MODEL 6
REMARK VINA RESULT:     -10.5      6.047     10.143
REMARK  Name = 447734
REMARK  5 active torsions:
REMARK  status: ('A' for Active; 'I' for Inactive)
REMARK    1  A    between atoms: C_3  and  C_19
REMARK    2  A    between atoms: C_9  and  C_13
REMARK    3  A    between atoms: N_18  and  C_24
REMARK    4  A    between atoms: C_21  and  O_27
REMARK    5  A    between atoms: O_27  and  C_28
REMARK                            x       y       z     vdW  Elec       q    Type
REMARK                         _______ _______ _______ _____ _____    ______ ____
ROOT
ATOM      1  C   UNL     1      33.866 -15.042 -21.574  0.00  0.00    +0.000 C 
ATOM      2  C   UNL     1      34.210 -15.331 -22.916  0.00  0.00    +0.000 C 
ATOM      3  C   UNL     1      32.870 -12.943 -22.294  0.00  0.00    +0.054 C 
ATOM      4  C   UNL     1      33.196 -13.843 -21.280  0.00  0.00    +0.005 C 
ATOM      5  C   UNL     1      33.874 -14.413 -23.925  0.00  0.00    +0.000 C 
ATOM      6  C   UNL     1      33.208 -13.227 -23.614  0.00  0.00    +0.005 C 
ATOM      7  C   UNL     1      34.880 -16.530 -23.211  0.00  0.00    +0.003 C 
ATOM      8  C   UNL     1      34.203 -15.960 -20.566  0.00  0.00    +0.000 C 
ATOM      9  C   UNL     1      35.206 -17.431 -22.197  0.00  0.00    +0.031 C 
ATOM     10  C   UNL     1      34.868 -17.147 -20.877  0.00  0.00    +0.003 C 
ENDROOT
BRANCH   9  13
ATOM     11  N   UNL     1      35.240 -19.731 -23.131  0.00  0.00    -0.343 N 
ATOM     12  N   UNL     1      37.181 -18.800 -22.223  0.00  0.00    -0.285 NA
ATOM     13  C   UNL     1      35.900 -18.668 -22.518  0.00  0.00    +0.117 C 
ATOM     14  H   UNL     1      35.729 -20.560 -23.340  0.00  0.00    +0.144 HD
ATOM     15  H   UNL     1      34.284 -19.654 -23.356  0.00  0.00    +0.144 HD
ATOM     16  H   UNL     1      37.653 -19.636 -22.441  0.00  0.00    +0.188 HD
ENDBRANCH   9  13
BRANCH   3  19
ATOM     17  O   UNL     1      31.077 -11.762 -21.398  0.00  0.00    -0.270 OA
ATOM     18  N   UNL     1      32.840 -10.523 -22.327  0.00  0.00    -0.280 N 
ATOM     19  C   UNL     1      32.176 -11.705 -21.972  0.00  0.00    +0.249 C 
ATOM     20  H   UNL     1      33.706 -10.637 -22.779  0.00  0.00    +0.155 HD
BRANCH  18  24
ATOM     21  C   UNL     1      31.987  -6.994 -22.993  0.00  0.00    +0.140 C 
ATOM     22  C   UNL     1      32.393  -8.312 -23.197  0.00  0.00    +0.052 C 
ATOM     23  C   UNL     1      31.618  -6.567 -21.717  0.00  0.00    +0.037 C 
ATOM     24  C   UNL     1      32.426  -9.184 -22.121  0.00  0.00    +0.054 C 
ATOM     25  C   UNL     1      31.657  -7.458 -20.645  0.00  0.00    +0.004 C 
ATOM     26  C   UNL     1      32.064  -8.776 -20.848  0.00  0.00    +0.015 C 
BRANCH  21  27
ATOM     27  O   UNL     1      31.949  -6.124 -24.039  0.00  0.00    -0.479 OA
BRANCH  27  28
ATOM     28  C   UNL     1      32.935  -5.099 -24.064  0.00  0.00    +0.166 C 
ATOM     29  C   UNL     1      32.349  -3.849 -24.701  0.00  0.00    +0.044 C 
ATOM     30  C   UNL     1      34.063  -5.472 -25.013  0.00  0.00    +0.044 C 
ATOM     31  C   UNL     1      32.418  -4.118 -26.205  0.00  0.00    +0.004 C 
ATOM     32  C   UNL     1      33.496  -5.183 -26.401  0.00  0.00    +0.004 C 
ENDBRANCH  27  28
ENDBRANCH  21  27
ENDBRANCH  18  24
ENDBRANCH   3  19
TORSDOF 5
ENDMDL
MODEL 7
REMARK VINA RESULT:     -10.4      5.936     13.092
REMARK  Name = 447734
REMARK  5 active torsions:
REMARK  status: ('A' for Active; 'I' for Inactive)
REMARK    1  A    between atoms: C_3  and  C_19
REMARK    2  A    between atoms: C_9  and  C_13
REMARK    3  A    between atoms: N_18  and  C_24
REMARK    4  A    between atoms: C_21  and  O_27
REMARK    5  A    between atoms: O_27  and  C_28
REMARK                            x       y       z     vdW  Elec       q    Type
REMARK                         _______ _______ _______ _____ _____    ______ ____
ROOT
ATOM      1  C   UNL     1      31.996  -8.909 -22.874  0.00  0.00    +0.000 C 
ATOM      2  C   UNL     1      33.138  -8.206 -23.325  0.00  0.00    +0.000 C 
ATOM      3  C   UNL     1      33.219 -11.002 -23.075  0.00  0.00    +0.054 C 
ATOM      4  C   UNL     1      32.053 -10.307 -22.755  0.00  0.00    +0.005 C 
ATOM      5  C   UNL     1      34.304  -8.921 -23.643  0.00  0.00    +0.000 C 
ATOM      6  C   UNL     1      34.343 -10.310 -23.518  0.00  0.00    +0.005 C 
ATOM      7  C   UNL     1      33.081  -6.807 -23.444  0.00  0.00    +0.003 C 
ATOM      8  C   UNL     1      30.830  -8.193 -22.556  0.00  0.00    +0.000 C 
ATOM      9  C   UNL     1      31.915  -6.112 -23.123  0.00  0.00    +0.031 C 
ATOM     10  C   UNL     1      30.791  -6.804 -22.680  0.00  0.00    +0.003 C 
ENDROOT
BRANCH   9  13
ATOM     11  N   UNL     1      32.295  -4.027 -24.417  0.00  0.00    -0.343 N 
ATOM     12  N   UNL     1      31.431  -3.927 -22.248  0.00  0.00    -0.285 NA
ATOM     13  C   UNL     1      31.872  -4.664 -23.252  0.00  0.00    +0.117 C 
ATOM     14  H   UNL     1      32.257  -3.045 -24.483  0.00  0.00    +0.144 HD
ATOM     15  H   UNL     1      32.630  -4.559 -25.175  0.00  0.00    +0.144 HD
ATOM     16  H   UNL     1      31.401  -2.946 -22.333  0.00  0.00    +0.188 HD
ENDBRANCH   9  13
BRANCH   3  19
ATOM     17  O   UNL     1      32.710 -12.986 -21.972  0.00  0.00    -0.270 OA
ATOM     18  N   UNL     1      33.919 -13.136 -23.978  0.00  0.00    -0.280 N 
ATOM     19  C   UNL     1      33.261 -12.450 -22.948  0.00  0.00    +0.249 C 
ATOM     20  H   UNL     1      34.308 -12.573 -24.686  0.00  0.00    +0.155 HD
BRANCH  18  24
ATOM     21  C   UNL     1      34.924 -16.621 -23.298  0.00  0.00    +0.140 C 
ATOM     22  C   UNL     1      34.748 -15.247 -23.143  0.00  0.00    +0.052 C 
ATOM     23  C   UNL     1      34.444 -17.261 -24.441  0.00  0.00    +0.037 C 
ATOM     24  C   UNL     1      34.096 -14.532 -24.134  0.00  0.00    +0.054 C 
ATOM     25  C   UNL     1      33.791 -16.527 -25.430  0.00  0.00    +0.004 C 
ATOM     26  C   UNL     1      33.615 -15.152 -25.275  0.00  0.00    +0.015 C 
BRANCH  21  27
ATOM     27  O   UNL     1      35.562 -17.339 -22.334  0.00  0.00    -0.479 OA
BRANCH  27  28
ATOM     28  C   UNL     1      36.052 -18.622 -22.701  0.00  0.00    +0.166 C 
ATOM     29  C   UNL     1      35.035 -19.683 -22.308  0.00  0.00    +0.044 C 
ATOM     30  C   UNL     1      37.268 -18.984 -21.862  0.00  0.00    +0.044 C 
ATOM     31  C   UNL     1      35.260 -19.893 -20.810  0.00  0.00    +0.004 C 
ATOM     32  C   UNL     1      36.682 -19.415 -20.519  0.00  0.00    +0.004 C 
ENDBRANCH  27  28
ENDBRANCH  21  27
ENDBRANCH  18  24
ENDBRANCH   3  19
TORSDOF 5
ENDMDL
MODEL 8
REMARK VINA RESULT:     -10.3      1.634      2.462
REMARK  Name = 447734
REMARK  5 active torsions:
REMARK  status: ('A' for Active; 'I' for Inactive)
REMARK    1  A    between atoms: C_3  and  C_19
REMARK    2  A    between atoms: C_9  and  C_13
REMARK    3  A    between atoms: N_18  and  C_24
REMARK    4  A    between atoms: C_21  and  O_27
REMARK    5  A    between atoms: O_27  and  C_28
REMARK                            x       y       z     vdW  Elec       q    Type
REMARK                         _______ _______ _______ _____ _____    ______ ____
ROOT
ATOM      1  C   UNL     1      33.942 -23.002 -17.111  0.00  0.00    +0.000 C 
ATOM      2  C   UNL     1      34.963 -23.193 -16.150  0.00  0.00    +0.000 C 
ATOM      3  C   UNL     1      35.539 -21.889 -18.570  0.00  0.00    +0.054 C 
ATOM      4  C   UNL     1      34.246 -22.348 -18.316  0.00  0.00    +0.005 C 
ATOM      5  C   UNL     1      36.259 -22.725 -16.422  0.00  0.00    +0.000 C 
ATOM      6  C   UNL     1      36.543 -22.077 -17.624  0.00  0.00    +0.005 C 
ATOM      7  C   UNL     1      34.658 -23.848 -14.945  0.00  0.00    +0.003 C 
ATOM      8  C   UNL     1      32.646 -23.471 -16.839  0.00  0.00    +0.000 C 
ATOM      9  C   UNL     1      33.366 -24.308 -14.691  0.00  0.00    +0.031 C 
ATOM     10  C   UNL     1      32.362 -24.120 -15.637  0.00  0.00    +0.003 C 
ENDROOT
BRANCH   9  13
ATOM     11  N   UNL     1      31.860 -25.654 -13.247  0.00  0.00    -0.343 N 
ATOM     12  N   UNL     1      33.947 -24.964 -12.454  0.00  0.00    -0.285 NA
ATOM     13  C   UNL     1      33.067 -24.984 -13.439  0.00  0.00    +0.117 C 
ATOM     14  H   UNL     1      31.679 -26.105 -12.390  0.00  0.00    +0.144 HD
ATOM     15  H   UNL     1      31.190 -25.677 -13.968  0.00  0.00    +0.144 HD
ATOM     16  H   UNL     1      33.747 -25.421 -11.605  0.00  0.00    +0.188 HD
ENDBRANCH   9  13
BRANCH   3  19
ATOM     17  O   UNL     1      36.815 -21.586 -20.491  0.00  0.00    -0.270 OA
ATOM     18  N   UNL     1      34.958 -20.184 -20.186  0.00  0.00    -0.280 N 
ATOM     19  C   UNL     1      35.838 -21.213 -19.822  0.00  0.00    +0.249 C 
ATOM     20  H   UNL     1      34.228 -20.000 -19.552  0.00  0.00    +0.155 HD
BRANCH  18  24
ATOM     21  C   UNL     1      34.875 -17.204 -22.363  0.00  0.00    +0.140 C 
ATOM     22  C   UNL     1      34.853 -18.001 -21.219  0.00  0.00    +0.052 C 
ATOM     23  C   UNL     1      35.027 -17.791 -23.619  0.00  0.00    +0.037 C 
ATOM     24  C   UNL     1      34.982 -19.374 -21.348  0.00  0.00    +0.054 C 
ATOM     25  C   UNL     1      35.155 -19.176 -23.731  0.00  0.00    +0.004 C 
ATOM     26  C   UNL     1      35.133 -19.973 -22.588  0.00  0.00    +0.015 C 
BRANCH  21  27
ATOM     27  O   UNL     1      34.750 -15.854 -22.254  0.00  0.00    -0.479 OA
BRANCH  27  28
ATOM     28  C   UNL     1      33.543 -15.275 -22.738  0.00  0.00    +0.166 C 
ATOM     29  C   UNL     1      33.875 -14.159 -23.717  0.00  0.00    +0.044 C 
ATOM     30  C   UNL     1      32.820 -14.545 -21.617  0.00  0.00    +0.044 C 
ATOM     31  C   UNL     1      34.233 -12.966 -22.830  0.00  0.00    +0.004 C 
ATOM     32  C   UNL     1      33.582 -13.230 -21.473  0.00  0.00    +0.004 C 
ENDBRANCH  27  28
ENDBRANCH  21  27
ENDBRANCH  18  24
ENDBRANCH   3  19
TORSDOF 5
ENDMDL
MODEL 9
REMARK VINA RESULT:     -10.3      8.691     15.320
REMARK  Name = 447734
REMARK  5 active torsions:
REMARK  status: ('A' for Active; 'I' for Inactive)
REMARK    1  A    between atoms: C_3  and  C_19
REMARK    2  A    between atoms: C_9  and  C_13
REMARK    3  A    between atoms: N_18  and  C_24
REMARK    4  A    between atoms: C_21  and  O_27
REMARK    5  A    between atoms: O_27  and  C_28
REMARK                            x       y       z     vdW  Elec       q    Type
REMARK                         _______ _______ _______ _____ _____    ______ ____
ROOT
ATOM      1  C   UNL     1      33.014  -6.064 -23.984  0.00  0.00    +0.000 C 
ATOM      2  C   UNL     1      32.051  -5.093 -23.621  0.00  0.00    +0.000 C 
ATOM      3  C   UNL     1      32.301  -7.451 -22.116  0.00  0.00    +0.054 C 
ATOM      4  C   UNL     1      33.126  -7.238 -23.220  0.00  0.00    +0.005 C 
ATOM      5  C   UNL     1      31.229  -5.323 -22.506  0.00  0.00    +0.000 C 
ATOM      6  C   UNL     1      31.354  -6.495 -21.760  0.00  0.00    +0.005 C 
ATOM      7  C   UNL     1      31.939  -3.919 -24.385  0.00  0.00    +0.003 C 
ATOM      8  C   UNL     1      33.836  -5.833 -25.099  0.00  0.00    +0.000 C 
ATOM      9  C   UNL     1      32.763  -3.706 -25.490  0.00  0.00    +0.031 C 
ATOM     10  C   UNL     1      33.710  -4.662 -25.846  0.00  0.00    +0.003 C 
ENDROOT
BRANCH   9  13
ATOM     11  N   UNL     1      31.391  -2.034 -26.708  0.00  0.00    -0.343 N 
ATOM     12  N   UNL     1      33.710  -1.786 -26.579  0.00  0.00    -0.285 NA
ATOM     13  C   UNL     1      32.634  -2.486 -26.270  0.00  0.00    +0.117 C 
ATOM     14  H   UNL     1      31.326  -1.204 -27.235  0.00  0.00    +0.144 HD
ATOM     15  H   UNL     1      30.577  -2.544 -26.490  0.00  0.00    +0.144 HD
ATOM     16  H   UNL     1      33.625  -0.959 -27.107  0.00  0.00    +0.188 HD
ENDBRANCH   9  13
BRANCH   3  19
ATOM     17  O   UNL     1      32.799  -8.593 -20.152  0.00  0.00    -0.270 OA
ATOM     18  N   UNL     1      32.097  -9.860 -21.999  0.00  0.00    -0.280 N 
ATOM     19  C   UNL     1      32.431  -8.671 -21.336  0.00  0.00    +0.249 C 
ATOM     20  H   UNL     1      31.822  -9.762 -22.939  0.00  0.00    +0.155 HD
BRANCH  18  24
ATOM     21  C   UNL     1      32.568 -13.515 -21.798  0.00  0.00    +0.140 C 
ATOM     22  C   UNL     1      32.564 -12.212 -22.296  0.00  0.00    +0.052 C 
ATOM     23  C   UNL     1      32.111 -13.768 -20.505  0.00  0.00    +0.037 C 
ATOM     24  C   UNL     1      32.103 -11.183 -21.493  0.00  0.00    +0.054 C 
ATOM     25  C   UNL     1      31.649 -12.720 -19.710  0.00  0.00    +0.004 C 
ATOM     26  C   UNL     1      31.645 -11.417 -20.207  0.00  0.00    +0.015 C 
BRANCH  21  27
ATOM     27  O   UNL     1      33.018 -14.538 -22.573  0.00  0.00    -0.479 OA
BRANCH  27  28
ATOM     28  C   UNL     1      34.141 -14.275 -23.405  0.00  0.00    +0.166 C 
ATOM     29  C   UNL     1      33.676 -14.107 -24.844  0.00  0.00    +0.044 C 
ATOM     30  C   UNL     1      35.045 -15.495 -23.476  0.00  0.00    +0.044 C 
ATOM     31  C   UNL     1      33.483 -15.535 -25.353  0.00  0.00    +0.004 C 
ATOM     32  C   UNL     1      34.337 -16.430 -24.455  0.00  0.00    +0.004 C 
ENDBRANCH  27  28
ENDBRANCH  21  27
ENDBRANCH  18  24
ENDBRANCH   3  19
TORSDOF 5
ENDMDL
