MODEL 1
REMARK VINA RESULT:     -11.5      0.000      0.000
REMARK  Name = 11314340
REMARK  7 active torsions:
REMARK  status: ('A' for Active; 'I' for Inactive)
REMARK    1  A    between atoms: C_2  and  C_10
REMARK    2  A    between atoms: C_3  and  O_18
REMARK    3  A    between atoms: O_18  and  C_19
REMARK    4  A    between atoms: C_19  and  C_20
REMARK    5  A    between atoms: C_20  and  N_21
REMARK    6  A    between atoms: C_20  and  C_25
REMARK    7  A    between atoms: C_25  and  C_26
REMARK                            x       y       z     vdW  Elec       q    Type
REMARK                         _______ _______ _______ _____ _____    ______ ____
ROOT
ATOM      1  N   UNL     1      33.702 -16.059 -25.757  0.00  0.00    -0.239 NA
ATOM      2  C   UNL     1      33.851 -14.379 -24.033  0.00  0.00    +0.022 C 
ATOM      3  C   UNL     1      34.915 -16.504 -23.714  0.00  0.00    +0.158 C 
ATOM      4  C   UNL     1      34.608 -15.231 -23.245  0.00  0.00    +0.040 C 
ATOM      5  C   UNL     1      33.423 -14.829 -25.268  0.00  0.00    +0.099 C 
ATOM      6  C   UNL     1      34.442 -16.866 -24.964  0.00  0.00    +0.136 C 
ENDROOT
BRANCH   2  10
ATOM      7  N   UNL     1      31.673  -9.771 -21.265  0.00  0.00    -0.280 N 
ATOM      8  N   UNL     1      32.515  -9.320 -22.216  0.00  0.00    -0.173 NA
ATOM      9  C   UNL     1      32.385 -11.589 -22.186  0.00  0.00    +0.032 A 
ATOM     10  C   UNL     1      33.513 -13.045 -23.572  0.00  0.00    +0.002 C 
ATOM     11  C   UNL     1      32.979 -10.433 -22.813  0.00  0.00    +0.102 A 
ATOM     12  C   UNL     1      32.599 -12.923 -22.507  0.00  0.00    +0.003 C 
ATOM     13  C   UNL     1      31.557 -11.129 -21.202  0.00  0.00    +0.053 A 
ATOM     14  C   UNL     1      34.130 -11.931 -24.226  0.00  0.00    +0.002 C 
ATOM     15  C   UNL     1      33.889 -10.584 -23.875  0.00  0.00    +0.021 C 
ATOM     16  C   UNL     1      30.681 -11.793 -20.221  0.00  0.00    +0.051 C 
ATOM     17  H   UNL     1      31.181  -9.167 -20.662  0.00  0.00    +0.189 HD
ENDBRANCH   2  10
BRANCH   3  18
ATOM     18  O   UNL     1      35.655 -17.363 -22.969  0.00  0.00    -0.476 OA
BRANCH  18  19
ATOM     19  C   UNL     1      35.258 -18.735 -22.965  0.00  0.00    +0.184 C 
BRANCH  19  20
ATOM     20  C   UNL     1      35.419 -19.330 -21.561  0.00  0.00    -0.017 C 
BRANCH  20  21
ATOM     21  N   UNL     1      35.685 -18.236 -20.623  0.00  0.00    +0.384 N 
ATOM     22  H   UNL     1      34.834 -18.015 -20.106  0.00  0.00    -0.089 HD
ATOM     23  H   UNL     1      35.993 -17.412 -21.141  0.00  0.00    -0.089 HD
ATOM     24  H   UNL     1      36.417 -18.519 -19.969  0.00  0.00    -0.089 HD
ENDBRANCH  20  21
BRANCH  20  25
ATOM     25  C   UNL     1      34.166 -20.088 -21.075  0.00  0.00    +0.008 C 
BRANCH  25  26
ATOM     26  C   UNL     1      34.413 -21.051 -19.939  0.00  0.00    -0.024 C 
ATOM     27  C   UNL     1      35.717 -21.326 -19.554  0.00  0.00    -0.004 C 
ATOM     28  C   UNL     1      33.334 -21.641 -19.300  0.00  0.00    -0.004 C 
ATOM     29  C   UNL     1      35.946 -22.215 -18.504  0.00  0.00    -0.000 C 
ATOM     30  C   UNL     1      33.565 -22.531 -18.250  0.00  0.00    -0.000 C 
ATOM     31  C   UNL     1      34.870 -22.818 -17.852  0.00  0.00    -0.000 C 
ENDBRANCH  25  26
ENDBRANCH  20  25
ENDBRANCH  19  20
ENDBRANCH  18  19
ENDBRANCH   3  18
TORSDOF 7
ENDMDL
MODEL 2
REMARK VINA RESULT:     -11.4      1.361      2.260
REMARK  Name = 11314340
REMARK  7 active torsions:
REMARK  status: ('A' for Active; 'I' for Inactive)
REMARK    1  A    between atoms: C_2  and  C_10
REMARK    2  A    between atoms: C_3  and  O_18
REMARK    3  A    between atoms: O_18  and  C_19
REMARK    4  A    between atoms: C_19  and  C_20
REMARK    5  A    between atoms: C_20  and  N_21
REMARK    6  A    between atoms: C_20  and  C_25
REMARK    7  A    between atoms: C_25  and  C_26
REMARK                            x       y       z     vdW  Elec       q    Type
REMARK                         _______ _______ _______ _____ _____    ______ ____
ROOT
ATOM      1  N   UNL     1      33.380 -14.893 -25.637  0.00  0.00    -0.239 NA
ATOM      2  C   UNL     1      33.281 -14.521 -23.257  0.00  0.00    +0.022 C 
ATOM      3  C   UNL     1      34.577 -16.345 -24.119  0.00  0.00    +0.158 C 
ATOM      4  C   UNL     1      34.110 -15.610 -23.035  0.00  0.00    +0.040 C 
ATOM      5  C   UNL     1      32.946 -14.203 -24.559  0.00  0.00    +0.099 C 
ATOM      6  C   UNL     1      34.186 -15.950 -25.388  0.00  0.00    +0.136 C 
ENDROOT
BRANCH   2  10
ATOM      7  N   UNL     1      31.297 -10.317 -19.788  0.00  0.00    -0.280 N 
ATOM      8  N   UNL     1      31.352 -11.454 -19.067  0.00  0.00    -0.173 NA
ATOM      9  C   UNL     1      32.045 -11.759 -21.210  0.00  0.00    +0.032 A 
ATOM     10  C   UNL     1      32.776 -13.734 -22.146  0.00  0.00    +0.002 C 
ATOM     11  C   UNL     1      31.817 -12.379 -19.927  0.00  0.00    +0.102 A 
ATOM     12  C   UNL     1      32.522 -12.366 -22.364  0.00  0.00    +0.003 C 
ATOM     13  C   UNL     1      31.703 -10.442 -21.085  0.00  0.00    +0.053 A 
ATOM     14  C   UNL     1      32.566 -14.395 -20.895  0.00  0.00    +0.002 C 
ATOM     15  C   UNL     1      32.079 -13.748 -19.737  0.00  0.00    +0.021 C 
ATOM     16  C   UNL     1      31.706  -9.301 -22.016  0.00  0.00    +0.051 C 
ATOM     17  H   UNL     1      30.988  -9.462 -19.409  0.00  0.00    +0.189 HD
ENDBRANCH   2  10
BRANCH   3  18
ATOM     18  O   UNL     1      35.391 -17.415 -23.938  0.00  0.00    -0.476 OA
BRANCH  18  19
ATOM     19  C   UNL     1      34.768 -18.679 -23.706  0.00  0.00    +0.184 C 
BRANCH  19  20
ATOM     20  C   UNL     1      35.423 -19.383 -22.512  0.00  0.00    -0.017 C 
BRANCH  20  21
ATOM     21  N   UNL     1      36.773 -18.840 -22.339  0.00  0.00    +0.384 N 
ATOM     22  H   UNL     1      37.460 -19.565 -22.543  0.00  0.00    -0.089 HD
ATOM     23  H   UNL     1      36.891 -18.521 -21.376  0.00  0.00    -0.089 HD
ATOM     24  H   UNL     1      36.908 -18.054 -22.976  0.00  0.00    -0.089 HD
ENDBRANCH  20  21
BRANCH  20  25
ATOM     25  C   UNL     1      34.650 -19.184 -21.190  0.00  0.00    +0.008 C 
BRANCH  25  26
ATOM     26  C   UNL     1      34.584 -20.407 -20.309  0.00  0.00    -0.024 C 
ATOM     27  C   UNL     1      33.348 -20.886 -19.902  0.00  0.00    -0.004 C 
ATOM     28  C   UNL     1      35.760 -21.031 -19.923  0.00  0.00    -0.004 C 
ATOM     29  C   UNL     1      33.287 -22.016 -19.088  0.00  0.00    -0.000 C 
ATOM     30  C   UNL     1      35.698 -22.162 -19.108  0.00  0.00    -0.000 C 
ATOM     31  C   UNL     1      34.462 -22.655 -18.690  0.00  0.00    -0.000 C 
ENDBRANCH  25  26
ENDBRANCH  20  25
ENDBRANCH  19  20
ENDBRANCH  18  19
ENDBRANCH   3  18
TORSDOF 7
ENDMDL
MODEL 3
REMARK VINA RESULT:     -11.0      2.926      5.372
REMARK  Name = 11314340
REMARK  7 active torsions:
REMARK  status: ('A' for Active; 'I' for Inactive)
REMARK    1  A    between atoms: C_2  and  C_10
REMARK    2  A    between atoms: C_3  and  O_18
REMARK    3  A    between atoms: O_18  and  C_19
REMARK    4  A    between atoms: C_19  and  C_20
REMARK    5  A    between atoms: C_20  and  N_21
REMARK    6  A    between atoms: C_20  and  C_25
REMARK    7  A    between atoms: C_25  and  C_26
REMARK                            x       y       z     vdW  Elec       q    Type
REMARK                         _______ _______ _______ _____ _____    ______ ____
ROOT
ATOM      1  N   UNL     1      37.421 -19.605 -20.530  0.00  0.00    -0.239 NA
ATOM      2  C   UNL     1      35.507 -18.459 -21.445  0.00  0.00    +0.022 C 
ATOM      3  C   UNL     1      35.199 -20.517 -20.254  0.00  0.00    +0.158 C 
ATOM      4  C   UNL     1      34.663 -19.445 -20.958  0.00  0.00    +0.040 C 
ATOM      5  C   UNL     1      36.864 -18.578 -21.210  0.00  0.00    +0.099 C 
ATOM      6  C   UNL     1      36.572 -20.551 -20.069  0.00  0.00    +0.136 C 
ENDROOT
BRANCH   2  10
ATOM      7  N   UNL     1      33.010 -13.490 -23.092  0.00  0.00    -0.280 N 
ATOM      8  N   UNL     1      33.465 -14.109 -24.199  0.00  0.00    -0.173 NA
ATOM      9  C   UNL     1      33.898 -15.295 -22.310  0.00  0.00    +0.032 A 
ATOM     10  C   UNL     1      34.978 -17.328 -22.185  0.00  0.00    +0.002 C 
ATOM     11  C   UNL     1      34.028 -15.244 -23.747  0.00  0.00    +0.102 A 
ATOM     12  C   UNL     1      34.345 -16.299 -21.461  0.00  0.00    +0.003 C 
ATOM     13  C   UNL     1      33.244 -14.159 -21.927  0.00  0.00    +0.053 A 
ATOM     14  C   UNL     1      35.133 -17.324 -23.608  0.00  0.00    +0.002 C 
ATOM     15  C   UNL     1      34.666 -16.286 -24.445  0.00  0.00    +0.021 C 
ATOM     16  C   UNL     1      32.815 -13.627 -20.622  0.00  0.00    +0.051 C 
ATOM     17  H   UNL     1      32.547 -12.621 -23.123  0.00  0.00    +0.189 HD
ENDBRANCH   2  10
BRANCH   3  18
ATOM     18  O   UNL     1      34.402 -21.498 -19.763  0.00  0.00    -0.476 OA
BRANCH  18  19
ATOM     19  C   UNL     1      34.877 -22.221 -18.625  0.00  0.00    +0.184 C 
BRANCH  19  20
ATOM     20  C   UNL     1      33.775 -23.135 -18.078  0.00  0.00    -0.017 C 
BRANCH  20  21
ATOM     21  N   UNL     1      33.785 -24.383 -18.846  0.00  0.00    +0.384 N 
ATOM     22  H   UNL     1      34.716 -24.797 -18.812  0.00  0.00    -0.089 HD
ATOM     23  H   UNL     1      33.536 -24.187 -19.817  0.00  0.00    -0.089 HD
ATOM     24  H   UNL     1      33.108 -25.034 -18.447  0.00  0.00    -0.089 HD
ENDBRANCH  20  21
BRANCH  20  25
ATOM     25  C   UNL     1      33.961 -23.485 -16.586  0.00  0.00    +0.008 C 
BRANCH  25  26
ATOM     26  C   UNL     1      32.684 -23.506 -15.781  0.00  0.00    -0.024 C 
ATOM     27  C   UNL     1      31.485 -23.186 -16.399  0.00  0.00    -0.004 C 
ATOM     28  C   UNL     1      32.733 -23.845 -14.438  0.00  0.00    -0.004 C 
ATOM     29  C   UNL     1      30.306 -23.205 -15.656  0.00  0.00    -0.000 C 
ATOM     30  C   UNL     1      31.552 -23.864 -13.694  0.00  0.00    -0.000 C 
ATOM     31  C   UNL     1      30.339 -23.544 -14.303  0.00  0.00    -0.000 C 
ENDBRANCH  25  26
ENDBRANCH  20  25
ENDBRANCH  19  20
ENDBRANCH  18  19
ENDBRANCH   3  18
TORSDOF 7
ENDMDL
MODEL 4
REMARK VINA RESULT:     -10.9      2.033      8.932
REMARK  Name = 11314340
REMARK  7 active torsions:
REMARK  status: ('A' for Active; 'I' for Inactive)
REMARK    1  A    between atoms: C_2  and  C_10
REMARK    2  A    between atoms: C_3  and  O_18
REMARK    3  A    between atoms: O_18  and  C_19
REMARK    4  A    between atoms: C_19  and  C_20
REMARK    5  A    between atoms: C_20  and  N_21
REMARK    6  A    between atoms: C_20  and  C_25
REMARK    7  A    between atoms: C_25  and  C_26
REMARK                            x       y       z     vdW  Elec       q    Type
REMARK                         _______ _______ _______ _____ _____    ______ ____
ROOT
ATOM      1  N   UNL     1      34.266 -18.241 -24.837  0.00  0.00    -0.239 NA
ATOM      2  C   UNL     1      35.165 -18.495 -22.614  0.00  0.00    +0.022 C 
ATOM      3  C   UNL     1      34.913 -16.301 -23.549  0.00  0.00    +0.158 C 
ATOM      4  C   UNL     1      35.299 -17.120 -22.493  0.00  0.00    +0.040 C 
ATOM      5  C   UNL     1      34.650 -19.006 -23.790  0.00  0.00    +0.099 C 
ATOM      6  C   UNL     1      34.409 -16.905 -24.689  0.00  0.00    +0.136 C 
ENDROOT
BRANCH   2  10
ATOM      7  N   UNL     1      35.356 -22.409 -18.338  0.00  0.00    -0.280 N 
ATOM      8  N   UNL     1      36.592 -21.890 -18.477  0.00  0.00    -0.173 NA
ATOM      9  C   UNL     1      35.110 -20.991 -19.948  0.00  0.00    +0.032 A 
ATOM     10  C   UNL     1      35.558 -19.377 -21.531  0.00  0.00    +0.002 C 
ATOM     11  C   UNL     1      36.475 -20.997 -19.477  0.00  0.00    +0.102 A 
ATOM     12  C   UNL     1      34.576 -20.213 -20.966  0.00  0.00    +0.003 C 
ATOM     13  C   UNL     1      34.424 -21.904 -19.198  0.00  0.00    +0.053 A 
ATOM     14  C   UNL     1      36.923 -19.346 -21.101  0.00  0.00    +0.002 C 
ATOM     15  C   UNL     1      37.436 -20.152 -20.060  0.00  0.00    +0.021 C 
ATOM     16  C   UNL     1      33.024 -22.359 -19.186  0.00  0.00    +0.051 C 
ATOM     17  H   UNL     1      35.142 -23.099 -17.669  0.00  0.00    +0.189 HD
ENDBRANCH   2  10
BRANCH   3  18
ATOM     18  O   UNL     1      35.029 -14.952 -23.464  0.00  0.00    -0.476 OA
BRANCH  18  19
ATOM     19  C   UNL     1      34.492 -14.321 -22.300  0.00  0.00    +0.184 C 
BRANCH  19  20
ATOM     20  C   UNL     1      33.642 -13.108 -22.698  0.00  0.00    -0.017 C 
BRANCH  20  21
ATOM     21  N   UNL     1      33.535 -13.079 -24.160  0.00  0.00    +0.384 N 
ATOM     22  H   UNL     1      33.830 -12.166 -24.505  0.00  0.00    -0.089 HD
ATOM     23  H   UNL     1      32.566 -13.249 -24.433  0.00  0.00    -0.089 HD
ATOM     24  H   UNL     1      34.132 -13.804 -24.560  0.00  0.00    -0.089 HD
ENDBRANCH  20  21
BRANCH  20  25
ATOM     25  C   UNL     1      32.216 -13.146 -22.110  0.00  0.00    +0.008 C 
BRANCH  25  26
ATOM     26  C   UNL     1      31.934 -12.086 -21.074  0.00  0.00    -0.024 C 
ATOM     27  C   UNL     1      31.982 -10.749 -21.439  0.00  0.00    -0.004 C 
ATOM     28  C   UNL     1      31.632 -12.467 -19.776  0.00  0.00    -0.004 C 
ATOM     29  C   UNL     1      31.722  -9.769 -20.482  0.00  0.00    -0.000 C 
ATOM     30  C   UNL     1      31.372 -11.485 -18.819  0.00  0.00    -0.000 C 
ATOM     31  C   UNL     1      31.417 -10.137 -19.171  0.00  0.00    -0.000 C 
ENDBRANCH  25  26
ENDBRANCH  20  25
ENDBRANCH  19  20
ENDBRANCH  18  19
ENDBRANCH   3  18
TORSDOF 7
ENDMDL
MODEL 5
REMARK VINA RESULT:     -10.9      5.246     12.146
REMARK  Name = 11314340
REMARK  7 active torsions:
REMARK  status: ('A' for Active; 'I' for Inactive)
REMARK    1  A    between atoms: C_2  and  C_10
REMARK    2  A    between atoms: C_3  and  O_18
REMARK    3  A    between atoms: O_18  and  C_19
REMARK    4  A    between atoms: C_19  and  C_20
REMARK    5  A    between atoms: C_20  and  N_21
REMARK    6  A    between atoms: C_20  and  C_25
REMARK    7  A    between atoms: C_25  and  C_26
REMARK                            x       y       z     vdW  Elec       q    Type
REMARK                         _______ _______ _______ _____ _____    ______ ____
ROOT
ATOM      1  N   UNL     1      31.529 -23.505 -15.173  0.00  0.00    -0.239 NA
ATOM      2  C   UNL     1      33.937 -23.622 -15.202  0.00  0.00    +0.022 C 
ATOM      3  C   UNL     1      32.753 -23.044 -17.206  0.00  0.00    +0.158 C 
ATOM      4  C   UNL     1      33.954 -23.277 -16.545  0.00  0.00    +0.040 C 
ATOM      5  C   UNL     1      32.716 -23.724 -14.564  0.00  0.00    +0.099 C 
ATOM      6  C   UNL     1      31.579 -23.171 -16.482  0.00  0.00    +0.136 C 
ENDROOT
BRANCH   2  10
ATOM      7  N   UNL     1      37.993 -24.722 -11.205  0.00  0.00    -0.280 N 
ATOM      8  N   UNL     1      38.613 -24.587 -12.394  0.00  0.00    -0.173 NA
ATOM      9  C   UNL     1      36.362 -24.323 -12.561  0.00  0.00    +0.032 A 
ATOM     10  C   UNL     1      35.173 -23.873 -14.484  0.00  0.00    +0.002 C 
ATOM     11  C   UNL     1      37.620 -24.336 -13.268  0.00  0.00    +0.102 A 
ATOM     12  C   UNL     1      35.100 -24.099 -13.096  0.00  0.00    +0.003 C 
ATOM     13  C   UNL     1      36.638 -24.573 -11.247  0.00  0.00    +0.053 A 
ATOM     14  C   UNL     1      36.395 -23.876 -15.230  0.00  0.00    +0.002 C 
ATOM     15  C   UNL     1      37.665 -24.107 -14.655  0.00  0.00    +0.021 C 
ATOM     16  C   UNL     1      35.802 -24.690 -10.040  0.00  0.00    +0.051 C 
ATOM     17  H   UNL     1      38.481 -24.914 -10.372  0.00  0.00    +0.189 HD
ENDBRANCH   2  10
BRANCH   3  18
ATOM     18  O   UNL     1      32.734 -22.704 -18.519  0.00  0.00    -0.476 OA
BRANCH  18  19
ATOM     19  C   UNL     1      33.992 -22.462 -19.151  0.00  0.00    +0.184 C 
BRANCH  19  20
ATOM     20  C   UNL     1      33.852 -21.360 -20.208  0.00  0.00    -0.017 C 
BRANCH  20  21
ATOM     21  N   UNL     1      32.714 -20.511 -19.844  0.00  0.00    +0.384 N 
ATOM     22  H   UNL     1      32.270 -20.880 -19.004  0.00  0.00    -0.089 HD
ATOM     23  H   UNL     1      32.040 -20.500 -20.610  0.00  0.00    -0.089 HD
ATOM     24  H   UNL     1      33.042 -19.561 -19.667  0.00  0.00    -0.089 HD
ENDBRANCH  20  21
BRANCH  20  25
ATOM     25  C   UNL     1      35.104 -20.465 -20.323  0.00  0.00    +0.008 C 
BRANCH  25  26
ATOM     26  C   UNL     1      35.050 -19.446 -21.436  0.00  0.00    -0.024 C 
ATOM     27  C   UNL     1      35.209 -18.102 -21.135  0.00  0.00    -0.004 C 
ATOM     28  C   UNL     1      34.842 -19.872 -22.738  0.00  0.00    -0.004 C 
ATOM     29  C   UNL     1      35.159 -17.161 -22.162  0.00  0.00    -0.000 C 
ATOM     30  C   UNL     1      34.792 -18.929 -23.766  0.00  0.00    -0.000 C 
ATOM     31  C   UNL     1      34.950 -17.574 -23.478  0.00  0.00    -0.000 C 
ENDBRANCH  25  26
ENDBRANCH  20  25
ENDBRANCH  19  20
ENDBRANCH  18  19
ENDBRANCH   3  18
TORSDOF 7
ENDMDL
MODEL 6
REMARK VINA RESULT:     -10.8      4.389     11.782
REMARK  Name = 11314340
REMARK  7 active torsions:
REMARK  status: ('A' for Active; 'I' for Inactive)
REMARK    1  A    between atoms: C_2  and  C_10
REMARK    2  A    between atoms: C_3  and  O_18
REMARK    3  A    between atoms: O_18  and  C_19
REMARK    4  A    between atoms: C_19  and  C_20
REMARK    5  A    between atoms: C_20  and  N_21
REMARK    6  A    between atoms: C_20  and  C_25
REMARK    7  A    between atoms: C_25  and  C_26
REMARK                            x       y       z     vdW  Elec       q    Type
REMARK                         _______ _______ _______ _____ _____    ______ ____
ROOT
ATOM      1  N   UNL     1      32.990 -22.784 -18.436  0.00  0.00    -0.239 NA
ATOM      2  C   UNL     1      34.688 -23.169 -16.767  0.00  0.00    +0.022 C 
ATOM      3  C   UNL     1      35.207 -21.859 -18.708  0.00  0.00    +0.158 C 
ATOM      4  C   UNL     1      35.600 -22.426 -17.501  0.00  0.00    +0.040 C 
ATOM      5  C   UNL     1      33.408 -23.320 -17.268  0.00  0.00    +0.099 C 
ATOM      6  C   UNL     1      33.903 -22.066 -19.128  0.00  0.00    +0.136 C 
ENDROOT
BRANCH   2  10
ATOM      7  N   UNL     1      37.488 -25.693 -12.360  0.00  0.00    -0.280 N 
ATOM      8  N   UNL     1      36.212 -25.489 -11.975  0.00  0.00    -0.173 NA
ATOM      9  C   UNL     1      36.600 -24.759 -14.092  0.00  0.00    +0.032 A 
ATOM     10  C   UNL     1      35.068 -23.775 -15.504  0.00  0.00    +0.002 C 
ATOM     11  C   UNL     1      35.626 -24.906 -13.036  0.00  0.00    +0.102 A 
ATOM     12  C   UNL     1      36.399 -24.207 -15.350  0.00  0.00    +0.003 C 
ATOM     13  C   UNL     1      37.777 -25.272 -13.625  0.00  0.00    +0.053 A 
ATOM     14  C   UNL     1      34.066 -23.896 -14.489  0.00  0.00    +0.002 C 
ATOM     15  C   UNL     1      34.303 -24.465 -13.218  0.00  0.00    +0.021 C 
ATOM     16  C   UNL     1      39.122 -25.416 -14.207  0.00  0.00    +0.051 C 
ATOM     17  H   UNL     1      38.158 -26.111 -11.772  0.00  0.00    +0.189 HD
ENDBRANCH   2  10
BRANCH   3  18
ATOM     18  O   UNL     1      36.074 -21.125 -19.449  0.00  0.00    -0.476 OA
BRANCH  18  19
ATOM     19  C   UNL     1      35.588 -20.584 -20.679  0.00  0.00    +0.184 C 
BRANCH  19  20
ATOM     20  C   UNL     1      36.117 -19.159 -20.878  0.00  0.00    -0.017 C 
BRANCH  20  21
ATOM     21  N   UNL     1      37.581 -19.194 -20.807  0.00  0.00    +0.384 N 
ATOM     22  H   UNL     1      37.871 -19.427 -19.857  0.00  0.00    -0.089 HD
ATOM     23  H   UNL     1      37.956 -18.280 -21.063  0.00  0.00    -0.089 HD
ATOM     24  H   UNL     1      37.936 -19.900 -21.454  0.00  0.00    -0.089 HD
ENDBRANCH  20  21
BRANCH  20  25
ATOM     25  C   UNL     1      35.715 -18.544 -22.235  0.00  0.00    +0.008 C 
BRANCH  25  26
ATOM     26  C   UNL     1      35.164 -17.142 -22.153  0.00  0.00    -0.024 C 
ATOM     27  C   UNL     1      35.065 -16.381 -23.308  0.00  0.00    -0.004 C 
ATOM     28  C   UNL     1      34.765 -16.638 -20.924  0.00  0.00    -0.004 C 
ATOM     29  C   UNL     1      34.556 -15.085 -23.233  0.00  0.00    -0.000 C 
ATOM     30  C   UNL     1      34.256 -15.342 -20.850  0.00  0.00    -0.000 C 
ATOM     31  C   UNL     1      34.151 -14.565 -22.003  0.00  0.00    -0.000 C 
ENDBRANCH  25  26
ENDBRANCH  20  25
ENDBRANCH  19  20
ENDBRANCH  18  19
ENDBRANCH   3  18
TORSDOF 7
ENDMDL
MODEL 7
REMARK VINA RESULT:     -10.7      3.312      6.438
REMARK  Name = 11314340
REMARK  7 active torsions:
REMARK  status: ('A' for Active; 'I' for Inactive)
REMARK    1  A    between atoms: C_2  and  C_10
REMARK    2  A    between atoms: C_3  and  O_18
REMARK    3  A    between atoms: O_18  and  C_19
REMARK    4  A    between atoms: C_19  and  C_20
REMARK    5  A    between atoms: C_20  and  N_21
REMARK    6  A    between atoms: C_20  and  C_25
REMARK    7  A    between atoms: C_25  and  C_26
REMARK                            x       y       z     vdW  Elec       q    Type
REMARK                         _______ _______ _______ _____ _____    ______ ____
ROOT
ATOM      1  N   UNL     1      36.596 -21.322 -19.358  0.00  0.00    -0.239 NA
ATOM      2  C   UNL     1      35.150 -19.933 -20.699  0.00  0.00    +0.022 C 
ATOM      3  C   UNL     1      34.215 -21.731 -19.417  0.00  0.00    +0.158 C 
ATOM      4  C   UNL     1      34.045 -20.666 -20.295  0.00  0.00    +0.040 C 
ATOM      5  C   UNL     1      36.393 -20.293 -20.212  0.00  0.00    +0.099 C 
ATOM      6  C   UNL     1      35.499 -22.016 -18.983  0.00  0.00    +0.136 C 
ENDROOT
BRANCH   2  10
ATOM      7  N   UNL     1      34.487 -14.713 -23.138  0.00  0.00    -0.280 N 
ATOM      8  N   UNL     1      34.597 -15.620 -24.129  0.00  0.00    -0.173 NA
ATOM      9  C   UNL     1      34.725 -16.574 -22.070  0.00  0.00    +0.032 A 
ATOM     10  C   UNL     1      35.007 -18.816 -21.614  0.00  0.00    +0.002 C 
ATOM     11  C   UNL     1      34.747 -16.798 -23.496  0.00  0.00    +0.102 A 
ATOM     12  C   UNL     1      34.848 -17.528 -21.068  0.00  0.00    +0.003 C 
ATOM     13  C   UNL     1      34.558 -15.232 -21.878  0.00  0.00    +0.053 A 
ATOM     14  C   UNL     1      35.036 -19.090 -23.018  0.00  0.00    +0.002 C 
ATOM     15  C   UNL     1      34.908 -18.096 -24.014  0.00  0.00    +0.021 C 
ATOM     16  C   UNL     1      34.458 -14.385 -20.678  0.00  0.00    +0.051 C 
ATOM     17  H   UNL     1      34.367 -13.751 -23.310  0.00  0.00    +0.189 HD
ENDBRANCH   2  10
BRANCH   3  18
ATOM     18  O   UNL     1      33.154 -22.468 -19.000  0.00  0.00    -0.476 OA
BRANCH  18  19
ATOM     19  C   UNL     1      33.406 -23.490 -18.035  0.00  0.00    +0.184 C 
BRANCH  19  20
ATOM     20  C   UNL     1      32.879 -23.064 -16.660  0.00  0.00    -0.017 C 
BRANCH  20  21
ATOM     21  N   UNL     1      31.415 -23.038 -16.714  0.00  0.00    +0.384 N 
ATOM     22  H   UNL     1      31.060 -23.990 -16.800  0.00  0.00    -0.089 HD
ATOM     23  H   UNL     1      31.114 -22.489 -17.520  0.00  0.00    -0.089 HD
ATOM     24  H   UNL     1      31.050 -22.614 -15.860  0.00  0.00    -0.089 HD
ENDBRANCH  20  21
BRANCH  20  25
ATOM     25  C   UNL     1      33.303 -24.019 -15.524  0.00  0.00    +0.008 C 
BRANCH  25  26
ATOM     26  C   UNL     1      34.784 -24.035 -15.235  0.00  0.00    -0.024 C 
ATOM     27  C   UNL     1      35.377 -25.207 -14.789  0.00  0.00    -0.004 C 
ATOM     28  C   UNL     1      35.527 -22.880 -15.421  0.00  0.00    -0.004 C 
ATOM     29  C   UNL     1      36.745 -25.223 -14.523  0.00  0.00    -0.000 C 
ATOM     30  C   UNL     1      36.896 -22.897 -15.154  0.00  0.00    -0.000 C 
ATOM     31  C   UNL     1      37.505 -24.067 -14.705  0.00  0.00    -0.000 C 
ENDBRANCH  25  26
ENDBRANCH  20  25
ENDBRANCH  19  20
ENDBRANCH  18  19
ENDBRANCH   3  18
TORSDOF 7
ENDMDL
MODEL 8
REMARK VINA RESULT:     -10.7      3.995     11.090
REMARK  Name = 11314340
REMARK  7 active torsions:
REMARK  status: ('A' for Active; 'I' for Inactive)
REMARK    1  A    between atoms: C_2  and  C_10
REMARK    2  A    between atoms: C_3  and  O_18
REMARK    3  A    between atoms: O_18  and  C_19
REMARK    4  A    between atoms: C_19  and  C_20
REMARK    5  A    between atoms: C_20  and  N_21
REMARK    6  A    between atoms: C_20  and  C_25
REMARK    7  A    between atoms: C_25  and  C_26
REMARK                            x       y       z     vdW  Elec       q    Type
REMARK                         _______ _______ _______ _____ _____    ______ ____
ROOT
ATOM      1  N   UNL     1      32.940 -22.352 -19.244  0.00  0.00    -0.239 NA
ATOM      2  C   UNL     1      34.615 -22.664 -17.537  0.00  0.00    +0.022 C 
ATOM      3  C   UNL     1      35.145 -21.395 -19.502  0.00  0.00    +0.158 C 
ATOM      4  C   UNL     1      35.527 -21.924 -18.274  0.00  0.00    +0.040 C 
ATOM      5  C   UNL     1      33.347 -22.851 -18.055  0.00  0.00    +0.099 C 
ATOM      6  C   UNL     1      33.852 -21.636 -19.938  0.00  0.00    +0.136 C 
ENDROOT
BRANCH   2  10
ATOM      7  N   UNL     1      34.679 -25.189 -12.316  0.00  0.00    -0.280 N 
ATOM      8  N   UNL     1      35.945 -24.845 -12.623  0.00  0.00    -0.173 NA
ATOM      9  C   UNL     1      34.477 -24.276 -14.262  0.00  0.00    +0.032 A 
ATOM     10  C   UNL     1      34.984 -23.230 -16.253  0.00  0.00    +0.002 C 
ATOM     11  C   UNL     1      35.857 -24.270 -13.837  0.00  0.00    +0.102 A 
ATOM     12  C   UNL     1      33.963 -23.777 -15.451  0.00  0.00    +0.003 C 
ATOM     13  C   UNL     1      33.754 -24.870 -13.267  0.00  0.00    +0.053 A 
ATOM     14  C   UNL     1      36.364 -23.202 -15.877  0.00  0.00    +0.002 C 
ATOM     15  C   UNL     1      36.857 -23.718 -14.658  0.00  0.00    +0.021 C 
ATOM     16  C   UNL     1      32.323 -25.173 -13.097  0.00  0.00    +0.051 C 
ATOM     17  H   UNL     1      34.440 -25.636 -11.472  0.00  0.00    +0.189 HD
ENDBRANCH   2  10
BRANCH   3  18
ATOM     18  O   UNL     1      36.012 -20.665 -20.248  0.00  0.00    -0.476 OA
BRANCH  18  19
ATOM     19  C   UNL     1      35.471 -19.927 -21.345  0.00  0.00    +0.184 C 
BRANCH  19  20
ATOM     20  C   UNL     1      36.195 -18.583 -21.488  0.00  0.00    -0.017 C 
BRANCH  20  21
ATOM     21  N   UNL     1      37.610 -18.847 -21.764  0.00  0.00    +0.384 N 
ATOM     22  H   UNL     1      38.188 -18.204 -21.224  0.00  0.00    -0.089 HD
ATOM     23  H   UNL     1      37.793 -18.716 -22.759  0.00  0.00    -0.089 HD
ATOM     24  H   UNL     1      37.834 -19.808 -21.502  0.00  0.00    -0.089 HD
ENDBRANCH  20  21
BRANCH  20  25
ATOM     25  C   UNL     1      35.636 -17.710 -22.632  0.00  0.00    +0.008 C 
BRANCH  25  26
ATOM     26  C   UNL     1      34.944 -16.447 -22.180  0.00  0.00    -0.024 C 
ATOM     27  C   UNL     1      34.544 -16.328 -20.857  0.00  0.00    -0.004 C 
ATOM     28  C   UNL     1      34.722 -15.429 -23.093  0.00  0.00    -0.004 C 
ATOM     29  C   UNL     1      33.905 -15.161 -20.439  0.00  0.00    -0.000 C 
ATOM     30  C   UNL     1      34.083 -14.262 -22.673  0.00  0.00    -0.000 C 
ATOM     31  C   UNL     1      33.674 -14.128 -21.347  0.00  0.00    -0.000 C 
ENDBRANCH  25  26
ENDBRANCH  20  25
ENDBRANCH  19  20
ENDBRANCH  18  19
ENDBRANCH   3  18
TORSDOF 7
ENDMDL
MODEL 9
REMARK VINA RESULT:     -10.7      1.882      8.868
REMARK  Name = 11314340
REMARK  7 active torsions:
REMARK  status: ('A' for Active; 'I' for Inactive)
REMARK    1  A    between atoms: C_2  and  C_10
REMARK    2  A    between atoms: C_3  and  O_18
REMARK    3  A    between atoms: O_18  and  C_19
REMARK    4  A    between atoms: C_19  and  C_20
REMARK    5  A    between atoms: C_20  and  N_21
REMARK    6  A    between atoms: C_20  and  C_25
REMARK    7  A    between atoms: C_25  and  C_26
REMARK                            x       y       z     vdW  Elec       q    Type
REMARK                         _______ _______ _______ _____ _____    ______ ____
ROOT
ATOM      1  N   UNL     1      34.412 -16.643 -25.274  0.00  0.00    -0.239 NA
ATOM      2  C   UNL     1      34.933 -17.278 -23.007  0.00  0.00    +0.022 C 
ATOM      3  C   UNL     1      34.172 -15.051 -23.471  0.00  0.00    +0.158 C 
ATOM      4  C   UNL     1      34.601 -16.009 -22.558  0.00  0.00    +0.040 C 
ATOM      5  C   UNL     1      34.825 -17.547 -24.358  0.00  0.00    +0.099 C 
ATOM      6  C   UNL     1      34.097 -15.415 -24.805  0.00  0.00    +0.136 C 
ENDROOT
BRANCH   2  10
ATOM      7  N   UNL     1      35.333 -21.651 -19.219  0.00  0.00    -0.280 N 
ATOM      8  N   UNL     1      36.580 -21.199 -19.459  0.00  0.00    -0.173 NA
ATOM      9  C   UNL     1      35.006 -20.049 -20.629  0.00  0.00    +0.032 A 
ATOM     10  C   UNL     1      35.384 -18.299 -22.080  0.00  0.00    +0.002 C 
ATOM     11  C   UNL     1      36.413 -20.194 -20.338  0.00  0.00    +0.102 A 
ATOM     12  C   UNL     1      34.415 -19.129 -21.484  0.00  0.00    +0.003 C 
ATOM     13  C   UNL     1      34.347 -20.995 -19.897  0.00  0.00    +0.053 A 
ATOM     14  C   UNL     1      36.789 -18.403 -21.826  0.00  0.00    +0.002 C 
ATOM     15  C   UNL     1      37.360 -19.351 -20.948  0.00  0.00    +0.021 C 
ATOM     16  C   UNL     1      32.927 -21.359 -19.754  0.00  0.00    +0.051 C 
ATOM     17  H   UNL     1      35.149 -22.397 -18.603  0.00  0.00    +0.189 HD
ENDBRANCH   2  10
BRANCH   3  18
ATOM     18  O   UNL     1      33.838 -13.801 -23.065  0.00  0.00    -0.476 OA
BRANCH  18  19
ATOM     19  C   UNL     1      33.836 -12.770 -24.054  0.00  0.00    +0.184 C 
BRANCH  19  20
ATOM     20  C   UNL     1      34.055 -11.402 -23.397  0.00  0.00    -0.017 C 
BRANCH  20  21
ATOM     21  N   UNL     1      34.949 -10.616 -24.252  0.00  0.00    +0.384 N 
ATOM     22  H   UNL     1      35.865 -11.064 -24.290  0.00  0.00    -0.089 HD
ATOM     23  H   UNL     1      35.046  -9.675 -23.868  0.00  0.00    -0.089 HD
ATOM     24  H   UNL     1      34.558 -10.560 -25.193  0.00  0.00    -0.089 HD
ENDBRANCH  20  21
BRANCH  20  25
ATOM     25  C   UNL     1      32.747 -10.605 -23.205  0.00  0.00    +0.008 C 
BRANCH  25  26
ATOM     26  C   UNL     1      32.206 -10.614 -21.796  0.00  0.00    -0.024 C 
ATOM     27  C   UNL     1      31.616 -11.768 -21.302  0.00  0.00    -0.004 C 
ATOM     28  C   UNL     1      32.307  -9.470 -21.020  0.00  0.00    -0.004 C 
ATOM     29  C   UNL     1      31.116 -11.778 -20.000  0.00  0.00    -0.000 C 
ATOM     30  C   UNL     1      31.806  -9.480 -19.718  0.00  0.00    -0.000 C 
ATOM     31  C   UNL     1      31.211 -10.633 -19.208  0.00  0.00    -0.000 C 
ENDBRANCH  25  26
ENDBRANCH  20  25
ENDBRANCH  19  20
ENDBRANCH  18  19
ENDBRANCH   3  18
TORSDOF 7
ENDMDL
