MODEL 1
REMARK VINA RESULT:     -12.4      0.000      0.000
REMARK  Name = 3815
REMARK  0 active torsions:
REMARK  status: ('A' for Active; 'I' for Inactive)
REMARK                            x       y       z     vdW  Elec       q    Type
REMARK                         _______ _______ _______ _____ _____    ______ ____
ROOT
ATOM      1  O   UNL     1      31.193 -22.952 -16.869  0.00  0.00    -0.270 OA
ATOM      2  N   UNL     1      37.521 -23.876 -15.419  0.00  0.00    -0.352 N 
ATOM      3  N   UNL     1      36.600 -22.515 -17.671  0.00  0.00    -0.352 N 
ATOM      4  N   UNL     1      31.526 -24.152 -14.880  0.00  0.00    -0.297 N 
ATOM      5  C   UNL     1      33.810 -24.155 -14.905  0.00  0.00    +0.003 A 
ATOM      6  C   UNL     1      35.194 -24.247 -14.770  0.00  0.00    +0.016 A 
ATOM      7  C   UNL     1      34.311 -22.946 -16.922  0.00  0.00    +0.022 A 
ATOM      8  C   UNL     1      36.196 -23.726 -15.650  0.00  0.00    +0.072 A 
ATOM      9  C   UNL     1      33.365 -23.469 -16.040  0.00  0.00    +0.053 A 
ATOM     10  C   UNL     1      35.734 -23.044 -16.779  0.00  0.00    +0.073 A 
ATOM     11  C   UNL     1      32.650 -24.632 -14.097  0.00  0.00    +0.117 C 
ATOM     12  C   UNL     1      36.145 -24.828 -13.817  0.00  0.00    +0.017 A 
ATOM     13  C   UNL     1      34.362 -22.190 -18.184  0.00  0.00    +0.017 A 
ATOM     14  C   UNL     1      37.498 -24.592 -14.229  0.00  0.00    +0.057 A 
ATOM     15  C   UNL     1      35.721 -21.959 -18.588  0.00  0.00    +0.057 A 
ATOM     16  C   UNL     1      31.907 -23.464 -16.030  0.00  0.00    +0.246 C 
ATOM     17  C   UNL     1      35.941 -25.549 -12.616  0.00  0.00    +0.001 C 
ATOM     18  C   UNL     1      33.344 -21.677 -19.024  0.00  0.00    +0.001 C 
ATOM     19  C   UNL     1      38.586 -25.054 -13.475  0.00  0.00    +0.017 C 
ATOM     20  C   UNL     1      36.033 -21.257 -19.762  0.00  0.00    +0.017 C 
ATOM     21  C   UNL     1      37.034 -26.005 -11.872  0.00  0.00    +0.000 C 
ATOM     22  C   UNL     1      33.667 -20.980 -20.193  0.00  0.00    +0.000 C 
ATOM     23  C   UNL     1      38.334 -25.760 -12.297  0.00  0.00    +0.001 C 
ATOM     24  C   UNL     1      34.992 -20.774 -20.554  0.00  0.00    +0.001 C 
ATOM     25  H   UNL     1      38.290 -23.565 -15.948  0.00  0.00    +0.166 HD
ATOM     26  H   UNL     1      37.584 -22.522 -17.671  0.00  0.00    +0.166 HD
ATOM     27  H   UNL     1      30.587 -24.299 -14.624  0.00  0.00    +0.150 HD
ENDROOT
TORSDOF 0
ENDMDL
MODEL 2
REMARK VINA RESULT:     -12.2      0.988      5.968
REMARK  Name = 3815
REMARK  0 active torsions:
REMARK  status: ('A' for Active; 'I' for Inactive)
REMARK                            x       y       z     vdW  Elec       q    Type
REMARK                         _______ _______ _______ _____ _____    ______ ____
ROOT
ATOM      1  O   UNL     1      32.646 -25.230 -13.052  0.00  0.00    -0.270 OA
ATOM      2  N   UNL     1      36.319 -22.542 -17.774  0.00  0.00    -0.352 N 
ATOM      3  N   UNL     1      37.337 -23.906 -15.566  0.00  0.00    -0.352 N 
ATOM      4  N   UNL     1      31.385 -24.174 -14.726  0.00  0.00    -0.297 N 
ATOM      5  C   UNL     1      33.127 -23.467 -16.021  0.00  0.00    +0.003 A 
ATOM      6  C   UNL     1      34.069 -22.967 -16.919  0.00  0.00    +0.016 A 
ATOM      7  C   UNL     1      35.040 -24.271 -14.807  0.00  0.00    +0.022 A 
ATOM      8  C   UNL     1      35.495 -23.070 -16.839  0.00  0.00    +0.072 A 
ATOM      9  C   UNL     1      33.655 -24.149 -14.920  0.00  0.00    +0.053 A 
ATOM     10  C   UNL     1      36.005 -23.754 -15.733  0.00  0.00    +0.073 A 
ATOM     11  C   UNL     1      31.637 -23.446 -15.956  0.00  0.00    +0.117 C 
ATOM     12  C   UNL     1      34.062 -22.211 -18.176  0.00  0.00    +0.017 A 
ATOM     13  C   UNL     1      36.038 -24.855 -13.896  0.00  0.00    +0.017 A 
ATOM     14  C   UNL     1      35.396 -21.981 -18.647  0.00  0.00    +0.057 A 
ATOM     15  C   UNL     1      37.371 -24.620 -14.377  0.00  0.00    +0.057 A 
ATOM     16  C   UNL     1      32.547 -24.603 -14.089  0.00  0.00    +0.246 C 
ATOM     17  C   UNL     1      32.994 -21.702 -18.953  0.00  0.00    +0.001 C 
ATOM     18  C   UNL     1      35.908 -25.577 -12.685  0.00  0.00    +0.001 C 
ATOM     19  C   UNL     1      35.644 -21.278 -19.835  0.00  0.00    +0.017 C 
ATOM     20  C   UNL     1      38.499 -25.080 -13.682  0.00  0.00    +0.017 C 
ATOM     21  C   UNL     1      33.253 -21.003 -20.136  0.00  0.00    +0.000 C 
ATOM     22  C   UNL     1      37.040 -26.030 -11.999  0.00  0.00    +0.000 C 
ATOM     23  C   UNL     1      34.557 -20.795 -20.567  0.00  0.00    +0.001 C 
ATOM     24  C   UNL     1      38.315 -25.785 -12.492  0.00  0.00    +0.001 C 
ATOM     25  H   UNL     1      37.302 -22.552 -17.822  0.00  0.00    +0.166 HD
ATOM     26  H   UNL     1      38.080 -23.597 -16.132  0.00  0.00    +0.166 HD
ATOM     27  H   UNL     1      30.481 -24.348 -14.376  0.00  0.00    +0.150 HD
ENDROOT
TORSDOF 0
ENDMDL
MODEL 3
REMARK VINA RESULT:     -12.0      2.162      4.699
REMARK  Name = 3815
REMARK  0 active torsions:
REMARK  status: ('A' for Active; 'I' for Inactive)
REMARK                            x       y       z     vdW  Elec       q    Type
REMARK                         _______ _______ _______ _____ _____    ______ ____
ROOT
ATOM      1  O   UNL     1      37.571 -23.138 -16.088  0.00  0.00    -0.270 OA
ATOM      2  N   UNL     1      31.053 -23.406 -16.759  0.00  0.00    -0.352 N 
ATOM      3  N   UNL     1      32.776 -22.164 -18.564  0.00  0.00    -0.352 N 
ATOM      4  N   UNL     1      36.501 -24.279 -14.338  0.00  0.00    -0.297 N 
ATOM      5  C   UNL     1      34.358 -24.052 -15.093  0.00  0.00    +0.003 A 
ATOM      6  C   UNL     1      33.001 -24.004 -15.410  0.00  0.00    +0.016 A 
ATOM      7  C   UNL     1      34.651 -22.818 -17.134  0.00  0.00    +0.022 A 
ATOM      8  C   UNL     1      32.390 -23.392 -16.551  0.00  0.00    +0.072 A 
ATOM      9  C   UNL     1      35.207 -23.426 -16.009  0.00  0.00    +0.053 A 
ATOM     10  C   UNL     1      33.254 -22.770 -17.455  0.00  0.00    +0.073 A 
ATOM     11  C   UNL     1      35.144 -24.636 -13.967  0.00  0.00    +0.117 C 
ATOM     12  C   UNL     1      31.742 -24.478 -14.824  0.00  0.00    +0.017 A 
ATOM     13  C   UNL     1      35.080 -22.069 -18.326  0.00  0.00    +0.017 A 
ATOM     14  C   UNL     1      30.622 -24.109 -15.641  0.00  0.00    +0.057 A 
ATOM     15  C   UNL     1      33.952 -21.704 -19.137  0.00  0.00    +0.057 A 
ATOM     16  C   UNL     1      36.578 -23.566 -15.533  0.00  0.00    +0.246 C 
ATOM     17  C   UNL     1      31.479 -25.204 -13.638  0.00  0.00    +0.001 C 
ATOM     18  C   UNL     1      36.359 -21.668 -18.784  0.00  0.00    +0.001 C 
ATOM     19  C   UNL     1      29.310 -24.452 -15.286  0.00  0.00    +0.017 C 
ATOM     20  C   UNL     1      34.103 -20.983 -20.331  0.00  0.00    +0.017 C 
ATOM     21  C   UNL     1      30.166 -25.541 -13.294  0.00  0.00    +0.000 C 
ATOM     22  C   UNL     1      36.498 -20.948 -19.975  0.00  0.00    +0.000 C 
ATOM     23  C   UNL     1      29.101 -25.170 -14.106  0.00  0.00    +0.001 C 
ATOM     24  C   UNL     1      35.385 -20.612 -20.736  0.00  0.00    +0.001 C 
ATOM     25  H   UNL     1      30.528 -23.023 -17.498  0.00  0.00    +0.166 HD
ATOM     26  H   UNL     1      31.848 -22.073 -18.880  0.00  0.00    +0.166 HD
ATOM     27  H   UNL     1      37.289 -24.517 -13.799  0.00  0.00    +0.150 HD
ENDROOT
TORSDOF 0
ENDMDL
MODEL 4
REMARK VINA RESULT:     -11.8      2.048      6.521
REMARK  Name = 3815
REMARK  0 active torsions:
REMARK  status: ('A' for Active; 'I' for Inactive)
REMARK                            x       y       z     vdW  Elec       q    Type
REMARK                         _______ _______ _______ _____ _____    ______ ____
ROOT
ATOM      1  O   UNL     1      35.445 -24.823 -13.486  0.00  0.00    -0.270 OA
ATOM      2  N   UNL     1      32.743 -22.004 -18.755  0.00  0.00    -0.352 N 
ATOM      3  N   UNL     1      31.311 -23.344 -16.773  0.00  0.00    -0.352 N 
ATOM      4  N   UNL     1      37.013 -23.805 -14.905  0.00  0.00    -0.297 N 
ATOM      5  C   UNL     1      35.547 -23.037 -16.478  0.00  0.00    +0.003 A 
ATOM      6  C   UNL     1      34.793 -22.502 -17.522  0.00  0.00    +0.016 A 
ATOM      7  C   UNL     1      33.427 -23.784 -15.625  0.00  0.00    +0.022 A 
ATOM      8  C   UNL     1      33.373 -22.561 -17.695  0.00  0.00    +0.072 A 
ATOM      9  C   UNL     1      34.814 -23.704 -15.493  0.00  0.00    +0.053 A 
ATOM     10  C   UNL     1      32.656 -23.233 -16.702  0.00  0.00    +0.073 A 
ATOM     11  C   UNL     1      37.003 -23.065 -16.153  0.00  0.00    +0.117 C 
ATOM     12  C   UNL     1      35.044 -21.744 -18.752  0.00  0.00    +0.017 A 
ATOM     13  C   UNL     1      32.268 -24.341 -14.911  0.00  0.00    +0.017 A 
ATOM     14  C   UNL     1      33.821 -21.471 -19.449  0.00  0.00    +0.057 A 
ATOM     15  C   UNL     1      31.048 -24.062 -15.616  0.00  0.00    +0.057 A 
ATOM     16  C   UNL     1      35.744 -24.198 -14.485  0.00  0.00    +0.246 C 
ATOM     17  C   UNL     1      36.248 -21.268 -19.326  0.00  0.00    +0.001 C 
ATOM     18  C   UNL     1      32.160 -25.071 -13.702  0.00  0.00    +0.001 C 
ATOM     19  C   UNL     1      33.807 -20.756 -20.655  0.00  0.00    +0.017 C 
ATOM     20  C   UNL     1      29.802 -24.490 -15.135  0.00  0.00    +0.017 C 
ATOM     21  C   UNL     1      36.222 -20.556 -20.529  0.00  0.00    +0.000 C 
ATOM     22  C   UNL     1      30.913 -25.494 -13.232  0.00  0.00    +0.000 C 
ATOM     23  C   UNL     1      35.020 -20.307 -21.181  0.00  0.00    +0.001 C 
ATOM     24  C   UNL     1      29.752 -25.207 -13.939  0.00  0.00    +0.001 C 
ATOM     25  H   UNL     1      31.784 -21.983 -18.975  0.00  0.00    +0.166 HD
ATOM     26  H   UNL     1      30.689 -23.007 -17.457  0.00  0.00    +0.166 HD
ATOM     27  H   UNL     1      37.835 -24.009 -14.404  0.00  0.00    +0.150 HD
ENDROOT
TORSDOF 0
ENDMDL
MODEL 5
REMARK VINA RESULT:     -11.0      1.685      4.421
REMARK  Name = 3815
REMARK  0 active torsions:
REMARK  status: ('A' for Active; 'I' for Inactive)
REMARK                            x       y       z     vdW  Elec       q    Type
REMARK                         _______ _______ _______ _____ _____    ______ ____
ROOT
ATOM      1  O   UNL     1      32.712 -22.088 -18.504  0.00  0.00    -0.270 OA
ATOM      2  N   UNL     1      34.664 -25.309 -13.135  0.00  0.00    -0.352 N 
ATOM      3  N   UNL     1      32.001 -24.859 -13.825  0.00  0.00    -0.352 N 
ATOM      4  N   UNL     1      35.046 -22.239 -18.305  0.00  0.00    -0.297 N 
ATOM      5  C   UNL     1      35.110 -23.406 -16.344  0.00  0.00    +0.003 A 
ATOM      6  C   UNL     1      35.325 -24.114 -15.162  0.00  0.00    +0.016 A 
ATOM      7  C   UNL     1      32.779 -23.682 -15.825  0.00  0.00    +0.022 A 
ATOM      8  C   UNL     1      34.340 -24.634 -14.262  0.00  0.00    +0.072 A 
ATOM      9  C   UNL     1      33.769 -23.191 -16.676  0.00  0.00    +0.053 A 
ATOM     10  C   UNL     1      33.005 -24.408 -14.609  0.00  0.00    +0.073 A 
ATOM     11  C   UNL     1      36.005 -22.805 -17.375  0.00  0.00    +0.117 C 
ATOM     12  C   UNL     1      36.476 -24.590 -14.387  0.00  0.00    +0.017 A 
ATOM     13  C   UNL     1      31.312 -23.720 -15.724  0.00  0.00    +0.017 A 
ATOM     14  C   UNL     1      36.051 -25.285 -13.207  0.00  0.00    +0.057 A 
ATOM     15  C   UNL     1      30.896 -24.418 -14.539  0.00  0.00    +0.057 A 
ATOM     16  C   UNL     1      33.721 -22.445 -17.927  0.00  0.00    +0.246 C 
ATOM     17  C   UNL     1      37.867 -24.473 -14.616  0.00  0.00    +0.001 C 
ATOM     18  C   UNL     1      30.290 -23.207 -16.560  0.00  0.00    +0.001 C 
ATOM     19  C   UNL     1      36.974 -25.834 -12.306  0.00  0.00    +0.017 C 
ATOM     20  C   UNL     1      29.541 -24.588 -14.218  0.00  0.00    +0.017 C 
ATOM     21  C   UNL     1      38.780 -25.025 -13.710  0.00  0.00    +0.000 C 
ATOM     22  C   UNL     1      28.942 -23.381 -16.230  0.00  0.00    +0.000 C 
ATOM     23  C   UNL     1      38.338 -25.693 -12.575  0.00  0.00    +0.001 C 
ATOM     24  C   UNL     1      28.575 -24.062 -15.076  0.00  0.00    +0.001 C 
ATOM     25  H   UNL     1      34.079 -25.707 -12.451  0.00  0.00    +0.166 HD
ATOM     26  H   UNL     1      32.041 -25.363 -12.981  0.00  0.00    +0.166 HD
ATOM     27  H   UNL     1      35.306 -21.756 -19.123  0.00  0.00    +0.150 HD
ENDROOT
TORSDOF 0
ENDMDL
MODEL 6
REMARK VINA RESULT:     -10.5      2.021      6.440
REMARK  Name = 3815
REMARK  0 active torsions:
REMARK  status: ('A' for Active; 'I' for Inactive)
REMARK                            x       y       z     vdW  Elec       q    Type
REMARK                         _______ _______ _______ _____ _____    ______ ____
ROOT
ATOM      1  O   UNL     1      37.113 -22.767 -17.250  0.00  0.00    -0.270 OA
ATOM      2  N   UNL     1      31.969 -24.893 -13.782  0.00  0.00    -0.352 N 
ATOM      3  N   UNL     1      34.632 -25.302 -13.068  0.00  0.00    -0.352 N 
ATOM      4  N   UNL     1      35.046 -22.207 -18.211  0.00  0.00    -0.297 N 
ATOM      5  C   UNL     1      33.705 -23.166 -16.631  0.00  0.00    +0.003 A 
ATOM      6  C   UNL     1      32.751 -23.695 -15.763  0.00  0.00    +0.016 A 
ATOM      7  C   UNL     1      35.298 -24.085 -15.083  0.00  0.00    +0.022 A 
ATOM      8  C   UNL     1      32.978 -24.422 -14.551  0.00  0.00    +0.072 A 
ATOM      9  C   UNL     1      35.035 -23.380 -16.258  0.00  0.00    +0.053 A 
ATOM     10  C   UNL     1      34.313 -24.627 -14.194  0.00  0.00    +0.073 A 
ATOM     11  C   UNL     1      33.640 -22.399 -17.909  0.00  0.00    +0.117 C 
ATOM     12  C   UNL     1      31.288 -23.756 -15.682  0.00  0.00    +0.017 A 
ATOM     13  C   UNL     1      36.450 -24.551 -14.295  0.00  0.00    +0.017 A 
ATOM     14  C   UNL     1      30.866 -24.465 -14.509  0.00  0.00    +0.057 A 
ATOM     15  C   UNL     1      36.017 -25.260 -13.123  0.00  0.00    +0.057 A 
ATOM     16  C   UNL     1      35.897 -22.770 -17.263  0.00  0.00    +0.246 C 
ATOM     17  C   UNL     1      30.283 -23.249 -16.540  0.00  0.00    +0.001 C 
ATOM     18  C   UNL     1      37.847 -24.423 -14.491  0.00  0.00    +0.001 C 
ATOM     19  C   UNL     1      29.508 -24.653 -14.214  0.00  0.00    +0.017 C 
ATOM     20  C   UNL     1      36.932 -25.804 -12.209  0.00  0.00    +0.017 C 
ATOM     21  C   UNL     1      28.932 -23.442 -16.235  0.00  0.00    +0.000 C 
ATOM     22  C   UNL     1      38.750 -24.970 -13.573  0.00  0.00    +0.000 C 
ATOM     23  C   UNL     1      28.553 -24.134 -15.091  0.00  0.00    +0.001 C 
ATOM     24  C   UNL     1      38.297 -25.650 -12.450  0.00  0.00    +0.001 C 
ATOM     25  H   UNL     1      32.006 -25.400 -12.939  0.00  0.00    +0.166 HD
ATOM     26  H   UNL     1      34.045 -25.712 -12.393  0.00  0.00    +0.166 HD
ATOM     27  H   UNL     1      35.367 -21.725 -19.007  0.00  0.00    +0.150 HD
ENDROOT
TORSDOF 0
ENDMDL
MODEL 7
REMARK VINA RESULT:     -10.2      7.986     12.114
REMARK  Name = 3815
REMARK  0 active torsions:
REMARK  status: ('A' for Active; 'I' for Inactive)
REMARK                            x       y       z     vdW  Elec       q    Type
REMARK                         _______ _______ _______ _____ _____    ______ ____
ROOT
ATOM      1  O   UNL     1      34.606 -16.404 -25.910  0.00  0.00    -0.270 OA
ATOM      2  N   UNL     1      33.002 -14.083 -19.990  0.00  0.00    -0.352 N 
ATOM      3  N   UNL     1      34.442 -16.429 -20.429  0.00  0.00    -0.352 N 
ATOM      4  N   UNL     1      33.389 -14.399 -25.995  0.00  0.00    -0.297 N 
ATOM      5  C   UNL     1      33.135 -14.101 -23.745  0.00  0.00    +0.003 A 
ATOM      6  C   UNL     1      32.893 -13.772 -22.412  0.00  0.00    +0.016 A 
ATOM      7  C   UNL     1      34.269 -16.016 -22.834  0.00  0.00    +0.022 A 
ATOM      8  C   UNL     1      33.295 -14.497 -21.245  0.00  0.00    +0.072 A 
ATOM      9  C   UNL     1      33.859 -15.280 -23.947  0.00  0.00    +0.053 A 
ATOM     10  C   UNL     1      34.016 -15.673 -21.465  0.00  0.00    +0.073 A 
ATOM     11  C   UNL     1      32.793 -13.470 -25.052  0.00  0.00    +0.117 C 
ATOM     12  C   UNL     1      32.216 -12.700 -21.675  0.00  0.00    +0.017 A 
ATOM     13  C   UNL     1      35.007 -17.250 -22.522  0.00  0.00    +0.017 A 
ATOM     14  C   UNL     1      32.300 -12.915 -20.259  0.00  0.00    +0.057 A 
ATOM     15  C   UNL     1      35.086 -17.456 -21.103  0.00  0.00    +0.057 A 
ATOM     16  C   UNL     1      34.024 -15.476 -25.382  0.00  0.00    +0.246 C 
ATOM     17  C   UNL     1      31.529 -11.547 -22.125  0.00  0.00    +0.001 C 
ATOM     18  C   UNL     1      35.624 -18.220 -23.349  0.00  0.00    +0.001 C 
ATOM     19  C   UNL     1      31.726 -12.019 -19.346  0.00  0.00    +0.017 C 
ATOM     20  C   UNL     1      35.742 -18.567 -20.553  0.00  0.00    +0.017 C 
ATOM     21  C   UNL     1      30.961 -10.661 -21.205  0.00  0.00    +0.000 C 
ATOM     22  C   UNL     1      36.275 -19.325 -22.790  0.00  0.00    +0.000 C 
ATOM     23  C   UNL     1      31.059 -10.896 -19.838  0.00  0.00    +0.001 C 
ATOM     24  C   UNL     1      36.332 -19.494 -21.412  0.00  0.00    +0.001 C 
ATOM     25  H   UNL     1      33.224 -14.495 -19.124  0.00  0.00    +0.166 HD
ATOM     26  H   UNL     1      34.326 -16.290 -19.461  0.00  0.00    +0.166 HD
ATOM     27  H   UNL     1      33.348 -14.279 -26.971  0.00  0.00    +0.150 HD
ENDROOT
TORSDOF 0
ENDMDL
