MODEL 1
REMARK VINA RESULT:     -11.2      0.000      0.000
REMARK  Name = 6450813
REMARK  4 active torsions:
REMARK  status: ('A' for Active; 'I' for Inactive)
REMARK    1  A    between atoms: C_4  and  C_10
REMARK    2  A    between atoms: C_6  and  C_22
REMARK    3  A    between atoms: C_12  and  N_17
REMARK    4  A    between atoms: C_22  and  C_24
REMARK                            x       y       z     vdW  Elec       q    Type
REMARK                         _______ _______ _______ _____ _____    ______ ____
ROOT
ATOM      1  N   UNL     1      34.719 -16.190 -22.469  0.00  0.00    -0.191 N 
ATOM      2  N   UNL     1      34.815 -15.671 -21.212  0.00  0.00    -0.179 NA
ATOM      3  N   UNL     1      34.076 -15.510 -24.692  0.00  0.00    -0.231 NA
ATOM      4  C   UNL     1      35.009 -17.499 -22.888  0.00  0.00    +0.143 C 
ATOM      5  C   UNL     1      34.261 -15.226 -23.372  0.00  0.00    +0.141 C 
ATOM      6  C   UNL     1      34.075 -14.069 -22.650  0.00  0.00    +0.161 C 
ATOM      7  C   UNL     1      34.840 -17.823 -24.181  0.00  0.00    +0.020 C 
ATOM      8  C   UNL     1      34.429 -14.403 -21.338  0.00  0.00    +0.106 C 
ATOM      9  C   UNL     1      34.349 -16.726 -25.052  0.00  0.00    +0.097 C 
ENDROOT
BRANCH   4  10
ATOM     10  C   UNL     1      35.506 -18.522 -21.950  0.00  0.00    +0.003 C 
ATOM     11  C   UNL     1      34.608 -19.372 -21.302  0.00  0.00    +0.013 C 
ATOM     12  C   UNL     1      35.078 -20.340 -20.416  0.00  0.00    +0.054 C 
ATOM     13  C   UNL     1      36.874 -18.642 -21.709  0.00  0.00    -0.002 C 
ATOM     14  C   UNL     1      36.446 -20.459 -20.174  0.00  0.00    +0.015 C 
ATOM     15  C   UNL     1      37.345 -19.609 -20.821  0.00  0.00    +0.001 C 
BRANCH  12  17
ATOM     16  O   UNL     1      35.767 -22.455 -18.563  0.00  0.00    -0.275 OA
ATOM     17  N   UNL     1      34.180 -21.190 -19.767  0.00  0.00    -0.257 N 
ATOM     18  C   UNL     1      32.716 -20.983 -19.990  0.00  0.00    +0.120 C 
ATOM     19  C   UNL     1      34.590 -22.197 -18.827  0.00  0.00    +0.230 C 
ATOM     20  C   UNL     1      33.517 -22.964 -18.089  0.00  0.00    +0.095 C 
ENDBRANCH  12  17
ENDBRANCH   4  10
BRANCH   6  22
ATOM     21  O   UNL     1      34.000 -12.375 -24.269  0.00  0.00    -0.290 OA
ATOM     22  C   UNL     1      33.613 -12.817 -23.170  0.00  0.00    +0.191 C 
BRANCH  22  24
ATOM     23  S   UNL     1      32.617 -10.368 -22.577  0.00  0.00    -0.084 S 
ATOM     24  C   UNL     1      32.643 -12.040 -22.362  0.00  0.00    +0.065 C 
ATOM     25  C   UNL     1      31.768 -12.522 -21.464  0.00  0.00    +0.010 C 
ATOM     26  C   UNL     1      31.009 -11.459 -20.897  0.00  0.00    +0.008 C 
ATOM     27  C   UNL     1      31.368 -10.233 -21.412  0.00  0.00    +0.036 C 
ENDBRANCH  22  24
ENDBRANCH   6  22
TORSDOF 4
ENDMDL
MODEL 2
REMARK VINA RESULT:     -10.9      3.259      8.897
REMARK  Name = 6450813
REMARK  4 active torsions:
REMARK  status: ('A' for Active; 'I' for Inactive)
REMARK    1  A    between atoms: C_4  and  C_10
REMARK    2  A    between atoms: C_6  and  C_22
REMARK    3  A    between atoms: C_12  and  N_17
REMARK    4  A    between atoms: C_22  and  C_24
REMARK                            x       y       z     vdW  Elec       q    Type
REMARK                         _______ _______ _______ _____ _____    ______ ____
ROOT
ATOM      1  N   UNL     1      33.598 -14.723 -21.898  0.00  0.00    -0.191 N 
ATOM      2  N   UNL     1      33.825 -15.074 -20.601  0.00  0.00    -0.179 NA
ATOM      3  N   UNL     1      34.007 -15.556 -24.124  0.00  0.00    -0.231 NA
ATOM      4  C   UNL     1      32.960 -13.569 -22.382  0.00  0.00    +0.143 C 
ATOM      5  C   UNL     1      34.107 -15.689 -22.772  0.00  0.00    +0.141 C 
ATOM      6  C   UNL     1      34.660 -16.676 -21.987  0.00  0.00    +0.161 C 
ATOM      7  C   UNL     1      32.841 -13.397 -23.709  0.00  0.00    +0.020 C 
ATOM      8  C   UNL     1      34.458 -16.244 -20.672  0.00  0.00    +0.106 C 
ATOM      9  C   UNL     1      33.416 -14.481 -24.545  0.00  0.00    +0.097 C 
ENDROOT
BRANCH   4  10
ATOM     10  C   UNL     1      32.407 -12.549 -21.472  0.00  0.00    +0.003 C 
ATOM     11  C   UNL     1      32.366 -11.210 -21.866  0.00  0.00    +0.013 C 
ATOM     12  C   UNL     1      31.843 -10.245 -21.006  0.00  0.00    +0.054 C 
ATOM     13  C   UNL     1      31.924 -12.921 -20.218  0.00  0.00    -0.002 C 
ATOM     14  C   UNL     1      31.360 -10.618 -19.751  0.00  0.00    +0.015 C 
ATOM     15  C   UNL     1      31.400 -11.956 -19.357  0.00  0.00    +0.001 C 
BRANCH  12  17
ATOM     16  O   UNL     1      32.882  -7.998 -19.506  0.00  0.00    -0.275 OA
ATOM     17  N   UNL     1      31.802  -8.907 -21.398  0.00  0.00    -0.257 N 
ATOM     18  C   UNL     1      31.219  -8.573 -22.734  0.00  0.00    +0.120 C 
ATOM     19  C   UNL     1      32.373  -7.841 -20.619  0.00  0.00    +0.230 C 
ATOM     20  C   UNL     1      32.386  -6.451 -21.212  0.00  0.00    +0.095 C 
ENDBRANCH  12  17
ENDBRANCH   4  10
BRANCH   6  22
ATOM     21  O   UNL     1      35.696 -17.983 -23.634  0.00  0.00    -0.290 OA
ATOM     22  C   UNL     1      35.298 -17.868 -22.459  0.00  0.00    +0.191 C 
BRANCH  22  24
ATOM     23  S   UNL     1      37.024 -19.206 -20.855  0.00  0.00    -0.084 S 
ATOM     24  C   UNL     1      35.484 -18.986 -21.503  0.00  0.00    +0.065 C 
ATOM     25  C   UNL     1      34.550 -19.858 -21.086  0.00  0.00    +0.010 C 
ATOM     26  C   UNL     1      35.119 -20.785 -20.167  0.00  0.00    +0.008 C 
ATOM     27  C   UNL     1      36.457 -20.546 -19.951  0.00  0.00    +0.036 C 
ENDBRANCH  22  24
ENDBRANCH   6  22
TORSDOF 4
ENDMDL
MODEL 3
REMARK VINA RESULT:     -10.8      3.213      8.857
REMARK  Name = 6450813
REMARK  4 active torsions:
REMARK  status: ('A' for Active; 'I' for Inactive)
REMARK    1  A    between atoms: C_4  and  C_10
REMARK    2  A    between atoms: C_6  and  C_22
REMARK    3  A    between atoms: C_12  and  N_17
REMARK    4  A    between atoms: C_22  and  C_24
REMARK                            x       y       z     vdW  Elec       q    Type
REMARK                         _______ _______ _______ _____ _____    ______ ____
ROOT
ATOM      1  N   UNL     1      34.133 -15.521 -22.269  0.00  0.00    -0.191 N 
ATOM      2  N   UNL     1      34.221 -15.512 -20.910  0.00  0.00    -0.179 NA
ATOM      3  N   UNL     1      34.720 -16.928 -24.138  0.00  0.00    -0.231 NA
ATOM      4  C   UNL     1      33.590 -14.532 -23.107  0.00  0.00    +0.143 C 
ATOM      5  C   UNL     1      34.685 -16.692 -22.797  0.00  0.00    +0.141 C 
ATOM      6  C   UNL     1      35.121 -17.438 -21.725  0.00  0.00    +0.161 C 
ATOM      7  C   UNL     1      33.604 -14.724 -24.437  0.00  0.00    +0.020 C 
ATOM      8  C   UNL     1      34.812 -16.665 -20.600  0.00  0.00    +0.106 C 
ATOM      9  C   UNL     1      34.213 -15.999 -24.889  0.00  0.00    +0.097 C 
ENDROOT
BRANCH   4  10
ATOM     10  C   UNL     1      32.992 -13.298 -22.565  0.00  0.00    +0.003 C 
ATOM     11  C   UNL     1      33.358 -12.057 -23.087  0.00  0.00    +0.013 C 
ATOM     12  C   UNL     1      32.793 -10.889 -22.575  0.00  0.00    +0.054 C 
ATOM     13  C   UNL     1      32.061 -13.370 -21.529  0.00  0.00    -0.002 C 
ATOM     14  C   UNL     1      31.862 -10.962 -21.539  0.00  0.00    +0.015 C 
ATOM     15  C   UNL     1      31.496 -12.203 -21.015  0.00  0.00    +0.001 C 
BRANCH  12  17
ATOM     16  O   UNL     1      31.114  -8.534 -22.705  0.00  0.00    -0.275 OA
ATOM     17  N   UNL     1      33.158  -9.648 -23.097  0.00  0.00    -0.257 N 
ATOM     18  C   UNL     1      34.555  -9.469 -23.598  0.00  0.00    +0.120 C 
ATOM     19  C   UNL     1      32.284  -8.506 -23.095  0.00  0.00    +0.230 C 
ATOM     20  C   UNL     1      32.840  -7.181 -23.564  0.00  0.00    +0.095 C 
ENDBRANCH  12  17
ENDBRANCH   4  10
BRANCH   6  22
ATOM     21  O   UNL     1      36.720 -18.941 -22.550  0.00  0.00    -0.290 OA
ATOM     22  C   UNL     1      35.754 -18.720 -21.793  0.00  0.00    +0.191 C 
BRANCH  22  24
ATOM     23  S   UNL     1      36.358 -20.725 -20.073  0.00  0.00    -0.084 S 
ATOM     24  C   UNL     1      35.233 -19.803 -20.926  0.00  0.00    +0.065 C 
ATOM     25  C   UNL     1      33.946 -20.141 -20.737  0.00  0.00    +0.010 C 
ATOM     26  C   UNL     1      33.852 -21.235 -19.830  0.00  0.00    +0.008 C 
ATOM     27  C   UNL     1      35.089 -21.652 -19.391  0.00  0.00    +0.036 C 
ENDBRANCH  22  24
ENDBRANCH   6  22
TORSDOF 4
ENDMDL
MODEL 4
REMARK VINA RESULT:     -10.7      3.132      8.705
REMARK  Name = 6450813
REMARK  4 active torsions:
REMARK  status: ('A' for Active; 'I' for Inactive)
REMARK    1  A    between atoms: C_4  and  C_10
REMARK    2  A    between atoms: C_6  and  C_22
REMARK    3  A    between atoms: C_12  and  N_17
REMARK    4  A    between atoms: C_22  and  C_24
REMARK                            x       y       z     vdW  Elec       q    Type
REMARK                         _______ _______ _______ _____ _____    ______ ____
ROOT
ATOM      1  N   UNL     1      34.782 -16.456 -22.426  0.00  0.00    -0.191 N 
ATOM      2  N   UNL     1      35.196 -17.058 -23.576  0.00  0.00    -0.179 NA
ATOM      3  N   UNL     1      34.664 -16.903 -20.058  0.00  0.00    -0.231 NA
ATOM      4  C   UNL     1      34.195 -15.188 -22.276  0.00  0.00    +0.143 C 
ATOM      5  C   UNL     1      35.003 -17.285 -21.322  0.00  0.00    +0.141 C 
ATOM      6  C   UNL     1      35.583 -18.436 -21.805  0.00  0.00    +0.161 C 
ATOM      7  C   UNL     1      33.844 -14.772 -21.048  0.00  0.00    +0.020 C 
ATOM      8  C   UNL     1      35.674 -18.239 -23.188  0.00  0.00    +0.106 C 
ATOM      9  C   UNL     1      34.122 -15.730 -19.949  0.00  0.00    +0.097 C 
ENDROOT
BRANCH   4  10
ATOM     10  C   UNL     1      33.968 -14.298 -23.429  0.00  0.00    +0.003 C 
ATOM     11  C   UNL     1      34.246 -12.934 -23.325  0.00  0.00    +0.013 C 
ATOM     12  C   UNL     1      34.031 -12.092 -24.415  0.00  0.00    +0.054 C 
ATOM     13  C   UNL     1      33.476 -14.818 -24.626  0.00  0.00    -0.002 C 
ATOM     14  C   UNL     1      33.538 -12.613 -25.612  0.00  0.00    +0.015 C 
ATOM     15  C   UNL     1      33.260 -13.976 -25.717  0.00  0.00    +0.001 C 
BRANCH  12  17
ATOM     16  O   UNL     1      32.571 -10.174 -22.813  0.00  0.00    -0.275 OA
ATOM     17  N   UNL     1      34.308 -10.728 -24.311  0.00  0.00    -0.257 N 
ATOM     18  C   UNL     1      35.492 -10.184 -25.044  0.00  0.00    +0.120 C 
ATOM     19  C   UNL     1      33.563  -9.837 -23.464  0.00  0.00    +0.230 C 
ATOM     20  C   UNL     1      34.042  -8.410 -23.333  0.00  0.00    +0.095 C 
ENDBRANCH  12  17
ENDBRANCH   4  10
BRANCH   6  22
ATOM     21  O   UNL     1      37.185 -19.852 -20.844  0.00  0.00    -0.290 OA
ATOM     22  C   UNL     1      35.985 -19.568 -21.026  0.00  0.00    +0.191 C 
BRANCH  22  24
ATOM     23  S   UNL     1      35.419 -21.677 -19.421  0.00  0.00    -0.084 S 
ATOM     24  C   UNL     1      34.927 -20.413 -20.423  0.00  0.00    +0.065 C 
ATOM     25  C   UNL     1      33.599 -20.286 -20.585  0.00  0.00    +0.010 C 
ATOM     26  C   UNL     1      32.915 -21.289 -19.841  0.00  0.00    +0.008 C 
ATOM     27  C   UNL     1      33.783 -22.114 -19.162  0.00  0.00    +0.036 C 
ENDBRANCH  22  24
ENDBRANCH   6  22
TORSDOF 4
ENDMDL
MODEL 5
REMARK VINA RESULT:     -10.5      3.227      8.151
REMARK  Name = 6450813
REMARK  4 active torsions:
REMARK  status: ('A' for Active; 'I' for Inactive)
REMARK    1  A    between atoms: C_4  and  C_10
REMARK    2  A    between atoms: C_6  and  C_22
REMARK    3  A    between atoms: C_12  and  N_17
REMARK    4  A    between atoms: C_22  and  C_24
REMARK                            x       y       z     vdW  Elec       q    Type
REMARK                         _______ _______ _______ _____ _____    ______ ____
ROOT
ATOM      1  N   UNL     1      34.229 -14.641 -23.778  0.00  0.00    -0.191 N 
ATOM      2  N   UNL     1      34.677 -14.635 -22.491  0.00  0.00    -0.179 NA
ATOM      3  N   UNL     1      33.845 -16.196 -25.581  0.00  0.00    -0.231 NA
ATOM      4  C   UNL     1      33.804 -13.547 -24.551  0.00  0.00    +0.143 C 
ATOM      5  C   UNL     1      34.242 -15.936 -24.304  0.00  0.00    +0.141 C 
ATOM      6  C   UNL     1      34.706 -16.761 -23.304  0.00  0.00    +0.161 C 
ATOM      7  C   UNL     1      33.404 -13.758 -25.816  0.00  0.00    +0.020 C 
ATOM      8  C   UNL     1      34.955 -15.909 -22.223  0.00  0.00    +0.106 C 
ATOM      9  C   UNL     1      33.459 -15.169 -26.273  0.00  0.00    +0.097 C 
ENDROOT
BRANCH   4  10
ATOM     10  C   UNL     1      33.773 -12.178 -24.006  0.00  0.00    +0.003 C 
ATOM     11  C   UNL     1      32.938 -11.873 -22.929  0.00  0.00    +0.013 C 
ATOM     12  C   UNL     1      32.908 -10.578 -22.413  0.00  0.00    +0.054 C 
ATOM     13  C   UNL     1      34.577 -11.186 -24.565  0.00  0.00    -0.002 C 
ATOM     14  C   UNL     1      33.713  -9.586 -22.973  0.00  0.00    +0.015 C 
ATOM     15  C   UNL     1      34.548  -9.889 -24.050  0.00  0.00    +0.001 C 
BRANCH  12  17
ATOM     16  O   UNL     1      31.879 -12.457 -20.466  0.00  0.00    -0.275 OA
ATOM     17  N   UNL     1      32.074 -10.273 -21.337  0.00  0.00    -0.257 N 
ATOM     18  C   UNL     1      31.697  -8.843 -21.112  0.00  0.00    +0.120 C 
ATOM     19  C   UNL     1      31.629 -11.252 -20.384  0.00  0.00    +0.230 C 
ATOM     20  C   UNL     1      30.839 -10.776 -19.186  0.00  0.00    +0.095 C 
ENDBRANCH  12  17
ENDBRANCH   4  10
BRANCH   6  22
ATOM     21  O   UNL     1      34.489 -18.831 -24.383  0.00  0.00    -0.290 OA
ATOM     22  C   UNL     1      34.883 -18.179 -23.397  0.00  0.00    +0.191 C 
BRANCH  22  24
ATOM     23  S   UNL     1      34.623 -19.890 -21.311  0.00  0.00    -0.084 S 
ATOM     24  C   UNL     1      35.560 -18.873 -22.275  0.00  0.00    +0.065 C 
ATOM     25  C   UNL     1      36.857 -18.785 -21.934  0.00  0.00    +0.010 C 
ATOM     26  C   UNL     1      37.123 -19.603 -20.799  0.00  0.00    +0.008 C 
ATOM     27  C   UNL     1      35.997 -20.261 -20.358  0.00  0.00    +0.036 C 
ENDBRANCH  22  24
ENDBRANCH   6  22
TORSDOF 4
ENDMDL
MODEL 6
REMARK VINA RESULT:     -10.5      3.221      8.664
REMARK  Name = 6450813
REMARK  4 active torsions:
REMARK  status: ('A' for Active; 'I' for Inactive)
REMARK    1  A    between atoms: C_4  and  C_10
REMARK    2  A    between atoms: C_6  and  C_22
REMARK    3  A    between atoms: C_12  and  N_17
REMARK    4  A    between atoms: C_22  and  C_24
REMARK                            x       y       z     vdW  Elec       q    Type
REMARK                         _______ _______ _______ _____ _____    ______ ____
ROOT
ATOM      1  N   UNL     1      34.682 -20.103 -20.464  0.00  0.00    -0.191 N 
ATOM      2  N   UNL     1      33.325 -20.078 -20.586  0.00  0.00    -0.179 NA
ATOM      3  N   UNL     1      36.418 -21.498 -19.539  0.00  0.00    -0.231 NA
ATOM      4  C   UNL     1      35.607 -19.146 -20.914  0.00  0.00    +0.143 C 
ATOM      5  C   UNL     1      35.101 -21.253 -19.790  0.00  0.00    +0.141 C 
ATOM      6  C   UNL     1      33.964 -21.969 -19.491  0.00  0.00    +0.161 C 
ATOM      7  C   UNL     1      36.917 -19.348 -20.688  0.00  0.00    +0.020 C 
ATOM      8  C   UNL     1      32.911 -21.201 -20.002  0.00  0.00    +0.106 C 
ATOM      9  C   UNL     1      37.251 -20.599 -19.963  0.00  0.00    +0.097 C 
ENDROOT
BRANCH   4  10
ATOM     10  C   UNL     1      35.181 -17.934 -21.638  0.00  0.00    +0.003 C 
ATOM     11  C   UNL     1      34.393 -16.977 -20.997  0.00  0.00    +0.013 C 
ATOM     12  C   UNL     1      33.991 -15.832 -21.682  0.00  0.00    +0.054 C 
ATOM     13  C   UNL     1      35.567 -17.743 -22.965  0.00  0.00    -0.002 C 
ATOM     14  C   UNL     1      34.376 -15.641 -23.009  0.00  0.00    +0.015 C 
ATOM     15  C   UNL     1      35.164 -16.598 -23.651  0.00  0.00    +0.001 C 
BRANCH  12  17
ATOM     16  O   UNL     1      33.556 -13.110 -22.569  0.00  0.00    -0.275 OA
ATOM     17  N   UNL     1      33.202 -14.875 -21.042  0.00  0.00    -0.257 N 
ATOM     18  C   UNL     1      32.458 -15.275 -19.808  0.00  0.00    +0.120 C 
ATOM     19  C   UNL     1      32.999 -13.549 -21.560  0.00  0.00    +0.230 C 
ATOM     20  C   UNL     1      32.015 -12.648 -20.849  0.00  0.00    +0.095 C 
ENDBRANCH  12  17
ENDBRANCH   4  10
BRANCH   6  22
ATOM     21  O   UNL     1      33.850 -24.309 -19.410  0.00  0.00    -0.290 OA
ATOM     22  C   UNL     1      33.915 -23.223 -18.802  0.00  0.00    +0.191 C 
BRANCH  22  24
ATOM     23  S   UNL     1      32.479 -23.382 -16.509  0.00  0.00    -0.084 S 
ATOM     24  C   UNL     1      33.947 -23.208 -17.320  0.00  0.00    +0.065 C 
ATOM     25  C   UNL     1      35.028 -23.070 -16.535  0.00  0.00    +0.010 C 
ATOM     26  C   UNL     1      34.649 -23.106 -15.163  0.00  0.00    +0.008 C 
ATOM     27  C   UNL     1      33.291 -23.271 -15.005  0.00  0.00    +0.036 C 
ENDBRANCH  22  24
ENDBRANCH   6  22
TORSDOF 4
ENDMDL
MODEL 7
REMARK VINA RESULT:     -10.5      2.969      7.720
REMARK  Name = 6450813
REMARK  4 active torsions:
REMARK  status: ('A' for Active; 'I' for Inactive)
REMARK    1  A    between atoms: C_4  and  C_10
REMARK    2  A    between atoms: C_6  and  C_22
REMARK    3  A    between atoms: C_12  and  N_17
REMARK    4  A    between atoms: C_22  and  C_24
REMARK                            x       y       z     vdW  Elec       q    Type
REMARK                         _______ _______ _______ _____ _____    ______ ____
ROOT
ATOM      1  N   UNL     1      34.556 -16.049 -22.763  0.00  0.00    -0.191 N 
ATOM      2  N   UNL     1      34.752 -15.667 -21.470  0.00  0.00    -0.179 NA
ATOM      3  N   UNL     1      34.741 -18.017 -24.145  0.00  0.00    -0.231 NA
ATOM      4  C   UNL     1      34.127 -15.258 -23.842  0.00  0.00    +0.143 C 
ATOM      5  C   UNL     1      34.854 -17.404 -22.933  0.00  0.00    +0.141 C 
ATOM      6  C   UNL     1      35.239 -17.879 -21.700  0.00  0.00    +0.161 C 
ATOM      7  C   UNL     1      34.002 -15.822 -25.056  0.00  0.00    +0.020 C 
ATOM      8  C   UNL     1      35.158 -16.773 -20.847  0.00  0.00    +0.106 C 
ATOM      9  C   UNL     1      34.345 -17.264 -25.124  0.00  0.00    +0.097 C 
ENDROOT
BRANCH   4  10
ATOM     10  C   UNL     1      33.797 -13.831 -23.675  0.00  0.00    +0.003 C 
ATOM     11  C   UNL     1      33.019 -13.415 -22.594  0.00  0.00    +0.013 C 
ATOM     12  C   UNL     1      32.707 -12.066 -22.435  0.00  0.00    +0.054 C 
ATOM     13  C   UNL     1      34.262 -12.895 -24.598  0.00  0.00    -0.002 C 
ATOM     14  C   UNL     1      33.173 -11.130 -23.359  0.00  0.00    +0.015 C 
ATOM     15  C   UNL     1      33.951 -11.544 -24.441  0.00  0.00    +0.001 C 
BRANCH  12  17
ATOM     16  O   UNL     1      32.430 -13.442 -19.904  0.00  0.00    -0.275 OA
ATOM     17  N   UNL     1      31.929 -11.649 -21.355  0.00  0.00    -0.257 N 
ATOM     18  C   UNL     1      31.196 -10.351 -21.463  0.00  0.00    +0.120 C 
ATOM     19  C   UNL     1      31.866 -12.364 -20.109  0.00  0.00    +0.230 C 
ATOM     20  C   UNL     1      31.095 -11.742 -18.967  0.00  0.00    +0.095 C 
ENDBRANCH  12  17
ENDBRANCH   4  10
BRANCH   6  22
ATOM     21  O   UNL     1      36.744 -19.676 -21.740  0.00  0.00    -0.290 OA
ATOM     22  C   UNL     1      35.634 -19.222 -21.400  0.00  0.00    +0.191 C 
BRANCH  22  24
ATOM     23  S   UNL     1      35.322 -21.336 -19.733  0.00  0.00    -0.084 S 
ATOM     24  C   UNL     1      34.680 -20.083 -20.660  0.00  0.00    +0.065 C 
ATOM     25  C   UNL     1      33.341 -19.976 -20.641  0.00  0.00    +0.010 C 
ATOM     26  C   UNL     1      32.778 -20.988 -19.812  0.00  0.00    +0.008 C 
ATOM     27  C   UNL     1      33.743 -21.798 -19.256  0.00  0.00    +0.036 C 
ENDBRANCH  22  24
ENDBRANCH   6  22
TORSDOF 4
ENDMDL
MODEL 8
REMARK VINA RESULT:     -10.4      4.789     10.226
REMARK  Name = 6450813
REMARK  4 active torsions:
REMARK  status: ('A' for Active; 'I' for Inactive)
REMARK    1  A    between atoms: C_4  and  C_10
REMARK    2  A    between atoms: C_6  and  C_22
REMARK    3  A    between atoms: C_12  and  N_17
REMARK    4  A    between atoms: C_22  and  C_24
REMARK                            x       y       z     vdW  Elec       q    Type
REMARK                         _______ _______ _______ _____ _____    ______ ____
ROOT
ATOM      1  N   UNL     1      35.626 -21.891 -18.132  0.00  0.00    -0.191 N 
ATOM      2  N   UNL     1      36.889 -21.627 -17.693  0.00  0.00    -0.179 NA
ATOM      3  N   UNL     1      33.683 -23.163 -17.481  0.00  0.00    -0.231 NA
ATOM      4  C   UNL     1      35.002 -21.423 -19.301  0.00  0.00    +0.143 C 
ATOM      5  C   UNL     1      34.960 -22.747 -17.251  0.00  0.00    +0.141 C 
ATOM      6  C   UNL     1      35.839 -23.014 -16.224  0.00  0.00    +0.161 C 
ATOM      7  C   UNL     1      33.743 -21.808 -19.567  0.00  0.00    +0.020 C 
ATOM      8  C   UNL     1      36.999 -22.303 -16.550  0.00  0.00    +0.106 C 
ATOM      9  C   UNL     1      33.131 -22.717 -18.567  0.00  0.00    +0.097 C 
ENDROOT
BRANCH   4  10
ATOM     10  C   UNL     1      35.687 -20.509 -20.233  0.00  0.00    +0.003 C 
ATOM     11  C   UNL     1      34.996 -19.973 -21.321  0.00  0.00    +0.013 C 
ATOM     12  C   UNL     1      35.643 -19.108 -22.203  0.00  0.00    +0.054 C 
ATOM     13  C   UNL     1      37.026 -20.179 -20.029  0.00  0.00    -0.002 C 
ATOM     14  C   UNL     1      36.983 -18.779 -21.998  0.00  0.00    +0.015 C 
ATOM     15  C   UNL     1      37.675 -19.315 -20.911  0.00  0.00    +0.001 C 
BRANCH  12  17
ATOM     16  O   UNL     1      35.498 -16.307 -22.918  0.00  0.00    -0.275 OA
ATOM     17  N   UNL     1      34.953 -18.573 -23.291  0.00  0.00    -0.257 N 
ATOM     18  C   UNL     1      34.253 -19.510 -24.222  0.00  0.00    +0.120 C 
ATOM     19  C   UNL     1      34.954 -17.171 -23.611  0.00  0.00    +0.230 C 
ATOM     20  C   UNL     1      34.282 -16.730 -24.890  0.00  0.00    +0.095 C 
ENDBRANCH  12  17
ENDBRANCH   4  10
BRANCH   6  22
ATOM     21  O   UNL     1      34.651 -23.612 -14.294  0.00  0.00    -0.290 OA
ATOM     22  C   UNL     1      35.580 -23.849 -15.090  0.00  0.00    +0.191 C 
BRANCH  22  24
ATOM     23  S   UNL     1      38.022 -24.744 -14.329  0.00  0.00    -0.084 S 
ATOM     24  C   UNL     1      36.453 -25.028 -14.877  0.00  0.00    +0.065 C 
ATOM     25  C   UNL     1      36.133 -26.318 -15.071  0.00  0.00    +0.010 C 
ATOM     26  C   UNL     1      37.241 -27.154 -14.755  0.00  0.00    +0.008 C 
ATOM     27  C   UNL     1      38.335 -26.428 -14.338  0.00  0.00    +0.036 C 
ENDBRANCH  22  24
ENDBRANCH   6  22
TORSDOF 4
ENDMDL
MODEL 9
REMARK VINA RESULT:     -10.4      3.381      5.847
REMARK  Name = 6450813
REMARK  4 active torsions:
REMARK  status: ('A' for Active; 'I' for Inactive)
REMARK    1  A    between atoms: C_4  and  C_10
REMARK    2  A    between atoms: C_6  and  C_22
REMARK    3  A    between atoms: C_12  and  N_17
REMARK    4  A    between atoms: C_22  and  C_24
REMARK                            x       y       z     vdW  Elec       q    Type
REMARK                         _______ _______ _______ _____ _____    ______ ____
ROOT
ATOM      1  N   UNL     1      35.467 -20.752 -19.662  0.00  0.00    -0.191 N 
ATOM      2  N   UNL     1      36.762 -20.330 -19.645  0.00  0.00    -0.179 NA
ATOM      3  N   UNL     1      33.448 -20.433 -20.942  0.00  0.00    -0.231 NA
ATOM      4  C   UNL     1      34.835 -21.639 -18.774  0.00  0.00    +0.143 C 
ATOM      5  C   UNL     1      34.767 -20.169 -20.722  0.00  0.00    +0.141 C 
ATOM      6  C   UNL     1      35.663 -19.364 -21.389  0.00  0.00    +0.161 C 
ATOM      7  C   UNL     1      33.535 -21.927 -18.954  0.00  0.00    +0.020 C 
ATOM      8  C   UNL     1      36.864 -19.503 -20.684  0.00  0.00    +0.106 C 
ATOM      9  C   UNL     1      32.888 -21.253 -20.108  0.00  0.00    +0.097 C 
ENDROOT
BRANCH   4  10
ATOM     10  C   UNL     1      35.564 -22.272 -17.660  0.00  0.00    +0.003 C 
ATOM     11  C   UNL     1      34.885 -23.089 -16.755  0.00  0.00    +0.013 C 
ATOM     12  C   UNL     1      35.574 -23.688 -15.701  0.00  0.00    +0.054 C 
ATOM     13  C   UNL     1      36.934 -22.056 -17.510  0.00  0.00    -0.002 C 
ATOM     14  C   UNL     1      36.944 -23.471 -15.551  0.00  0.00    +0.015 C 
ATOM     15  C   UNL     1      37.624 -22.654 -16.456  0.00  0.00    +0.001 C 
BRANCH  12  17
ATOM     16  O   UNL     1      32.951 -23.182 -14.585  0.00  0.00    -0.275 OA
ATOM     17  N   UNL     1      34.895 -24.504 -14.795  0.00  0.00    -0.257 N 
ATOM     18  C   UNL     1      35.533 -25.791 -14.380  0.00  0.00    +0.120 C 
ATOM     19  C   UNL     1      33.575 -24.210 -14.309  0.00  0.00    +0.230 C 
ATOM     20  C   UNL     1      32.890 -25.238 -13.437  0.00  0.00    +0.095 C 
ENDBRANCH  12  17
ENDBRANCH   4  10
BRANCH   6  22
ATOM     21  O   UNL     1      35.435 -19.042 -23.700  0.00  0.00    -0.290 OA
ATOM     22  C   UNL     1      35.382 -18.571 -22.547  0.00  0.00    +0.191 C 
BRANCH  22  24
ATOM     23  S   UNL     1      34.939 -16.166 -23.717  0.00  0.00    -0.084 S 
ATOM     24  C   UNL     1      35.017 -17.148 -22.348  0.00  0.00    +0.065 C 
ATOM     25  C   UNL     1      34.734 -16.540 -21.183  0.00  0.00    +0.010 C 
ATOM     26  C   UNL     1      34.429 -15.167 -21.406  0.00  0.00    +0.008 C 
ATOM     27  C   UNL     1      34.504 -14.829 -22.739  0.00  0.00    +0.036 C 
ENDBRANCH  22  24
ENDBRANCH   6  22
TORSDOF 4
ENDMDL
