MODEL 1
REMARK VINA RESULT:     -11.5      0.000      0.000
REMARK  Name = 6918151
REMARK  4 active torsions:
REMARK  status: ('A' for Active; 'I' for Inactive)
REMARK    1  A    between atoms: C_2  and  C_11
REMARK    2  A    between atoms: C_7  and  C_18
REMARK    3  A    between atoms: C_11  and  C_12
REMARK    4  A    between atoms: C_18  and  C_23
REMARK                            x       y       z     vdW  Elec       q    Type
REMARK                         _______ _______ _______ _____ _____    ______ ____
ROOT
ATOM      1  O   UNL     1      35.971 -20.218 -20.342  0.00  0.00    -0.479 OA
ATOM      2  C   UNL     1      35.143 -19.239 -20.987  0.00  0.00    +0.171 C 
ATOM      3  C   UNL     1      33.922 -19.885 -21.639  0.00  0.00    +0.049 C 
ATOM      4  C   UNL     1      33.061 -20.528 -20.558  0.00  0.00    +0.033 C 
ATOM      5  C   UNL     1      33.915 -21.312 -19.603  0.00  0.00    +0.012 C 
ATOM      6  C   UNL     1      35.300 -21.107 -19.541  0.00  0.00    +0.134 C 
ATOM      7  C   UNL     1      34.107 -22.980 -17.850  0.00  0.00    -0.021 C 
ATOM      8  C   UNL     1      33.323 -22.244 -18.741  0.00  0.00    -0.006 C 
ATOM      9  C   UNL     1      36.084 -21.853 -18.658  0.00  0.00    +0.036 C 
ATOM     10  C   UNL     1      35.486 -22.787 -17.811  0.00  0.00    -0.001 C 
ENDROOT
BRANCH   2  11
ATOM     11  C   UNL     1      36.005 -18.537 -22.030  0.00  0.00    +0.070 C 
BRANCH  11  12
ATOM     12  C   UNL     1      35.297 -17.353 -22.632  0.00  0.00    -0.019 C 
ATOM     13  C   UNL     1      34.898 -16.305 -21.811  0.00  0.00    -0.004 C 
ATOM     14  C   UNL     1      35.053 -17.323 -23.998  0.00  0.00    -0.004 C 
ATOM     15  C   UNL     1      34.242 -15.208 -22.369  0.00  0.00    -0.000 C 
ATOM     16  C   UNL     1      34.398 -16.225 -24.555  0.00  0.00    -0.000 C 
ATOM     17  C   UNL     1      33.992 -15.168 -23.741  0.00  0.00    -0.000 C 
ENDBRANCH  11  12
ENDBRANCH   2  11
BRANCH   7  18
ATOM     18  C   UNL     1      33.467 -23.974 -16.941  0.00  0.00    +0.047 C 
BRANCH  18  23
ATOM     19  S   UNL     1      33.328 -24.192 -14.193  0.00  0.00    -0.048 S 
ATOM     20  O   UNL     1      30.662 -22.923 -16.679  0.00  0.00    -0.274 OA
ATOM     21  O   UNL     1      31.386 -25.082 -12.661  0.00  0.00    -0.263 OA
ATOM     22  N   UNL     1      30.820 -24.008 -14.642  0.00  0.00    -0.246 N 
ATOM     23  C   UNL     1      32.842 -23.318 -15.712  0.00  0.00    +0.137 C 
ATOM     24  C   UNL     1      31.332 -23.380 -15.759  0.00  0.00    +0.239 C 
ATOM     25  C   UNL     1      31.679 -24.504 -13.696  0.00  0.00    +0.279 C 
ATOM     26  H   UNL     1      29.846 -24.099 -14.527  0.00  0.00    +0.158 HD
ENDBRANCH  18  23
ENDBRANCH   7  18
TORSDOF 4
ENDMDL
MODEL 2
REMARK VINA RESULT:     -11.2      1.009      1.031
REMARK  Name = 6918151
REMARK  4 active torsions:
REMARK  status: ('A' for Active; 'I' for Inactive)
REMARK    1  A    between atoms: C_2  and  C_11
REMARK    2  A    between atoms: C_7  and  C_18
REMARK    3  A    between atoms: C_11  and  C_12
REMARK    4  A    between atoms: C_18  and  C_23
REMARK                            x       y       z     vdW  Elec       q    Type
REMARK                         _______ _______ _______ _____ _____    ______ ____
ROOT
ATOM      1  O   UNL     1      36.064 -20.143 -20.518  0.00  0.00    -0.479 OA
ATOM      2  C   UNL     1      35.182 -19.207 -21.156  0.00  0.00    +0.171 C 
ATOM      3  C   UNL     1      33.937 -19.901 -21.705  0.00  0.00    +0.049 C 
ATOM      4  C   UNL     1      33.153 -20.508 -20.546  0.00  0.00    +0.033 C 
ATOM      5  C   UNL     1      34.075 -21.234 -19.611  0.00  0.00    +0.012 C 
ATOM      6  C   UNL     1      35.457 -21.005 -19.640  0.00  0.00    +0.134 C 
ATOM      7  C   UNL     1      34.400 -22.817 -17.800  0.00  0.00    -0.021 C 
ATOM      8  C   UNL     1      33.553 -22.136 -18.674  0.00  0.00    -0.006 C 
ATOM      9  C   UNL     1      36.306 -21.698 -18.773  0.00  0.00    +0.036 C 
ATOM     10  C   UNL     1      35.776 -22.601 -17.852  0.00  0.00    -0.001 C 
ENDROOT
BRANCH   2  11
ATOM     11  C   UNL     1      35.968 -18.539 -22.278  0.00  0.00    +0.070 C 
BRANCH  11  12
ATOM     12  C   UNL     1      35.247 -17.337 -22.824  0.00  0.00    -0.019 C 
ATOM     13  C   UNL     1      34.901 -16.299 -21.968  0.00  0.00    -0.004 C 
ATOM     14  C   UNL     1      34.936 -17.280 -24.176  0.00  0.00    -0.004 C 
ATOM     15  C   UNL     1      34.233 -15.184 -22.473  0.00  0.00    -0.000 C 
ATOM     16  C   UNL     1      34.269 -16.164 -24.681  0.00  0.00    -0.000 C 
ATOM     17  C   UNL     1      33.917 -15.117 -23.830  0.00  0.00    -0.000 C 
ENDBRANCH  11  12
ENDBRANCH   2  11
BRANCH   7  18
ATOM     18  C   UNL     1      33.834 -23.779 -16.812  0.00  0.00    +0.047 C 
BRANCH  18  23
ATOM     19  S   UNL     1      35.005 -23.965 -14.319  0.00  0.00    -0.048 S 
ATOM     20  O   UNL     1      31.356 -23.114 -15.244  0.00  0.00    -0.274 OA
ATOM     21  O   UNL     1      34.119 -25.082 -12.110  0.00  0.00    -0.263 OA
ATOM     22  N   UNL     1      32.572 -24.130 -13.559  0.00  0.00    -0.246 N 
ATOM     23  C   UNL     1      33.767 -23.192 -15.404  0.00  0.00    +0.137 C 
ATOM     24  C   UNL     1      32.427 -23.459 -14.756  0.00  0.00    +0.239 C 
ATOM     25  C   UNL     1      33.826 -24.488 -13.136  0.00  0.00    +0.279 C 
ATOM     26  H   UNL     1      31.782 -24.350 -13.014  0.00  0.00    +0.158 HD
ENDBRANCH  18  23
ENDBRANCH   7  18
TORSDOF 4
ENDMDL
MODEL 3
REMARK VINA RESULT:     -10.6      5.952     10.089
REMARK  Name = 6918151
REMARK  4 active torsions:
REMARK  status: ('A' for Active; 'I' for Inactive)
REMARK    1  A    between atoms: C_2  and  C_11
REMARK    2  A    between atoms: C_7  and  C_18
REMARK    3  A    between atoms: C_11  and  C_12
REMARK    4  A    between atoms: C_18  and  C_23
REMARK                            x       y       z     vdW  Elec       q    Type
REMARK                         _______ _______ _______ _____ _____    ______ ____
ROOT
ATOM      1  O   UNL     1      35.358 -17.499 -20.727  0.00  0.00    -0.479 OA
ATOM      2  C   UNL     1      36.234 -18.134 -21.670  0.00  0.00    +0.171 C 
ATOM      3  C   UNL     1      35.515 -18.431 -22.985  0.00  0.00    +0.049 C 
ATOM      4  C   UNL     1      35.080 -17.117 -23.623  0.00  0.00    +0.033 C 
ATOM      5  C   UNL     1      34.447 -16.220 -22.599  0.00  0.00    +0.012 C 
ATOM      6  C   UNL     1      34.629 -16.450 -21.229  0.00  0.00    +0.134 C 
ATOM      7  C   UNL     1      33.090 -14.279 -22.068  0.00  0.00    -0.021 C 
ATOM      8  C   UNL     1      33.684 -15.119 -23.010  0.00  0.00    -0.006 C 
ATOM      9  C   UNL     1      34.023 -15.616 -20.286  0.00  0.00    +0.036 C 
ATOM     10  C   UNL     1      33.257 -14.529 -20.707  0.00  0.00    -0.001 C 
ENDROOT
BRANCH   2  11
ATOM     11  C   UNL     1      36.734 -19.422 -21.024  0.00  0.00    +0.070 C 
BRANCH  11  12
ATOM     12  C   UNL     1      35.603 -20.233 -20.452  0.00  0.00    -0.019 C 
ATOM     13  C   UNL     1      35.884 -21.284 -19.589  0.00  0.00    -0.004 C 
ATOM     14  C   UNL     1      34.294 -19.919 -20.793  0.00  0.00    -0.004 C 
ATOM     15  C   UNL     1      34.836 -22.036 -19.058  0.00  0.00    -0.000 C 
ATOM     16  C   UNL     1      33.247 -20.671 -20.261  0.00  0.00    -0.000 C 
ATOM     17  C   UNL     1      33.517 -21.729 -19.394  0.00  0.00    -0.000 C 
ENDBRANCH  11  12
ENDBRANCH   2  11
BRANCH   7  18
ATOM     18  C   UNL     1      32.275 -13.114 -22.517  0.00  0.00    +0.047 C 
BRANCH  18  23
ATOM     19  S   UNL     1      31.579 -10.756 -21.262  0.00  0.00    -0.048 S 
ATOM     20  O   UNL     1      34.237 -11.376 -23.991  0.00  0.00    -0.274 OA
ATOM     21  O   UNL     1      31.206  -8.352 -22.260  0.00  0.00    -0.263 OA
ATOM     22  N   UNL     1      32.789  -9.726 -23.263  0.00  0.00    -0.246 N 
ATOM     23  C   UNL     1      32.858 -11.783 -22.047  0.00  0.00    +0.137 C 
ATOM     24  C   UNL     1      33.385 -10.970 -23.208  0.00  0.00    +0.239 C 
ATOM     25  C   UNL     1      31.824  -9.402 -22.344  0.00  0.00    +0.279 C 
ATOM     26  H   UNL     1      33.053  -9.079 -23.955  0.00  0.00    +0.158 HD
ENDBRANCH  18  23
ENDBRANCH   7  18
TORSDOF 4
ENDMDL
MODEL 4
REMARK VINA RESULT:     -10.5      6.124     10.709
REMARK  Name = 6918151
REMARK  4 active torsions:
REMARK  status: ('A' for Active; 'I' for Inactive)
REMARK    1  A    between atoms: C_2  and  C_11
REMARK    2  A    between atoms: C_7  and  C_18
REMARK    3  A    between atoms: C_11  and  C_12
REMARK    4  A    between atoms: C_18  and  C_23
REMARK                            x       y       z     vdW  Elec       q    Type
REMARK                         _______ _______ _______ _____ _____    ______ ____
ROOT
ATOM      1  O   UNL     1      34.928 -17.785 -23.279  0.00  0.00    -0.479 OA
ATOM      2  C   UNL     1      34.758 -18.278 -21.942  0.00  0.00    +0.171 C 
ATOM      3  C   UNL     1      35.332 -17.305 -20.913  0.00  0.00    +0.049 C 
ATOM      4  C   UNL     1      34.563 -15.991 -20.986  0.00  0.00    +0.033 C 
ATOM      5  C   UNL     1      34.385 -15.565 -22.415  0.00  0.00    +0.012 C 
ATOM      6  C   UNL     1      34.563 -16.476 -23.465  0.00  0.00    +0.134 C 
ATOM      7  C   UNL     1      33.842 -13.840 -24.034  0.00  0.00    -0.021 C 
ATOM      8  C   UNL     1      34.010 -14.248 -22.710  0.00  0.00    -0.006 C 
ATOM      9  C   UNL     1      34.407 -16.063 -24.790  0.00  0.00    +0.036 C 
ATOM     10  C   UNL     1      34.044 -14.746 -25.073  0.00  0.00    -0.001 C 
ENDROOT
BRANCH   2  11
ATOM     11  C   UNL     1      35.465 -19.626 -21.864  0.00  0.00    +0.070 C 
BRANCH  11  12
ATOM     12  C   UNL     1      34.906 -20.486 -20.763  0.00  0.00    -0.019 C 
ATOM     13  C   UNL     1      35.768 -21.252 -19.989  0.00  0.00    -0.004 C 
ATOM     14  C   UNL     1      33.536 -20.502 -20.536  0.00  0.00    -0.004 C 
ATOM     15  C   UNL     1      35.250 -22.049 -18.969  0.00  0.00    -0.000 C 
ATOM     16  C   UNL     1      33.019 -21.299 -19.515  0.00  0.00    -0.000 C 
ATOM     17  C   UNL     1      33.875 -22.073 -18.732  0.00  0.00    -0.000 C 
ENDBRANCH  11  12
ENDBRANCH   2  11
BRANCH   7  18
ATOM     18  C   UNL     1      33.449 -12.434 -24.336  0.00  0.00    +0.047 C 
BRANCH  18  23
ATOM     19  S   UNL     1      32.220 -11.055 -22.285  0.00  0.00    -0.048 S 
ATOM     20  O   UNL     1      35.338 -10.095 -24.348  0.00  0.00    -0.274 OA
ATOM     21  O   UNL     1      31.655  -8.497 -22.064  0.00  0.00    -0.263 OA
ATOM     22  N   UNL     1      33.563  -9.104 -23.243  0.00  0.00    -0.246 N 
ATOM     23  C   UNL     1      33.745 -11.486 -23.177  0.00  0.00    +0.137 C 
ATOM     24  C   UNL     1      34.322 -10.177 -23.666  0.00  0.00    +0.239 C 
ATOM     25  C   UNL     1      32.429  -9.332 -22.508  0.00  0.00    +0.279 C 
ATOM     26  H   UNL     1      33.834  -8.185 -23.468  0.00  0.00    +0.158 HD
ENDBRANCH  18  23
ENDBRANCH   7  18
TORSDOF 4
ENDMDL
MODEL 5
REMARK VINA RESULT:     -10.4      4.330      9.536
REMARK  Name = 6918151
REMARK  4 active torsions:
REMARK  status: ('A' for Active; 'I' for Inactive)
REMARK    1  A    between atoms: C_2  and  C_11
REMARK    2  A    between atoms: C_7  and  C_18
REMARK    3  A    between atoms: C_11  and  C_12
REMARK    4  A    between atoms: C_18  and  C_23
REMARK                            x       y       z     vdW  Elec       q    Type
REMARK                         _______ _______ _______ _____ _____    ______ ____
ROOT
ATOM      1  O   UNL     1      35.495 -23.328 -15.156  0.00  0.00    -0.479 OA
ATOM      2  C   UNL     1      34.425 -24.238 -14.862  0.00  0.00    +0.171 C 
ATOM      3  C   UNL     1      33.094 -23.726 -15.410  0.00  0.00    +0.049 C 
ATOM      4  C   UNL     1      33.180 -23.642 -16.929  0.00  0.00    +0.033 C 
ATOM      5  C   UNL     1      34.469 -22.998 -17.348  0.00  0.00    +0.012 C 
ATOM      6  C   UNL     1      35.543 -22.890 -16.455  0.00  0.00    +0.134 C 
ATOM      7  C   UNL     1      35.813 -21.918 -19.057  0.00  0.00    -0.021 C 
ATOM      8  C   UNL     1      34.619 -22.519 -18.656  0.00  0.00    -0.006 C 
ATOM      9  C   UNL     1      36.733 -22.276 -16.853  0.00  0.00    +0.036 C 
ATOM     10  C   UNL     1      36.868 -21.793 -18.155  0.00  0.00    -0.001 C 
ENDROOT
BRANCH   2  11
ATOM     11  C   UNL     1      34.364 -24.388 -13.346  0.00  0.00    +0.070 C 
BRANCH  11  12
ATOM     12  C   UNL     1      35.734 -24.562 -12.748  0.00  0.00    -0.019 C 
ATOM     13  C   UNL     1      36.251 -23.570 -11.924  0.00  0.00    -0.004 C 
ATOM     14  C   UNL     1      36.462 -25.710 -13.028  0.00  0.00    -0.004 C 
ATOM     15  C   UNL     1      37.521 -23.731 -11.370  0.00  0.00    -0.000 C 
ATOM     16  C   UNL     1      37.732 -25.871 -12.472  0.00  0.00    -0.000 C 
ATOM     17  C   UNL     1      38.261 -24.881 -11.645  0.00  0.00    -0.000 C 
ENDBRANCH  11  12
ENDBRANCH   2  11
BRANCH   7  18
ATOM     18  C   UNL     1      35.959 -21.407 -20.450  0.00  0.00    +0.047 C 
BRANCH  18  23
ATOM     19  S   UNL     1      34.387 -19.710 -21.956  0.00  0.00    -0.048 S 
ATOM     20  O   UNL     1      37.739 -18.999 -20.180  0.00  0.00    -0.274 OA
ATOM     21  O   UNL     1      35.066 -17.964 -23.801  0.00  0.00    -0.263 OA
ATOM     22  N   UNL     1      36.542 -18.339 -22.045  0.00  0.00    -0.246 N 
ATOM     23  C   UNL     1      35.549 -19.942 -20.576  0.00  0.00    +0.137 C 
ATOM     24  C   UNL     1      36.737 -19.059 -20.884  0.00  0.00    +0.239 C 
ATOM     25  C   UNL     1      35.386 -18.519 -22.761  0.00  0.00    +0.279 C 
ATOM     26  H   UNL     1      37.225 -17.703 -22.357  0.00  0.00    +0.158 HD
ENDBRANCH  18  23
ENDBRANCH   7  18
TORSDOF 4
ENDMDL
MODEL 6
REMARK VINA RESULT:     -10.4      3.044      3.347
REMARK  Name = 6918151
REMARK  4 active torsions:
REMARK  status: ('A' for Active; 'I' for Inactive)
REMARK    1  A    between atoms: C_2  and  C_11
REMARK    2  A    between atoms: C_7  and  C_18
REMARK    3  A    between atoms: C_11  and  C_12
REMARK    4  A    between atoms: C_18  and  C_23
REMARK                            x       y       z     vdW  Elec       q    Type
REMARK                         _______ _______ _______ _____ _____    ______ ____
ROOT
ATOM      1  O   UNL     1      36.323 -20.633 -19.926  0.00  0.00    -0.479 OA
ATOM      2  C   UNL     1      35.186 -20.013 -20.545  0.00  0.00    +0.171 C 
ATOM      3  C   UNL     1      34.058 -21.019 -20.768  0.00  0.00    +0.049 C 
ATOM      4  C   UNL     1      33.579 -21.539 -19.418  0.00  0.00    +0.033 C 
ATOM      5  C   UNL     1      34.749 -21.894 -18.547  0.00  0.00    +0.012 C 
ATOM      6  C   UNL     1      36.035 -21.418 -18.839  0.00  0.00    +0.134 C 
ATOM      7  C   UNL     1      35.639 -23.028 -16.594  0.00  0.00    -0.021 C 
ATOM      8  C   UNL     1      34.558 -22.691 -17.410  0.00  0.00    -0.006 C 
ATOM      9  C   UNL     1      37.117 -21.767 -18.028  0.00  0.00    +0.036 C 
ATOM     10  C   UNL     1      36.917 -22.570 -16.905  0.00  0.00    -0.001 C 
ENDROOT
BRANCH   2  11
ATOM     11  C   UNL     1      35.658 -19.427 -21.871  0.00  0.00    +0.070 C 
BRANCH  11  12
ATOM     12  C   UNL     1      35.224 -17.995 -22.033  0.00  0.00    -0.019 C 
ATOM     13  C   UNL     1      34.914 -17.243 -20.907  0.00  0.00    -0.004 C 
ATOM     14  C   UNL     1      35.140 -17.445 -23.304  0.00  0.00    -0.004 C 
ATOM     15  C   UNL     1      34.512 -15.916 -21.056  0.00  0.00    -0.000 C 
ATOM     16  C   UNL     1      34.739 -16.117 -23.453  0.00  0.00    -0.000 C 
ATOM     17  C   UNL     1      34.424 -15.353 -22.330  0.00  0.00    -0.000 C 
ENDBRANCH  11  12
ENDBRANCH   2  11
BRANCH   7  18
ATOM     18  C   UNL     1      35.425 -23.882 -15.390  0.00  0.00    +0.047 C 
BRANCH  18  23
ATOM     19  S   UNL     1      36.452 -26.302 -14.551  0.00  0.00    -0.048 S 
ATOM     20  O   UNL     1      37.436 -22.728 -13.477  0.00  0.00    -0.274 OA
ATOM     21  O   UNL     1      37.073 -27.132 -12.135  0.00  0.00    -0.263 OA
ATOM     22  N   UNL     1      37.337 -24.876 -12.625  0.00  0.00    -0.246 N 
ATOM     23  C   UNL     1      36.716 -24.538 -14.908  0.00  0.00    +0.137 C 
ATOM     24  C   UNL     1      37.199 -23.924 -13.613  0.00  0.00    +0.239 C 
ATOM     25  C   UNL     1      37.009 -26.179 -12.896  0.00  0.00    +0.279 C 
ATOM     26  H   UNL     1      37.668 -24.622 -11.733  0.00  0.00    +0.158 HD
ENDBRANCH  18  23
ENDBRANCH   7  18
TORSDOF 4
ENDMDL
MODEL 7
REMARK VINA RESULT:     -10.1      9.907     14.359
REMARK  Name = 6918151
REMARK  4 active torsions:
REMARK  status: ('A' for Active; 'I' for Inactive)
REMARK    1  A    between atoms: C_2  and  C_11
REMARK    2  A    between atoms: C_7  and  C_18
REMARK    3  A    between atoms: C_11  and  C_12
REMARK    4  A    between atoms: C_18  and  C_23
REMARK                            x       y       z     vdW  Elec       q    Type
REMARK                         _______ _______ _______ _____ _____    ______ ____
ROOT
ATOM      1  O   UNL     1      32.678 -11.799 -23.040  0.00  0.00    -0.479 OA
ATOM      2  C   UNL     1      33.924 -12.361 -23.479  0.00  0.00    +0.171 C 
ATOM      3  C   UNL     1      34.532 -11.543 -24.617  0.00  0.00    +0.049 C 
ATOM      4  C   UNL     1      34.848 -10.141 -24.110  0.00  0.00    +0.033 C 
ATOM      5  C   UNL     1      33.696  -9.596 -23.318  0.00  0.00    +0.012 C 
ATOM      6  C   UNL     1      32.696 -10.445 -22.824  0.00  0.00    +0.134 C 
ATOM      7  C   UNL     1      32.557  -7.706 -22.306  0.00  0.00    -0.021 C 
ATOM      8  C   UNL     1      33.625  -8.224 -23.041  0.00  0.00    -0.006 C 
ATOM      9  C   UNL     1      31.622  -9.923 -22.099  0.00  0.00    +0.036 C 
ATOM     10  C   UNL     1      31.555  -8.554 -21.839  0.00  0.00    -0.001 C 
ENDROOT
BRANCH   2  11
ATOM     11  C   UNL     1      33.641 -13.789 -23.930  0.00  0.00    +0.070 C 
BRANCH  11  12
ATOM     12  C   UNL     1      34.036 -14.793 -22.881  0.00  0.00    -0.019 C 
ATOM     13  C   UNL     1      33.654 -14.589 -21.561  0.00  0.00    -0.004 C 
ATOM     14  C   UNL     1      34.777 -15.909 -23.246  0.00  0.00    -0.004 C 
ATOM     15  C   UNL     1      34.020 -15.519 -20.588  0.00  0.00    -0.000 C 
ATOM     16  C   UNL     1      35.142 -16.839 -22.272  0.00  0.00    -0.000 C 
ATOM     17  C   UNL     1      34.765 -16.644 -20.944  0.00  0.00    -0.000 C 
ENDBRANCH  11  12
ENDBRANCH   2  11
BRANCH   7  18
ATOM     18  C   UNL     1      32.488  -6.244 -22.023  0.00  0.00    +0.047 C 
BRANCH  18  23
ATOM     19  S   UNL     1      31.905  -4.241 -23.830  0.00  0.00    -0.048 S 
ATOM     20  O   UNL     1      29.828  -5.505 -20.833  0.00  0.00    -0.274 OA
ATOM     21  O   UNL     1      30.899  -1.844 -23.436  0.00  0.00    -0.263 OA
ATOM     22  N   UNL     1      30.226  -3.565 -22.027  0.00  0.00    -0.246 N 
ATOM     23  C   UNL     1      31.319  -5.569 -22.735  0.00  0.00    +0.137 C 
ATOM     24  C   UNL     1      30.379  -4.908 -21.751  0.00  0.00    +0.239 C 
ATOM     25  C   UNL     1      30.923  -3.009 -23.068  0.00  0.00    +0.279 C 
ATOM     26  H   UNL     1      29.622  -3.012 -21.481  0.00  0.00    +0.158 HD
ENDBRANCH  18  23
ENDBRANCH   7  18
TORSDOF 4
ENDMDL
MODEL 8
REMARK VINA RESULT:     -10.1      4.236      9.262
REMARK  Name = 6918151
REMARK  4 active torsions:
REMARK  status: ('A' for Active; 'I' for Inactive)
REMARK    1  A    between atoms: C_2  and  C_11
REMARK    2  A    between atoms: C_7  and  C_18
REMARK    3  A    between atoms: C_11  and  C_12
REMARK    4  A    between atoms: C_18  and  C_23
REMARK                            x       y       z     vdW  Elec       q    Type
REMARK                         _______ _______ _______ _____ _____    ______ ____
ROOT
ATOM      1  O   UNL     1      35.453 -23.162 -16.395  0.00  0.00    -0.479 OA
ATOM      2  C   UNL     1      34.492 -24.070 -15.836  0.00  0.00    +0.171 C 
ATOM      3  C   UNL     1      33.104 -23.436 -15.762  0.00  0.00    +0.049 C 
ATOM      4  C   UNL     1      32.625 -23.120 -17.174  0.00  0.00    +0.033 C 
ATOM      5  C   UNL     1      33.718 -22.462 -17.966  0.00  0.00    +0.012 C 
ATOM      6  C   UNL     1      35.052 -22.529 -17.544  0.00  0.00    +0.134 C 
ATOM      7  C   UNL     1      34.418 -21.176 -19.901  0.00  0.00    -0.021 C 
ATOM      8  C   UNL     1      33.411 -21.792 -19.157  0.00  0.00    -0.006 C 
ATOM      9  C   UNL     1      36.058 -21.901 -18.283  0.00  0.00    +0.036 C 
ATOM     10  C   UNL     1      35.740 -21.227 -19.462  0.00  0.00    -0.001 C 
ENDROOT
BRANCH   2  11
ATOM     11  C   UNL     1      34.987 -24.451 -14.445  0.00  0.00    +0.070 C 
BRANCH  11  12
ATOM     12  C   UNL     1      36.316 -25.155 -14.501  0.00  0.00    -0.019 C 
ATOM     13  C   UNL     1      37.486 -24.418 -14.375  0.00  0.00    -0.004 C 
ATOM     14  C   UNL     1      36.354 -26.532 -14.677  0.00  0.00    -0.004 C 
ATOM     15  C   UNL     1      38.718 -25.071 -14.427  0.00  0.00    -0.000 C 
ATOM     16  C   UNL     1      37.586 -27.184 -14.728  0.00  0.00    -0.000 C 
ATOM     17  C   UNL     1      38.768 -26.454 -14.603  0.00  0.00    -0.000 C 
ENDBRANCH  11  12
ENDBRANCH   2  11
BRANCH   7  18
ATOM     18  C   UNL     1      34.080 -20.460 -21.165  0.00  0.00    +0.047 C 
BRANCH  18  23
ATOM     19  S   UNL     1      35.260 -17.969 -21.019  0.00  0.00    -0.048 S 
ATOM     20  O   UNL     1      35.099 -20.424 -23.993  0.00  0.00    -0.274 OA
ATOM     21  O   UNL     1      35.238 -15.981 -22.739  0.00  0.00    -0.263 OA
ATOM     22  N   UNL     1      35.176 -18.152 -23.566  0.00  0.00    -0.246 N 
ATOM     23  C   UNL     1      35.256 -19.652 -21.707  0.00  0.00    +0.137 C 
ATOM     24  C   UNL     1      35.167 -19.484 -23.207  0.00  0.00    +0.239 C 
ATOM     25  C   UNL     1      35.225 -17.193 -22.587  0.00  0.00    +0.279 C 
ATOM     26  H   UNL     1      35.147 -17.893 -24.515  0.00  0.00    +0.158 HD
ENDBRANCH  18  23
ENDBRANCH   7  18
TORSDOF 4
ENDMDL
MODEL 9
REMARK VINA RESULT:     -10.1      4.039      9.018
REMARK  Name = 6918151
REMARK  4 active torsions:
REMARK  status: ('A' for Active; 'I' for Inactive)
REMARK    1  A    between atoms: C_2  and  C_11
REMARK    2  A    between atoms: C_7  and  C_18
REMARK    3  A    between atoms: C_11  and  C_12
REMARK    4  A    between atoms: C_18  and  C_23
REMARK                            x       y       z     vdW  Elec       q    Type
REMARK                         _______ _______ _______ _____ _____    ______ ____
ROOT
ATOM      1  O   UNL     1      35.126 -22.637 -18.178  0.00  0.00    -0.479 OA
ATOM      2  C   UNL     1      33.818 -23.227 -18.130  0.00  0.00    +0.171 C 
ATOM      3  C   UNL     1      32.726 -22.159 -18.147  0.00  0.00    +0.049 C 
ATOM      4  C   UNL     1      32.801 -21.390 -19.461  0.00  0.00    +0.033 C 
ATOM      5  C   UNL     1      34.222 -21.025 -19.775  0.00  0.00    +0.012 C 
ATOM      6  C   UNL     1      35.290 -21.667 -19.135  0.00  0.00    +0.134 C 
ATOM      7  C   UNL     1      35.813 -19.697 -21.040  0.00  0.00    -0.021 C 
ATOM      8  C   UNL     1      34.495 -20.046 -20.741  0.00  0.00    -0.006 C 
ATOM      9  C   UNL     1      36.608 -21.308 -19.427  0.00  0.00    +0.036 C 
ATOM     10  C   UNL     1      36.868 -20.325 -20.382  0.00  0.00    -0.001 C 
ENDROOT
BRANCH   2  11
ATOM     11  C   UNL     1      33.744 -24.056 -16.853  0.00  0.00    +0.070 C 
BRANCH  11  12
ATOM     12  C   UNL     1      32.535 -23.702 -16.029  0.00  0.00    -0.019 C 
ATOM     13  C   UNL     1      31.266 -23.890 -16.561  0.00  0.00    -0.004 C 
ATOM     14  C   UNL     1      32.705 -23.194 -14.749  0.00  0.00    -0.004 C 
ATOM     15  C   UNL     1      30.146 -23.562 -15.798  0.00  0.00    -0.000 C 
ATOM     16  C   UNL     1      31.584 -22.867 -13.986  0.00  0.00    -0.000 C 
ATOM     17  C   UNL     1      30.305 -23.051 -14.510  0.00  0.00    -0.000 C 
ENDBRANCH  11  12
ENDBRANCH   2  11
BRANCH   7  18
ATOM     18  C   UNL     1      36.092 -18.651 -22.065  0.00  0.00    +0.047 C 
BRANCH  18  23
ATOM     19  S   UNL     1      34.679 -18.255 -24.404  0.00  0.00    -0.048 S 
ATOM     20  O   UNL     1      34.926 -15.990 -21.288  0.00  0.00    -0.274 OA
ATOM     21  O   UNL     1      34.413 -16.094 -25.877  0.00  0.00    -0.263 OA
ATOM     22  N   UNL     1      34.647 -15.837 -23.579  0.00  0.00    -0.246 N 
ATOM     23  C   UNL     1      34.814 -18.014 -22.606  0.00  0.00    +0.137 C 
ATOM     24  C   UNL     1      34.807 -16.517 -22.389  0.00  0.00    +0.239 C 
ATOM     25  C   UNL     1      34.554 -16.544 -24.750  0.00  0.00    +0.279 C 
ATOM     26  H   UNL     1      34.600 -14.854 -23.587  0.00  0.00    +0.158 HD
ENDBRANCH  18  23
ENDBRANCH   7  18
TORSDOF 4
ENDMDL
