MODEL 1
REMARK VINA RESULT:     -12.6      0.000      0.000
REMARK  Name = 25145656
REMARK  4 active torsions:
REMARK  status: ('A' for Active; 'I' for Inactive)
REMARK    1  A    between atoms: C_5  and  C_22
REMARK    2  A    between atoms: C_8  and  C_11
REMARK    3  A    between atoms: C_14  and  C_19
REMARK    4  A    between atoms: C_22  and  C_24
REMARK                            x       y       z     vdW  Elec       q    Type
REMARK                         _______ _______ _______ _____ _____    ______ ____
ROOT
ATOM      1  N   UNL     1      34.353 -15.915 -23.777  0.00  0.00    -0.134 N 
ATOM      2  N   UNL     1      34.127 -14.737 -23.155  0.00  0.00    -0.168 NA
ATOM      3  N   UNL     1      34.381 -17.472 -25.358  0.00  0.00    -0.178 NA
ATOM      4  N   UNL     1      33.327 -15.346 -25.839  0.00  0.00    -0.200 NA
ATOM      5  C   UNL     1      34.992 -16.998 -23.235  0.00  0.00    +0.086 C 
ATOM      6  C   UNL     1      33.993 -16.242 -25.070  0.00  0.00    +0.114 C 
ATOM      7  C   UNL     1      34.997 -17.944 -24.229  0.00  0.00    +0.124 C 
ATOM      8  C   UNL     1      33.510 -13.857 -23.884  0.00  0.00    +0.103 C 
ATOM      9  C   UNL     1      33.080 -14.202 -25.289  0.00  0.00    +0.184 C 
ENDROOT
BRANCH   8  11
ATOM     10  F   UNL     1      31.179 -10.986 -20.741  0.00  0.00    -0.204 F 
ATOM     11  C   UNL     1      33.215 -12.513 -23.336  0.00  0.00    +0.019 C 
ATOM     12  C   UNL     1      32.319 -12.374 -22.276  0.00  0.00    +0.031 C 
ATOM     13  C   UNL     1      33.833 -11.387 -23.881  0.00  0.00    +0.002 C 
ATOM     14  C   UNL     1      32.658  -9.982 -22.304  0.00  0.00    +0.081 C 
ATOM     15  C   UNL     1      32.041 -11.108 -21.761  0.00  0.00    +0.144 C 
ATOM     16  C   UNL     1      33.554 -10.121 -23.365  0.00  0.00    +0.007 C 
BRANCH  14  19
ATOM     17  O   UNL     1      33.043  -8.201 -20.828  0.00  0.00    -0.270 OA
ATOM     18  N   UNL     1      31.336  -7.940 -22.375  0.00  0.00    -0.299 N 
ATOM     19  C   UNL     1      32.372  -8.660 -21.769  0.00  0.00    +0.248 C 
ATOM     20  C   UNL     1      30.948  -6.607 -21.973  0.00  0.00    +0.111 C 
ATOM     21  H   UNL     1      30.844  -8.364 -23.115  0.00  0.00    +0.150 HD
ENDBRANCH  14  19
ENDBRANCH   8  11
BRANCH   5  22
ATOM     22  C   UNL     1      35.537 -17.023 -21.821  0.00  0.00    +0.068 C 
BRANCH  22  24
ATOM     23  N   UNL     1      35.727 -22.187 -19.515  0.00  0.00    -0.248 NA
ATOM     24  C   UNL     1      35.577 -18.384 -21.212  0.00  0.00    -0.038 C 
ATOM     25  C   UNL     1      34.395 -19.025 -20.853  0.00  0.00    +0.050 C 
ATOM     26  C   UNL     1      34.428 -20.307 -20.280  0.00  0.00    -0.004 C 
ATOM     27  C   UNL     1      36.794 -19.020 -21.001  0.00  0.00    -0.028 C 
ATOM     28  C   UNL     1      35.660 -20.959 -20.062  0.00  0.00    +0.060 C 
ATOM     29  C   UNL     1      36.827 -20.295 -20.431  0.00  0.00    +0.071 C 
ATOM     30  C   UNL     1      33.254 -20.976 -19.909  0.00  0.00    -0.001 C 
ATOM     31  C   UNL     1      33.320 -22.242 -19.345  0.00  0.00    +0.020 C 
ATOM     32  C   UNL     1      34.570 -22.799 -19.171  0.00  0.00    +0.098 C 
ENDBRANCH  22  24
ENDBRANCH   5  22
TORSDOF 4
ENDMDL
MODEL 2
REMARK VINA RESULT:     -11.9      4.134     10.158
REMARK  Name = 25145656
REMARK  4 active torsions:
REMARK  status: ('A' for Active; 'I' for Inactive)
REMARK    1  A    between atoms: C_5  and  C_22
REMARK    2  A    between atoms: C_8  and  C_11
REMARK    3  A    between atoms: C_14  and  C_19
REMARK    4  A    between atoms: C_22  and  C_24
REMARK                            x       y       z     vdW  Elec       q    Type
REMARK                         _______ _______ _______ _____ _____    ______ ____
ROOT
ATOM      1  N   UNL     1      34.667 -17.188 -22.390  0.00  0.00    -0.134 N 
ATOM      2  N   UNL     1      34.554 -18.032 -21.342  0.00  0.00    -0.168 NA
ATOM      3  N   UNL     1      34.916 -16.464 -24.472  0.00  0.00    -0.178 NA
ATOM      4  N   UNL     1      34.993 -18.847 -24.054  0.00  0.00    -0.200 NA
ATOM      5  C   UNL     1      34.591 -15.822 -22.330  0.00  0.00    +0.086 C 
ATOM      6  C   UNL     1      34.867 -17.542 -23.710  0.00  0.00    +0.114 C 
ATOM      7  C   UNL     1      34.747 -15.400 -23.626  0.00  0.00    +0.124 C 
ATOM      8  C   UNL     1      34.649 -19.290 -21.655  0.00  0.00    +0.103 C 
ATOM      9  C   UNL     1      34.898 -19.698 -23.086  0.00  0.00    +0.184 C 
ENDROOT
BRANCH   8  11
ATOM     10  F   UNL     1      36.655 -22.472 -18.589  0.00  0.00    -0.204 F 
ATOM     11  C   UNL     1      34.523 -20.329 -20.607  0.00  0.00    +0.019 C 
ATOM     12  C   UNL     1      35.667 -20.926 -20.078  0.00  0.00    +0.031 C 
ATOM     13  C   UNL     1      33.262 -20.709 -20.149  0.00  0.00    +0.002 C 
ATOM     14  C   UNL     1      34.288 -22.286 -18.633  0.00  0.00    +0.081 C 
ATOM     15  C   UNL     1      35.549 -21.905 -19.091  0.00  0.00    +0.144 C 
ATOM     16  C   UNL     1      33.144 -21.688 -19.162  0.00  0.00    +0.007 C 
BRANCH  14  19
ATOM     17  O   UNL     1      33.371 -24.255 -17.749  0.00  0.00    -0.270 OA
ATOM     18  N   UNL     1      34.976 -23.172 -16.474  0.00  0.00    -0.299 N 
ATOM     19  C   UNL     1      34.160 -23.305 -17.604  0.00  0.00    +0.248 C 
ATOM     20  C   UNL     1      34.982 -24.114 -15.378  0.00  0.00    +0.111 C 
ATOM     21  H   UNL     1      35.578 -22.395 -16.422  0.00  0.00    +0.150 HD
ENDBRANCH  14  19
ENDBRANCH   8  11
BRANCH   5  22
ATOM     22  C   UNL     1      34.376 -15.054 -21.041  0.00  0.00    +0.068 C 
BRANCH  22  24
ATOM     23  N   UNL     1      31.097 -10.476 -21.593  0.00  0.00    -0.248 NA
ATOM     24  C   UNL     1      33.518 -13.844 -21.194  0.00  0.00    -0.038 C 
ATOM     25  C   UNL     1      33.841 -12.872 -22.136  0.00  0.00    +0.050 C 
ATOM     26  C   UNL     1      33.035 -11.730 -22.284  0.00  0.00    -0.004 C 
ATOM     27  C   UNL     1      32.391 -13.681 -20.398  0.00  0.00    -0.028 C 
ATOM     28  C   UNL     1      31.890 -11.557 -21.478  0.00  0.00    +0.060 C 
ATOM     29  C   UNL     1      31.591 -12.546 -20.544  0.00  0.00    +0.071 C 
ATOM     30  C   UNL     1      33.336 -10.736 -23.224  0.00  0.00    -0.001 C 
ATOM     31  C   UNL     1      32.520  -9.620 -23.345  0.00  0.00    +0.020 C 
ATOM     32  C   UNL     1      31.423  -9.539 -22.514  0.00  0.00    +0.098 C 
ENDBRANCH  22  24
ENDBRANCH   5  22
TORSDOF 4
ENDMDL
MODEL 3
REMARK VINA RESULT:     -11.6      4.158      9.876
REMARK  Name = 25145656
REMARK  4 active torsions:
REMARK  status: ('A' for Active; 'I' for Inactive)
REMARK    1  A    between atoms: C_5  and  C_22
REMARK    2  A    between atoms: C_8  and  C_11
REMARK    3  A    between atoms: C_14  and  C_19
REMARK    4  A    between atoms: C_22  and  C_24
REMARK                            x       y       z     vdW  Elec       q    Type
REMARK                         _______ _______ _______ _____ _____    ______ ____
ROOT
ATOM      1  N   UNL     1      34.782 -17.614 -22.810  0.00  0.00    -0.134 N 
ATOM      2  N   UNL     1      34.771 -18.335 -21.667  0.00  0.00    -0.168 NA
ATOM      3  N   UNL     1      34.723 -17.129 -24.974  0.00  0.00    -0.178 NA
ATOM      4  N   UNL     1      34.612 -19.451 -24.301  0.00  0.00    -0.200 NA
ATOM      5  C   UNL     1      34.869 -16.251 -22.896  0.00  0.00    +0.086 C 
ATOM      6  C   UNL     1      34.696 -18.114 -24.095  0.00  0.00    +0.114 C 
ATOM      7  C   UNL     1      34.831 -15.976 -24.240  0.00  0.00    +0.124 C 
ATOM      8  C   UNL     1      34.668 -19.617 -21.843  0.00  0.00    +0.103 C 
ATOM      9  C   UNL     1      34.603 -20.188 -23.239  0.00  0.00    +0.184 C 
ENDROOT
BRANCH   8  11
ATOM     10  F   UNL     1      36.914 -22.303 -18.483  0.00  0.00    -0.204 F 
ATOM     11  C   UNL     1      34.623 -20.528 -20.676  0.00  0.00    +0.019 C 
ATOM     12  C   UNL     1      35.809 -20.999 -20.114  0.00  0.00    +0.031 C 
ATOM     13  C   UNL     1      33.395 -20.914 -20.139  0.00  0.00    +0.002 C 
ATOM     14  C   UNL     1      34.540 -22.243 -18.478  0.00  0.00    +0.081 C 
ATOM     15  C   UNL     1      35.767 -21.857 -19.015  0.00  0.00    +0.144 C 
ATOM     16  C   UNL     1      33.354 -21.772 -19.040  0.00  0.00    +0.007 C 
BRANCH  14  19
ATOM     17  O   UNL     1      33.556 -23.945 -17.199  0.00  0.00    -0.270 OA
ATOM     18  N   UNL     1      35.548 -23.052 -16.416  0.00  0.00    -0.299 N 
ATOM     19  C   UNL     1      34.492 -23.136 -17.331  0.00  0.00    +0.248 C 
ATOM     20  C   UNL     1      35.655 -23.887 -15.241  0.00  0.00    +0.111 C 
ATOM     21  H   UNL     1      36.256 -22.389 -16.581  0.00  0.00    +0.150 HD
ENDBRANCH  14  19
ENDBRANCH   8  11
BRANCH   5  22
ATOM     22  C   UNL     1      34.981 -15.344 -21.688  0.00  0.00    +0.068 C 
BRANCH  22  24
ATOM     23  N   UNL     1      31.521 -10.870 -21.878  0.00  0.00    -0.248 NA
ATOM     24  C   UNL     1      34.066 -14.167 -21.728  0.00  0.00    -0.038 C 
ATOM     25  C   UNL     1      33.249 -13.877 -20.639  0.00  0.00    +0.050 C 
ATOM     26  C   UNL     1      32.386 -12.770 -20.673  0.00  0.00    -0.004 C 
ATOM     27  C   UNL     1      34.023 -13.353 -22.854  0.00  0.00    -0.028 C 
ATOM     28  C   UNL     1      32.336 -11.939 -21.812  0.00  0.00    +0.060 C 
ATOM     29  C   UNL     1      33.164 -12.252 -22.887  0.00  0.00    +0.071 C 
ATOM     30  C   UNL     1      31.554 -12.454 -19.590  0.00  0.00    -0.001 C 
ATOM     31  C   UNL     1      30.711 -11.353 -19.655  0.00  0.00    +0.020 C 
ATOM     32  C   UNL     1      30.733 -10.600 -20.811  0.00  0.00    +0.098 C 
ENDBRANCH  22  24
ENDBRANCH   5  22
TORSDOF 4
ENDMDL
MODEL 4
REMARK VINA RESULT:     -11.4      3.627      7.237
REMARK  Name = 25145656
REMARK  4 active torsions:
REMARK  status: ('A' for Active; 'I' for Inactive)
REMARK    1  A    between atoms: C_5  and  C_22
REMARK    2  A    between atoms: C_8  and  C_11
REMARK    3  A    between atoms: C_14  and  C_19
REMARK    4  A    between atoms: C_22  and  C_24
REMARK                            x       y       z     vdW  Elec       q    Type
REMARK                         _______ _______ _______ _____ _____    ______ ____
ROOT
ATOM      1  N   UNL     1      32.091  -9.416 -20.714  0.00  0.00    -0.134 N 
ATOM      2  N   UNL     1      32.236  -8.719 -21.862  0.00  0.00    -0.168 NA
ATOM      3  N   UNL     1      32.060  -9.889 -18.546  0.00  0.00    -0.178 NA
ATOM      4  N   UNL     1      32.733  -7.670 -19.242  0.00  0.00    -0.200 NA
ATOM      5  C   UNL     1      31.689 -10.721 -20.614  0.00  0.00    +0.086 C 
ATOM      6  C   UNL     1      32.310  -8.943 -19.435  0.00  0.00    +0.114 C 
ATOM      7  C   UNL     1      31.677 -10.988 -19.268  0.00  0.00    +0.124 C 
ATOM      8  C   UNL     1      32.620  -7.489 -21.697  0.00  0.00    +0.103 C 
ATOM      9  C   UNL     1      32.894  -6.960 -20.310  0.00  0.00    +0.184 C 
ENDROOT
BRANCH   8  11
ATOM     10  F   UNL     1      31.257  -3.668 -24.360  0.00  0.00    -0.204 F 
ATOM     11  C   UNL     1      32.799  -6.602 -22.869  0.00  0.00    +0.019 C 
ATOM     12  C   UNL     1      31.930  -5.531 -23.072  0.00  0.00    +0.031 C 
ATOM     13  C   UNL     1      33.839  -6.837 -23.769  0.00  0.00    +0.002 C 
ATOM     14  C   UNL     1      33.137  -4.930 -25.076  0.00  0.00    +0.081 C 
ATOM     15  C   UNL     1      32.099  -4.695 -24.175  0.00  0.00    +0.144 C 
ATOM     16  C   UNL     1      34.007  -6.001 -24.873  0.00  0.00    +0.007 C 
BRANCH  14  19
ATOM     17  O   UNL     1      33.234  -2.825 -26.106  0.00  0.00    -0.270 OA
ATOM     18  N   UNL     1      33.608  -4.677 -27.450  0.00  0.00    -0.299 N 
ATOM     19  C   UNL     1      33.318  -4.060 -26.228  0.00  0.00    +0.248 C 
ATOM     20  C   UNL     1      33.838  -3.949 -28.678  0.00  0.00    +0.111 C 
ATOM     21  H   UNL     1      33.659  -5.660 -27.476  0.00  0.00    +0.150 HD
ENDBRANCH  14  19
ENDBRANCH   8  11
BRANCH   5  22
ATOM     22  C   UNL     1      31.354 -11.585 -21.814  0.00  0.00    +0.068 C 
BRANCH  22  24
ATOM     23  N   UNL     1      35.191 -15.597 -22.910  0.00  0.00    -0.248 NA
ATOM     24  C   UNL     1      32.362 -12.647 -22.094  0.00  0.00    -0.038 C 
ATOM     25  C   UNL     1      32.517 -13.715 -21.215  0.00  0.00    +0.050 C 
ATOM     26  C   UNL     1      33.465 -14.718 -21.475  0.00  0.00    -0.004 C 
ATOM     27  C   UNL     1      33.153 -12.577 -23.234  0.00  0.00    -0.028 C 
ATOM     28  C   UNL     1      34.273 -14.654 -22.631  0.00  0.00    +0.060 C 
ATOM     29  C   UNL     1      34.096 -13.575 -23.493  0.00  0.00    +0.071 C 
ATOM     30  C   UNL     1      33.641 -15.804 -20.608  0.00  0.00    -0.001 C 
ATOM     31  C   UNL     1      34.588 -16.779 -20.893  0.00  0.00    +0.020 C 
ATOM     32  C   UNL     1      35.329 -16.630 -22.046  0.00  0.00    +0.098 C 
ENDBRANCH  22  24
ENDBRANCH   5  22
TORSDOF 4
ENDMDL
MODEL 5
REMARK VINA RESULT:     -11.4      3.709      6.955
REMARK  Name = 25145656
REMARK  4 active torsions:
REMARK  status: ('A' for Active; 'I' for Inactive)
REMARK    1  A    between atoms: C_5  and  C_22
REMARK    2  A    between atoms: C_8  and  C_11
REMARK    3  A    between atoms: C_14  and  C_19
REMARK    4  A    between atoms: C_22  and  C_24
REMARK                            x       y       z     vdW  Elec       q    Type
REMARK                         _______ _______ _______ _____ _____    ______ ____
ROOT
ATOM      1  N   UNL     1      31.926  -9.843 -20.542  0.00  0.00    -0.134 N 
ATOM      2  N   UNL     1      32.137  -9.116 -21.661  0.00  0.00    -0.168 NA
ATOM      3  N   UNL     1      31.685 -10.355 -18.396  0.00  0.00    -0.178 NA
ATOM      4  N   UNL     1      32.217  -8.070 -18.993  0.00  0.00    -0.200 NA
ATOM      5  C   UNL     1      31.643 -11.182 -20.499  0.00  0.00    +0.086 C 
ATOM      6  C   UNL     1      31.945  -9.374 -19.243  0.00  0.00    +0.114 C 
ATOM      7  C   UNL     1      31.499 -11.473 -19.166  0.00  0.00    +0.124 C 
ATOM      8  C   UNL     1      32.376  -7.857 -21.443  0.00  0.00    +0.103 C 
ATOM      9  C   UNL     1      32.432  -7.329 -20.030  0.00  0.00    +0.184 C 
ENDROOT
BRANCH   8  11
ATOM     10  F   UNL     1      31.077  -4.011 -24.102  0.00  0.00    -0.204 F 
ATOM     11  C   UNL     1      32.606  -6.936 -22.580  0.00  0.00    +0.019 C 
ATOM     12  C   UNL     1      31.719  -5.886 -22.815  0.00  0.00    +0.031 C 
ATOM     13  C   UNL     1      33.708  -7.120 -23.415  0.00  0.00    +0.002 C 
ATOM     14  C   UNL     1      33.037  -5.201 -24.721  0.00  0.00    +0.081 C 
ATOM     15  C   UNL     1      31.936  -5.018 -23.886  0.00  0.00    +0.144 C 
ATOM     16  C   UNL     1      33.923  -6.252 -24.485  0.00  0.00    +0.007 C 
BRANCH  14  19
ATOM     17  O   UNL     1      33.095  -3.073 -25.706  0.00  0.00    -0.270 OA
ATOM     18  N   UNL     1      33.705  -4.870 -27.037  0.00  0.00    -0.299 N 
ATOM     19  C   UNL     1      33.267  -4.298 -25.838  0.00  0.00    +0.248 C 
ATOM     20  C   UNL     1      33.999  -4.105 -28.227  0.00  0.00    +0.111 C 
ATOM     21  H   UNL     1      33.820  -5.847 -27.073  0.00  0.00    +0.150 HD
ENDBRANCH  14  19
ENDBRANCH   8  11
BRANCH   5  22
ATOM     22  C   UNL     1      31.538 -12.053 -21.735  0.00  0.00    +0.068 C 
BRANCH  22  24
ATOM     23  N   UNL     1      34.847 -16.640 -21.562  0.00  0.00    -0.248 NA
ATOM     24  C   UNL     1      32.410 -13.261 -21.699  0.00  0.00    -0.038 C 
ATOM     25  C   UNL     1      32.895 -13.810 -22.883  0.00  0.00    +0.050 C 
ATOM     26  C   UNL     1      33.717 -14.949 -22.854  0.00  0.00    -0.004 C 
ATOM     27  C   UNL     1      32.745 -13.847 -20.485  0.00  0.00    -0.028 C 
ATOM     28  C   UNL     1      34.061 -15.549 -21.625  0.00  0.00    +0.060 C 
ATOM     29  C   UNL     1      33.563 -14.979 -20.456  0.00  0.00    +0.071 C 
ATOM     30  C   UNL     1      34.219 -15.521 -24.031  0.00  0.00    -0.001 C 
ATOM     31  C   UNL     1      35.029 -16.647 -23.969  0.00  0.00    +0.020 C 
ATOM     32  C   UNL     1      35.311 -17.162 -22.721  0.00  0.00    +0.098 C 
ENDBRANCH  22  24
ENDBRANCH   5  22
TORSDOF 4
ENDMDL
MODEL 6
REMARK VINA RESULT:     -11.2      5.792     11.980
REMARK  Name = 25145656
REMARK  4 active torsions:
REMARK  status: ('A' for Active; 'I' for Inactive)
REMARK    1  A    between atoms: C_5  and  C_22
REMARK    2  A    between atoms: C_8  and  C_11
REMARK    3  A    between atoms: C_14  and  C_19
REMARK    4  A    between atoms: C_22  and  C_24
REMARK                            x       y       z     vdW  Elec       q    Type
REMARK                         _______ _______ _______ _____ _____    ______ ____
ROOT
ATOM      1  N   UNL     1      34.148 -21.514 -19.073  0.00  0.00    -0.134 N 
ATOM      2  N   UNL     1      35.186 -21.957 -18.330  0.00  0.00    -0.168 NA
ATOM      3  N   UNL     1      32.073 -21.231 -19.804  0.00  0.00    -0.178 NA
ATOM      4  N   UNL     1      32.455 -22.737 -17.949  0.00  0.00    -0.200 NA
ATOM      5  C   UNL     1      34.229 -20.632 -20.117  0.00  0.00    +0.086 C 
ATOM      6  C   UNL     1      32.820 -21.858 -18.914  0.00  0.00    +0.114 C 
ATOM      7  C   UNL     1      32.937 -20.473 -20.550  0.00  0.00    +0.124 C 
ATOM      8  C   UNL     1      34.853 -22.783 -17.384  0.00  0.00    +0.103 C 
ATOM      9  C   UNL     1      33.412 -23.197 -17.211  0.00  0.00    +0.184 C 
ENDROOT
BRANCH   8  11
ATOM     10  F   UNL     1      36.237 -25.925 -13.954  0.00  0.00    -0.204 F 
ATOM     11  C   UNL     1      35.887 -23.333 -16.477  0.00  0.00    +0.019 C 
ATOM     12  C   UNL     1      35.575 -24.390 -15.624  0.00  0.00    +0.031 C 
ATOM     13  C   UNL     1      37.174 -22.793 -16.479  0.00  0.00    +0.002 C 
ATOM     14  C   UNL     1      37.835 -24.369 -14.770  0.00  0.00    +0.081 C 
ATOM     15  C   UNL     1      36.549 -24.908 -14.770  0.00  0.00    +0.144 C 
ATOM     16  C   UNL     1      38.147 -23.311 -15.624  0.00  0.00    +0.007 C 
BRANCH  14  19
ATOM     17  O   UNL     1      38.894 -24.565 -12.687  0.00  0.00    -0.270 OA
ATOM     18  N   UNL     1      39.752 -25.828 -14.432  0.00  0.00    -0.299 N 
ATOM     19  C   UNL     1      38.853 -24.906 -13.882  0.00  0.00    +0.248 C 
ATOM     20  C   UNL     1      40.804 -26.467 -13.674  0.00  0.00    +0.111 C 
ATOM     21  H   UNL     1      39.664 -26.053 -15.386  0.00  0.00    +0.150 HD
ENDBRANCH  14  19
ENDBRANCH   8  11
BRANCH   5  22
ATOM     22  C   UNL     1      35.533 -20.027 -20.598  0.00  0.00    +0.068 C 
BRANCH  22  24
ATOM     23  N   UNL     1      34.891 -15.330 -23.688  0.00  0.00    -0.248 NA
ATOM     24  C   UNL     1      35.361 -18.784 -21.404  0.00  0.00    -0.038 C 
ATOM     25  C   UNL     1      34.967 -17.599 -20.788  0.00  0.00    +0.050 C 
ATOM     26  C   UNL     1      34.805 -16.426 -21.544  0.00  0.00    -0.004 C 
ATOM     27  C   UNL     1      35.593 -18.801 -22.774  0.00  0.00    -0.028 C 
ATOM     28  C   UNL     1      35.038 -16.436 -22.935  0.00  0.00    +0.060 C 
ATOM     29  C   UNL     1      35.431 -17.634 -23.525  0.00  0.00    +0.071 C 
ATOM     30  C   UNL     1      34.410 -15.220 -20.950  0.00  0.00    -0.001 C 
ATOM     31  C   UNL     1      34.257 -14.078 -21.724  0.00  0.00    +0.020 C 
ATOM     32  C   UNL     1      34.508 -14.185 -23.076  0.00  0.00    +0.098 C 
ENDBRANCH  22  24
ENDBRANCH   5  22
TORSDOF 4
ENDMDL
MODEL 7
REMARK VINA RESULT:     -11.1      1.158      1.849
REMARK  Name = 25145656
REMARK  4 active torsions:
REMARK  status: ('A' for Active; 'I' for Inactive)
REMARK    1  A    between atoms: C_5  and  C_22
REMARK    2  A    between atoms: C_8  and  C_11
REMARK    3  A    between atoms: C_14  and  C_19
REMARK    4  A    between atoms: C_22  and  C_24
REMARK                            x       y       z     vdW  Elec       q    Type
REMARK                         _______ _______ _______ _____ _____    ______ ____
ROOT
ATOM      1  N   UNL     1      34.380 -16.390 -23.715  0.00  0.00    -0.134 N 
ATOM      2  N   UNL     1      34.077 -15.248 -23.060  0.00  0.00    -0.168 NA
ATOM      3  N   UNL     1      34.624 -17.849 -25.369  0.00  0.00    -0.178 NA
ATOM      4  N   UNL     1      33.674 -15.679 -25.865  0.00  0.00    -0.200 NA
ATOM      5  C   UNL     1      34.922 -17.515 -23.154  0.00  0.00    +0.086 C 
ATOM      6  C   UNL     1      34.211 -16.631 -25.065  0.00  0.00    +0.114 C 
ATOM      7  C   UNL     1      35.063 -18.399 -24.194  0.00  0.00    +0.124 C 
ATOM      8  C   UNL     1      33.582 -14.314 -23.816  0.00  0.00    +0.103 C 
ATOM      9  C   UNL     1      33.361 -14.566 -25.287  0.00  0.00    +0.184 C 
ENDROOT
BRANCH   8  11
ATOM     10  F   UNL     1      34.067  -9.488 -23.645  0.00  0.00    -0.204 F 
ATOM     11  C   UNL     1      33.223 -12.999 -23.234  0.00  0.00    +0.019 C 
ATOM     12  C   UNL     1      33.823 -11.837 -23.718  0.00  0.00    +0.031 C 
ATOM     13  C   UNL     1      32.286 -12.924 -22.204  0.00  0.00    +0.002 C 
ATOM     14  C   UNL     1      32.548 -10.523 -22.141  0.00  0.00    +0.081 C 
ATOM     15  C   UNL     1      33.485 -10.599 -23.172  0.00  0.00    +0.144 C 
ATOM     16  C   UNL     1      31.948 -11.686 -21.658  0.00  0.00    +0.007 C 
BRANCH  14  19
ATOM     17  O   UNL     1      32.529  -8.944 -20.408  0.00  0.00    -0.270 OA
ATOM     18  N   UNL     1      31.483  -8.350 -22.390  0.00  0.00    -0.299 N 
ATOM     19  C   UNL     1      32.192  -9.235 -21.569  0.00  0.00    +0.248 C 
ATOM     20  C   UNL     1      31.079  -7.025 -21.975  0.00  0.00    +0.111 C 
ATOM     21  H   UNL     1      31.247  -8.644 -23.299  0.00  0.00    +0.150 HD
ENDBRANCH  14  19
ENDBRANCH   8  11
BRANCH   5  22
ATOM     22  C   UNL     1      35.253 -17.636 -21.680  0.00  0.00    +0.068 C 
BRANCH  22  24
ATOM     23  N   UNL     1      33.068 -22.244 -19.227  0.00  0.00    -0.248 NA
ATOM     24  C   UNL     1      34.686 -18.853 -21.031  0.00  0.00    -0.038 C 
ATOM     25  C   UNL     1      35.531 -19.795 -20.451  0.00  0.00    +0.050 C 
ATOM     26  C   UNL     1      35.002 -20.943 -19.838  0.00  0.00    -0.004 C 
ATOM     27  C   UNL     1      33.312 -19.055 -21.001  0.00  0.00    -0.028 C 
ATOM     28  C   UNL     1      33.608 -21.155 -19.804  0.00  0.00    +0.060 C 
ATOM     29  C   UNL     1      32.786 -20.196 -20.392  0.00  0.00    +0.071 C 
ATOM     30  C   UNL     1      35.830 -21.906 -19.246  0.00  0.00    -0.001 C 
ATOM     31  C   UNL     1      35.276 -23.030 -18.649  0.00  0.00    +0.020 C 
ATOM     32  C   UNL     1      33.902 -23.150 -18.666  0.00  0.00    +0.098 C 
ENDBRANCH  22  24
ENDBRANCH   5  22
TORSDOF 4
ENDMDL
MODEL 8
REMARK VINA RESULT:     -11.1      3.465      9.963
REMARK  Name = 25145656
REMARK  4 active torsions:
REMARK  status: ('A' for Active; 'I' for Inactive)
REMARK    1  A    between atoms: C_5  and  C_22
REMARK    2  A    between atoms: C_8  and  C_11
REMARK    3  A    between atoms: C_14  and  C_19
REMARK    4  A    between atoms: C_22  and  C_24
REMARK                            x       y       z     vdW  Elec       q    Type
REMARK                         _______ _______ _______ _____ _____    ______ ____
ROOT
ATOM      1  N   UNL     1      34.171 -15.534 -23.750  0.00  0.00    -0.134 N 
ATOM      2  N   UNL     1      34.517 -16.360 -22.738  0.00  0.00    -0.168 NA
ATOM      3  N   UNL     1      33.676 -14.829 -25.794  0.00  0.00    -0.178 NA
ATOM      4  N   UNL     1      34.285 -17.150 -25.483  0.00  0.00    -0.200 NA
ATOM      5  C   UNL     1      33.879 -14.202 -23.633  0.00  0.00    +0.086 C 
ATOM      6  C   UNL     1      34.039 -15.880 -25.081  0.00  0.00    +0.114 C 
ATOM      7  C   UNL     1      33.577 -13.790 -24.906  0.00  0.00    +0.124 C 
ATOM      8  C   UNL     1      34.735 -17.589 -23.100  0.00  0.00    +0.103 C 
ATOM      9  C   UNL     1      34.626 -17.982 -24.554  0.00  0.00    +0.184 C 
ENDROOT
BRANCH   8  11
ATOM     10  F   UNL     1      33.503 -21.145 -20.037  0.00  0.00    -0.204 F 
ATOM     11  C   UNL     1      35.102 -18.608 -22.091  0.00  0.00    +0.019 C 
ATOM     12  C   UNL     1      34.115 -19.415 -21.525  0.00  0.00    +0.031 C 
ATOM     13  C   UNL     1      36.434 -18.762 -21.707  0.00  0.00    +0.002 C 
ATOM     14  C   UNL     1      35.792 -20.529 -20.189  0.00  0.00    +0.081 C 
ATOM     15  C   UNL     1      34.461 -20.375 -20.574  0.00  0.00    +0.144 C 
ATOM     16  C   UNL     1      36.779 -19.722 -20.756  0.00  0.00    +0.007 C 
BRANCH  14  19
ATOM     17  O   UNL     1      35.819 -22.718 -19.347  0.00  0.00    -0.270 OA
ATOM     18  N   UNL     1      36.913 -21.094 -18.105  0.00  0.00    -0.299 N 
ATOM     19  C   UNL     1      36.157 -21.530 -19.199  0.00  0.00    +0.248 C 
ATOM     20  C   UNL     1      37.373 -21.971 -17.052  0.00  0.00    +0.111 C 
ATOM     21  H   UNL     1      37.146 -20.139 -18.049  0.00  0.00    +0.150 HD
ENDBRANCH  14  19
ENDBRANCH   8  11
BRANCH   5  22
ATOM     22  C   UNL     1      33.917 -13.453 -22.316  0.00  0.00    +0.068 C 
BRANCH  22  24
ATOM     23  N   UNL     1      31.188  -8.497 -22.410  0.00  0.00    -0.248 NA
ATOM     24  C   UNL     1      33.206 -12.143 -22.345  0.00  0.00    -0.038 C 
ATOM     25  C   UNL     1      33.821 -11.024 -22.900  0.00  0.00    +0.050 C 
ATOM     26  C   UNL     1      33.155  -9.788 -22.930  0.00  0.00    -0.004 C 
ATOM     27  C   UNL     1      31.925 -12.030 -21.819  0.00  0.00    -0.028 C 
ATOM     28  C   UNL     1      31.854  -9.666 -22.397  0.00  0.00    +0.060 C 
ATOM     29  C   UNL     1      31.263 -10.801 -21.849  0.00  0.00    +0.071 C 
ATOM     30  C   UNL     1      33.751  -8.647 -23.483  0.00  0.00    -0.001 C 
ATOM     31  C   UNL     1      33.066  -7.439 -23.497  0.00  0.00    +0.020 C 
ATOM     32  C   UNL     1      31.799  -7.418 -22.953  0.00  0.00    +0.098 C 
ENDBRANCH  22  24
ENDBRANCH   5  22
TORSDOF 4
ENDMDL
MODEL 9
REMARK VINA RESULT:     -10.8      2.995      5.510
REMARK  Name = 25145656
REMARK  4 active torsions:
REMARK  status: ('A' for Active; 'I' for Inactive)
REMARK    1  A    between atoms: C_5  and  C_22
REMARK    2  A    between atoms: C_8  and  C_11
REMARK    3  A    between atoms: C_14  and  C_19
REMARK    4  A    between atoms: C_22  and  C_24
REMARK                            x       y       z     vdW  Elec       q    Type
REMARK                         _______ _______ _______ _____ _____    ______ ____
ROOT
ATOM      1  N   UNL     1      32.380 -11.632 -21.712  0.00  0.00    -0.134 N 
ATOM      2  N   UNL     1      32.537 -10.504 -22.440  0.00  0.00    -0.168 NA
ATOM      3  N   UNL     1      31.788 -12.984 -20.055  0.00  0.00    -0.178 NA
ATOM      4  N   UNL     1      31.303 -10.621 -19.855  0.00  0.00    -0.200 NA
ATOM      5  C   UNL     1      32.779 -12.887 -22.084  0.00  0.00    +0.086 C 
ATOM      6  C   UNL     1      31.782 -11.730 -20.471  0.00  0.00    +0.114 C 
ATOM      7  C   UNL     1      32.402 -13.703 -21.047  0.00  0.00    +0.124 C 
ATOM      8  C   UNL     1      32.063  -9.434 -21.877  0.00  0.00    +0.103 C 
ATOM      9  C   UNL     1      31.434  -9.512 -20.507  0.00  0.00    +0.184 C 
ENDROOT
BRANCH   8  11
ATOM     10  F   UNL     1      34.636  -6.031 -24.191  0.00  0.00    -0.204 F 
ATOM     11  C   UNL     1      32.148  -8.128 -22.571  0.00  0.00    +0.019 C 
ATOM     12  C   UNL     1      33.373  -7.681 -23.066  0.00  0.00    +0.031 C 
ATOM     13  C   UNL     1      31.004  -7.347 -22.731  0.00  0.00    +0.002 C 
ATOM     14  C   UNL     1      32.309  -5.670 -23.880  0.00  0.00    +0.081 C 
ATOM     15  C   UNL     1      33.453  -6.451 -23.720  0.00  0.00    +0.144 C 
ATOM     16  C   UNL     1      31.084  -6.118 -23.385  0.00  0.00    +0.007 C 
BRANCH  14  19
ATOM     17  O   UNL     1      32.856  -4.312 -25.712  0.00  0.00    -0.270 OA
ATOM     18  N   UNL     1      31.897  -3.272 -23.875  0.00  0.00    -0.299 N 
ATOM     19  C   UNL     1      32.388  -4.388 -24.562  0.00  0.00    +0.248 C 
ATOM     20  C   UNL     1      31.883  -1.936 -24.428  0.00  0.00    +0.111 C 
ATOM     21  H   UNL     1      31.541  -3.403 -22.967  0.00  0.00    +0.150 HD
ENDBRANCH  14  19
ENDBRANCH   8  11
BRANCH   5  22
ATOM     22  C   UNL     1      33.480 -13.186 -23.394  0.00  0.00    +0.068 C 
BRANCH  22  24
ATOM     23  N   UNL     1      35.118 -18.571 -23.976  0.00  0.00    -0.248 NA
ATOM     24  C   UNL     1      33.914 -14.605 -23.538  0.00  0.00    -0.038 C 
ATOM     25  C   UNL     1      34.436 -15.292 -22.445  0.00  0.00    +0.050 C 
ATOM     26  C   UNL     1      34.846 -16.629 -22.576  0.00  0.00    -0.004 C 
ATOM     27  C   UNL     1      33.802 -15.251 -24.763  0.00  0.00    -0.028 C 
ATOM     28  C   UNL     1      34.734 -17.291 -23.817  0.00  0.00    +0.060 C 
ATOM     29  C   UNL     1      34.209 -16.580 -24.893  0.00  0.00    +0.071 C 
ATOM     30  C   UNL     1      35.373 -17.344 -21.492  0.00  0.00    -0.001 C 
ATOM     31  C   UNL     1      35.770 -18.665 -21.654  0.00  0.00    +0.020 C 
ATOM     32  C   UNL     1      35.622 -19.226 -22.905  0.00  0.00    +0.098 C 
ENDBRANCH  22  24
ENDBRANCH   5  22
TORSDOF 4
ENDMDL
