MODEL 1
REMARK VINA RESULT:     -12.3      0.000      0.000
REMARK  Name = 448407
REMARK  4 active torsions:
REMARK  status: ('A' for Active; 'I' for Inactive)
REMARK    1  A    between atoms: C_1  and  N_8
REMARK    2  A    between atoms: C_2  and  C_23
REMARK    3  A    between atoms: N_22  and  C_25
REMARK    4  A    between atoms: C_25  and  C_28
REMARK                            x       y       z     vdW  Elec       q    Type
REMARK                         _______ _______ _______ _____ _____    ______ ____
ROOT
ATOM      1  C   UNL     1      34.857 -22.737 -17.533  0.00  0.00    +0.090 C 
ATOM      2  C   UNL     1      35.077 -21.268 -19.461  0.00  0.00    +0.055 C 
ATOM      3  C   UNL     1      35.641 -21.916 -18.363  0.00  0.00    +0.023 C 
ATOM      4  C   UNL     1      33.493 -22.890 -17.836  0.00  0.00    +0.018 C 
ATOM      5  C   UNL     1      33.722 -21.432 -19.748  0.00  0.00    +0.005 C 
ATOM      6  C   UNL     1      32.930 -22.243 -18.935  0.00  0.00    +0.002 C 
ENDROOT
BRANCH   1   8
ATOM      7  O   UNL     1      33.810 -24.550 -12.777  0.00  0.00    -0.207 OA
ATOM      8  N   UNL     1      35.418 -23.384 -16.438  0.00  0.00    -0.137 N 
ATOM      9  N   UNL     1      36.687 -23.188 -15.991  0.00  0.00    -0.215 N 
ATOM     10  N   UNL     1      34.575 -23.802 -15.411  0.00  0.00    -0.143 NA
ATOM     11  N   UNL     1      37.589 -23.474 -13.720  0.00  0.00    -0.309 NA
ATOM     12  N   UNL     1      35.989 -24.203 -12.067  0.00  0.00    -0.251 NA
ATOM     13  N   UNL     1      38.191 -23.825 -11.470  0.00  0.00    -0.283 N 
ATOM     14  C   UNL     1      36.722 -23.468 -14.664  0.00  0.00    +0.243 C 
ATOM     15  C   UNL     1      35.335 -23.855 -14.361  0.00  0.00    +0.241 C 
ATOM     16  C   UNL     1      34.972 -24.237 -12.990  0.00  0.00    +0.239 C 
ATOM     17  C   UNL     1      37.205 -23.843 -12.429  0.00  0.00    +0.208 C 
ATOM     18  H   UNL     1      37.451 -22.893 -16.536  0.00  0.00    +0.175 HD
ATOM     19  H   UNL     1      39.109 -23.560 -11.711  0.00  0.00    +0.156 HD
ATOM     20  H   UNL     1      37.980 -24.075 -10.541  0.00  0.00    +0.156 HD
ENDBRANCH   1   8
BRANCH   2  23
ATOM     21  O   UNL     1      37.086 -20.189 -20.006  0.00  0.00    -0.270 OA
ATOM     22  N   UNL     1      35.310 -19.921 -21.475  0.00  0.00    -0.297 N 
ATOM     23  C   UNL     1      35.902 -20.424 -20.310  0.00  0.00    +0.246 C 
ATOM     24  H   UNL     1      34.369 -20.147 -21.653  0.00  0.00    +0.150 HD
BRANCH  22  25
ATOM     25  C   UNL     1      36.007 -19.089 -22.429  0.00  0.00    +0.117 C 
BRANCH  25  28
ATOM     26 CL   UNL     1      33.819 -15.625 -25.632  0.00  0.00    -0.082 Cl
ATOM     27 CL   UNL     1      34.189 -14.692 -20.330  0.00  0.00    -0.082 Cl
ATOM     28  C   UNL     1      35.330 -17.761 -22.615  0.00  0.00    -0.001 C 
ATOM     29  C   UNL     1      35.103 -16.944 -21.513  0.00  0.00    +0.009 C 
ATOM     30  C   UNL     1      34.938 -17.362 -23.887  0.00  0.00    +0.009 C 
ATOM     31  C   UNL     1      34.310 -16.129 -24.061  0.00  0.00    +0.058 C 
ATOM     32  C   UNL     1      34.475 -15.711 -21.686  0.00  0.00    +0.058 C 
ATOM     33  C   UNL     1      34.077 -15.303 -22.960  0.00  0.00    +0.023 C 
ENDBRANCH  25  28
ENDBRANCH  22  25
ENDBRANCH   2  23
TORSDOF 4
ENDMDL
MODEL 2
REMARK VINA RESULT:     -12.2      4.772     10.448
REMARK  Name = 448407
REMARK  4 active torsions:
REMARK  status: ('A' for Active; 'I' for Inactive)
REMARK    1  A    between atoms: C_1  and  N_8
REMARK    2  A    between atoms: C_2  and  C_23
REMARK    3  A    between atoms: N_22  and  C_25
REMARK    4  A    between atoms: C_25  and  C_28
REMARK                            x       y       z     vdW  Elec       q    Type
REMARK                         _______ _______ _______ _____ _____    ______ ____
ROOT
ATOM      1  C   UNL     1      35.757 -18.637 -21.482  0.00  0.00    +0.090 C 
ATOM      2  C   UNL     1      34.931 -20.532 -20.196  0.00  0.00    +0.055 C 
ATOM      3  C   UNL     1      34.691 -19.418 -21.000  0.00  0.00    +0.023 C 
ATOM      4  C   UNL     1      37.068 -19.006 -21.136  0.00  0.00    +0.018 C 
ATOM      5  C   UNL     1      36.238 -20.884 -19.863  0.00  0.00    +0.005 C 
ATOM      6  C   UNL     1      37.307 -20.120 -20.333  0.00  0.00    +0.002 C 
ENDROOT
BRANCH   1   8
ATOM      7  O   UNL     1      33.443 -13.986 -21.576  0.00  0.00    -0.207 OA
ATOM      8  N   UNL     1      35.518 -17.527 -22.284  0.00  0.00    -0.137 N 
ATOM      9  N   UNL     1      35.285 -17.575 -23.622  0.00  0.00    -0.215 N 
ATOM     10  N   UNL     1      34.931 -16.405 -21.704  0.00  0.00    -0.143 NA
ATOM     11  N   UNL     1      34.024 -16.001 -25.030  0.00  0.00    -0.309 NA
ATOM     12  N   UNL     1      33.075 -14.115 -23.862  0.00  0.00    -0.251 NA
ATOM     13  N   UNL     1      32.770 -14.346 -26.143  0.00  0.00    -0.283 N 
ATOM     14  C   UNL     1      34.541 -16.494 -23.966  0.00  0.00    +0.243 C 
ATOM     15  C   UNL     1      34.353 -15.790 -22.688  0.00  0.00    +0.241 C 
ATOM     16  C   UNL     1      33.579 -14.542 -22.657  0.00  0.00    +0.239 C 
ATOM     17  C   UNL     1      33.294 -14.812 -24.959  0.00  0.00    +0.208 C 
ATOM     18  H   UNL     1      35.601 -18.275 -24.237  0.00  0.00    +0.175 HD
ATOM     19  H   UNL     1      32.917 -14.846 -26.978  0.00  0.00    +0.156 HD
ATOM     20  H   UNL     1      32.246 -13.512 -26.154  0.00  0.00    +0.156 HD
ENDBRANCH   1   8
BRANCH   2  23
ATOM     21  O   UNL     1      32.681 -21.191 -20.195  0.00  0.00    -0.270 OA
ATOM     22  N   UNL     1      34.095 -22.257 -18.697  0.00  0.00    -0.297 N 
ATOM     23  C   UNL     1      33.817 -21.330 -19.708  0.00  0.00    +0.246 C 
ATOM     24  H   UNL     1      35.016 -22.313 -18.357  0.00  0.00    +0.150 HD
BRANCH  22  25
ATOM     25  C   UNL     1      33.100 -23.136 -18.125  0.00  0.00    +0.117 C 
BRANCH  25  28
ATOM     26 CL   UNL     1      36.521 -23.924 -14.289  0.00  0.00    -0.082 Cl
ATOM     27 CL   UNL     1      31.207 -23.941 -13.349  0.00  0.00    -0.082 Cl
ATOM     28  C   UNL     1      33.358 -23.405 -16.670  0.00  0.00    -0.001 C 
ATOM     29  C   UNL     1      32.287 -23.531 -15.793  0.00  0.00    +0.009 C 
ATOM     30  C   UNL     1      34.666 -23.525 -16.215  0.00  0.00    +0.009 C 
ATOM     31  C   UNL     1      34.906 -23.775 -14.863  0.00  0.00    +0.058 C 
ATOM     32  C   UNL     1      32.526 -23.782 -14.443  0.00  0.00    +0.058 C 
ATOM     33  C   UNL     1      33.836 -23.903 -13.977  0.00  0.00    +0.023 C 
ENDBRANCH  25  28
ENDBRANCH  22  25
ENDBRANCH   2  23
TORSDOF 4
ENDMDL
MODEL 3
REMARK VINA RESULT:     -12.0      1.593      2.569
REMARK  Name = 448407
REMARK  4 active torsions:
REMARK  status: ('A' for Active; 'I' for Inactive)
REMARK    1  A    between atoms: C_1  and  N_8
REMARK    2  A    between atoms: C_2  and  C_23
REMARK    3  A    between atoms: N_22  and  C_25
REMARK    4  A    between atoms: C_25  and  C_28
REMARK                            x       y       z     vdW  Elec       q    Type
REMARK                         _______ _______ _______ _____ _____    ______ ____
ROOT
ATOM      1  C   UNL     1      34.839 -22.616 -17.501  0.00  0.00    +0.090 C 
ATOM      2  C   UNL     1      35.086 -21.252 -19.502  0.00  0.00    +0.055 C 
ATOM      3  C   UNL     1      35.620 -21.796 -18.334  0.00  0.00    +0.023 C 
ATOM      4  C   UNL     1      33.508 -22.875 -17.871  0.00  0.00    +0.018 C 
ATOM      5  C   UNL     1      33.763 -21.520 -19.855  0.00  0.00    +0.005 C 
ATOM      6  C   UNL     1      32.975 -22.332 -19.039  0.00  0.00    +0.002 C 
ENDROOT
BRANCH   1   8
ATOM      7  O   UNL     1      39.293 -23.986 -15.203  0.00  0.00    -0.207 OA
ATOM      8  N   UNL     1      35.372 -23.159 -16.337  0.00  0.00    -0.137 N 
ATOM      9  N   UNL     1      34.792 -24.149 -15.609  0.00  0.00    -0.215 N 
ATOM     10  N   UNL     1      36.755 -23.153 -16.177  0.00  0.00    -0.143 NA
ATOM     11  N   UNL     1      35.850 -25.814 -14.141  0.00  0.00    -0.309 NA
ATOM     12  N   UNL     1      38.253 -25.658 -13.979  0.00  0.00    -0.251 NA
ATOM     13  N   UNL     1      37.110 -27.288 -12.803  0.00  0.00    -0.283 N 
ATOM     14  C   UNL     1      35.766 -24.824 -14.950  0.00  0.00    +0.243 C 
ATOM     15  C   UNL     1      36.997 -24.131 -15.360  0.00  0.00    +0.241 C 
ATOM     16  C   UNL     1      38.292 -24.586 -14.838  0.00  0.00    +0.239 C 
ATOM     17  C   UNL     1      37.101 -26.218 -13.667  0.00  0.00    +0.208 C 
ATOM     18  H   UNL     1      33.828 -24.345 -15.568  0.00  0.00    +0.175 HD
ATOM     19  H   UNL     1      36.264 -27.727 -12.552  0.00  0.00    +0.156 HD
ATOM     20  H   UNL     1      37.962 -27.617 -12.436  0.00  0.00    +0.156 HD
ENDBRANCH   1   8
BRANCH   2  23
ATOM     21  O   UNL     1      37.090 -20.167 -20.051  0.00  0.00    -0.270 OA
ATOM     22  N   UNL     1      35.314 -19.910 -21.520  0.00  0.00    -0.297 N 
ATOM     23  C   UNL     1      35.908 -20.407 -20.354  0.00  0.00    +0.246 C 
ATOM     24  H   UNL     1      34.373 -20.139 -21.696  0.00  0.00    +0.150 HD
BRANCH  22  25
ATOM     25  C   UNL     1      36.007 -19.077 -22.476  0.00  0.00    +0.117 C 
BRANCH  25  28
ATOM     26 CL   UNL     1      34.180 -14.690 -20.366  0.00  0.00    -0.082 Cl
ATOM     27 CL   UNL     1      33.827 -15.603 -25.672  0.00  0.00    -0.082 Cl
ATOM     28  C   UNL     1      35.330 -17.749 -22.660  0.00  0.00    -0.001 C 
ATOM     29  C   UNL     1      34.942 -17.345 -23.932  0.00  0.00    +0.009 C 
ATOM     30  C   UNL     1      35.098 -16.937 -21.556  0.00  0.00    +0.009 C 
ATOM     31  C   UNL     1      34.470 -15.703 -21.726  0.00  0.00    +0.058 C 
ATOM     32  C   UNL     1      34.313 -16.112 -24.102  0.00  0.00    +0.058 C 
ATOM     33  C   UNL     1      34.078 -15.290 -22.999  0.00  0.00    +0.023 C 
ENDBRANCH  25  28
ENDBRANCH  22  25
ENDBRANCH   2  23
TORSDOF 4
ENDMDL
MODEL 4
REMARK VINA RESULT:     -11.7      2.750      3.473
REMARK  Name = 448407
REMARK  4 active torsions:
REMARK  status: ('A' for Active; 'I' for Inactive)
REMARK    1  A    between atoms: C_1  and  N_8
REMARK    2  A    between atoms: C_2  and  C_23
REMARK    3  A    between atoms: N_22  and  C_25
REMARK    4  A    between atoms: C_25  and  C_28
REMARK                            x       y       z     vdW  Elec       q    Type
REMARK                         _______ _______ _______ _____ _____    ______ ____
ROOT
ATOM      1  C   UNL     1      34.624 -22.340 -18.290  0.00  0.00    +0.090 C 
ATOM      2  C   UNL     1      35.130 -20.899 -20.186  0.00  0.00    +0.055 C 
ATOM      3  C   UNL     1      34.226 -21.680 -19.466  0.00  0.00    +0.023 C 
ATOM      4  C   UNL     1      35.953 -22.193 -17.856  0.00  0.00    +0.018 C 
ATOM      5  C   UNL     1      36.445 -20.764 -19.741  0.00  0.00    +0.005 C 
ATOM      6  C   UNL     1      36.856 -21.411 -18.575  0.00  0.00    +0.002 C 
ENDROOT
BRANCH   1   8
ATOM      7  O   UNL     1      29.655 -22.661 -16.810  0.00  0.00    -0.207 OA
ATOM      8  N   UNL     1      33.723 -23.118 -17.572  0.00  0.00    -0.137 N 
ATOM      9  N   UNL     1      34.019 -23.783 -16.424  0.00  0.00    -0.215 N 
ATOM     10  N   UNL     1      32.370 -22.797 -17.641  0.00  0.00    -0.143 NA
ATOM     11  N   UNL     1      32.522 -24.435 -14.584  0.00  0.00    -0.309 NA
ATOM     12  N   UNL     1      30.212 -23.800 -14.869  0.00  0.00    -0.251 NA
ATOM     13  N   UNL     1      30.881 -24.938 -12.970  0.00  0.00    -0.283 N 
ATOM     14  C   UNL     1      32.878 -23.921 -15.703  0.00  0.00    +0.243 C 
ATOM     15  C   UNL     1      31.863 -23.267 -16.543  0.00  0.00    +0.241 C 
ATOM     16  C   UNL     1      30.469 -23.215 -16.086  0.00  0.00    +0.239 C 
ATOM     17  C   UNL     1      31.186 -24.364 -14.183  0.00  0.00    +0.208 C 
ATOM     18  H   UNL     1      34.910 -24.108 -16.159  0.00  0.00    +0.175 HD
ATOM     19  H   UNL     1      31.589 -25.366 -12.436  0.00  0.00    +0.156 HD
ATOM     20  H   UNL     1      29.956 -24.919 -12.636  0.00  0.00    +0.156 HD
ENDBRANCH   1   8
BRANCH   2  23
ATOM     21  O   UNL     1      33.500 -20.206 -21.722  0.00  0.00    -0.270 OA
ATOM     22  N   UNL     1      35.692 -19.586 -22.157  0.00  0.00    -0.297 N 
ATOM     23  C   UNL     1      34.701 -20.223 -21.400  0.00  0.00    +0.246 C 
ATOM     24  H   UNL     1      36.623 -19.641 -21.844  0.00  0.00    +0.150 HD
BRANCH  22  25
ATOM     25  C   UNL     1      35.421 -18.855 -23.373  0.00  0.00    +0.117 C 
BRANCH  25  28
ATOM     26 CL   UNL     1      33.621 -14.327 -25.190  0.00  0.00    -0.082 Cl
ATOM     27 CL   UNL     1      34.412 -15.109 -19.910  0.00  0.00    -0.082 Cl
ATOM     28  C   UNL     1      34.946 -17.457 -23.095  0.00  0.00    -0.001 C 
ATOM     29  C   UNL     1      34.906 -16.993 -21.785  0.00  0.00    +0.009 C 
ATOM     30  C   UNL     1      34.553 -16.642 -24.150  0.00  0.00    +0.009 C 
ATOM     31  C   UNL     1      34.111 -15.344 -23.892  0.00  0.00    +0.058 C 
ATOM     32  C   UNL     1      34.466 -15.695 -21.527  0.00  0.00    +0.058 C 
ATOM     33  C   UNL     1      34.068 -14.870 -22.580  0.00  0.00    +0.023 C 
ENDBRANCH  25  28
ENDBRANCH  22  25
ENDBRANCH   2  23
TORSDOF 4
ENDMDL
MODEL 5
REMARK VINA RESULT:     -11.7      3.436      6.236
REMARK  Name = 448407
REMARK  4 active torsions:
REMARK  status: ('A' for Active; 'I' for Inactive)
REMARK    1  A    between atoms: C_1  and  N_8
REMARK    2  A    between atoms: C_2  and  C_23
REMARK    3  A    between atoms: N_22  and  C_25
REMARK    4  A    between atoms: C_25  and  C_28
REMARK                            x       y       z     vdW  Elec       q    Type
REMARK                         _______ _______ _______ _____ _____    ______ ____
ROOT
ATOM      1  C   UNL     1      35.187 -18.565 -21.875  0.00  0.00    +0.090 C 
ATOM      2  C   UNL     1      34.437 -16.250 -21.907  0.00  0.00    +0.055 C 
ATOM      3  C   UNL     1      34.716 -17.422 -21.205  0.00  0.00    +0.023 C 
ATOM      4  C   UNL     1      35.370 -18.499 -23.267  0.00  0.00    +0.018 C 
ATOM      5  C   UNL     1      34.624 -16.201 -23.287  0.00  0.00    +0.005 C 
ATOM      6  C   UNL     1      35.091 -17.326 -23.968  0.00  0.00    +0.002 C 
ENDROOT
BRANCH   1   8
ATOM      7  O   UNL     1      32.990 -22.498 -19.286  0.00  0.00    -0.207 OA
ATOM      8  N   UNL     1      35.467 -19.734 -21.176  0.00  0.00    -0.137 N 
ATOM      9  N   UNL     1      36.540 -19.910 -20.361  0.00  0.00    -0.215 N 
ATOM     10  N   UNL     1      34.404 -20.553 -20.803  0.00  0.00    -0.143 NA
ATOM     11  N   UNL     1      36.788 -21.415 -18.432  0.00  0.00    -0.309 NA
ATOM     12  N   UNL     1      34.849 -22.761 -17.927  0.00  0.00    -0.251 NA
ATOM     13  N   UNL     1      36.760 -22.940 -16.636  0.00  0.00    -0.283 N 
ATOM     14  C   UNL     1      36.222 -20.843 -19.430  0.00  0.00    +0.243 C 
ATOM     15  C   UNL     1      34.840 -21.211 -19.774  0.00  0.00    +0.241 C 
ATOM     16  C   UNL     1      34.138 -22.220 -18.971  0.00  0.00    +0.239 C 
ATOM     17  C   UNL     1      36.086 -22.370 -17.692  0.00  0.00    +0.208 C 
ATOM     18  H   UNL     1      37.402 -19.439 -20.433  0.00  0.00    +0.175 HD
ATOM     19  H   UNL     1      37.685 -22.667 -16.436  0.00  0.00    +0.156 HD
ATOM     20  H   UNL     1      36.316 -23.619 -16.078  0.00  0.00    +0.156 HD
ENDBRANCH   1   8
BRANCH   2  23
ATOM     21  O   UNL     1      34.599 -14.601 -20.248  0.00  0.00    -0.270 OA
ATOM     22  N   UNL     1      32.754 -14.510 -21.650  0.00  0.00    -0.297 N 
ATOM     23  C   UNL     1      33.952 -15.076 -21.198  0.00  0.00    +0.246 C 
ATOM     24  H   UNL     1      32.293 -14.939 -22.406  0.00  0.00    +0.150 HD
BRANCH  22  25
ATOM     25  C   UNL     1      32.157 -13.332 -21.064  0.00  0.00    +0.117 C 
BRANCH  25  28
ATOM     26 CL   UNL     1      31.462  -8.230 -21.791  0.00  0.00    -0.082 Cl
ATOM     27 CL   UNL     1      34.775 -11.083 -24.954  0.00  0.00    -0.082 Cl
ATOM     28  C   UNL     1      32.482 -12.090 -21.844  0.00  0.00    -0.001 C 
ATOM     29  C   UNL     1      33.373 -12.160 -22.909  0.00  0.00    +0.009 C 
ATOM     30  C   UNL     1      31.888 -10.883 -21.493  0.00  0.00    +0.009 C 
ATOM     31  C   UNL     1      32.190  -9.730 -22.217  0.00  0.00    +0.058 C 
ATOM     32  C   UNL     1      33.675 -11.008 -23.633  0.00  0.00    +0.058 C 
ATOM     33  C   UNL     1      33.084  -9.791 -23.287  0.00  0.00    +0.023 C 
ENDBRANCH  25  28
ENDBRANCH  22  25
ENDBRANCH   2  23
TORSDOF 4
ENDMDL
MODEL 6
REMARK VINA RESULT:     -11.6      3.519      6.250
REMARK  Name = 448407
REMARK  4 active torsions:
REMARK  status: ('A' for Active; 'I' for Inactive)
REMARK    1  A    between atoms: C_1  and  N_8
REMARK    2  A    between atoms: C_2  and  C_23
REMARK    3  A    between atoms: N_22  and  C_25
REMARK    4  A    between atoms: C_25  and  C_28
REMARK                            x       y       z     vdW  Elec       q    Type
REMARK                         _______ _______ _______ _____ _____    ______ ____
ROOT
ATOM      1  C   UNL     1      35.155 -18.428 -21.975  0.00  0.00    +0.090 C 
ATOM      2  C   UNL     1      34.364 -16.126 -21.974  0.00  0.00    +0.055 C 
ATOM      3  C   UNL     1      34.662 -17.304 -21.290  0.00  0.00    +0.023 C 
ATOM      4  C   UNL     1      35.342 -18.337 -23.366  0.00  0.00    +0.018 C 
ATOM      5  C   UNL     1      34.556 -16.053 -23.353  0.00  0.00    +0.005 C 
ATOM      6  C   UNL     1      35.045 -17.159 -24.049  0.00  0.00    +0.002 C 
ENDROOT
BRANCH   1   8
ATOM      7  O   UNL     1      33.023 -22.404 -19.398  0.00  0.00    -0.207 OA
ATOM      8  N   UNL     1      35.453 -19.602 -21.294  0.00  0.00    -0.137 N 
ATOM      9  N   UNL     1      36.540 -19.779 -20.496  0.00  0.00    -0.215 N 
ATOM     10  N   UNL     1      34.402 -20.432 -20.914  0.00  0.00    -0.143 NA
ATOM     11  N   UNL     1      36.825 -21.304 -18.587  0.00  0.00    -0.309 NA
ATOM     12  N   UNL     1      34.904 -22.668 -18.069  0.00  0.00    -0.251 NA
ATOM     13  N   UNL     1      36.834 -22.848 -16.807  0.00  0.00    -0.283 N 
ATOM     14  C   UNL     1      36.242 -20.725 -19.570  0.00  0.00    +0.243 C 
ATOM     15  C   UNL     1      34.857 -21.099 -19.899  0.00  0.00    +0.241 C 
ATOM     16  C   UNL     1      34.174 -22.122 -19.096  0.00  0.00    +0.239 C 
ATOM     17  C   UNL     1      36.141 -22.271 -17.847  0.00  0.00    +0.208 C 
ATOM     18  H   UNL     1      37.397 -19.302 -20.575  0.00  0.00    +0.175 HD
ATOM     19  H   UNL     1      37.760 -22.571 -16.618  0.00  0.00    +0.156 HD
ATOM     20  H   UNL     1      36.403 -23.536 -16.251  0.00  0.00    +0.156 HD
ENDBRANCH   1   8
BRANCH   2  23
ATOM     21  O   UNL     1      34.457 -14.541 -20.249  0.00  0.00    -0.270 OA
ATOM     22  N   UNL     1      32.692 -14.373 -21.744  0.00  0.00    -0.297 N 
ATOM     23  C   UNL     1      33.856 -14.972 -21.249  0.00  0.00    +0.246 C 
ATOM     24  H   UNL     1      32.268 -14.767 -22.540  0.00  0.00    +0.150 HD
BRANCH  22  25
ATOM     25  C   UNL     1      32.079 -13.208 -21.148  0.00  0.00    +0.117 C 
BRANCH  25  28
ATOM     26 CL   UNL     1      34.921 -10.854 -24.812  0.00  0.00    -0.082 Cl
ATOM     27 CL   UNL     1      31.404  -8.092 -21.791  0.00  0.00    -0.082 Cl
ATOM     28  C   UNL     1      32.445 -11.946 -21.875  0.00  0.00    -0.001 C 
ATOM     29  C   UNL     1      31.824 -10.750 -21.533  0.00  0.00    +0.009 C 
ATOM     30  C   UNL     1      33.400 -11.987 -22.884  0.00  0.00    +0.009 C 
ATOM     31  C   UNL     1      33.740 -10.815 -23.560  0.00  0.00    +0.058 C 
ATOM     32  C   UNL     1      32.164  -9.578 -22.208  0.00  0.00    +0.058 C 
ATOM     33  C   UNL     1      33.122  -9.610 -23.223  0.00  0.00    +0.023 C 
ENDBRANCH  25  28
ENDBRANCH  22  25
ENDBRANCH   2  23
TORSDOF 4
ENDMDL
MODEL 7
REMARK VINA RESULT:     -11.3      4.573     10.320
REMARK  Name = 448407
REMARK  4 active torsions:
REMARK  status: ('A' for Active; 'I' for Inactive)
REMARK    1  A    between atoms: C_1  and  N_8
REMARK    2  A    between atoms: C_2  and  C_23
REMARK    3  A    between atoms: N_22  and  C_25
REMARK    4  A    between atoms: C_25  and  C_28
REMARK                            x       y       z     vdW  Elec       q    Type
REMARK                         _______ _______ _______ _____ _____    ______ ____
ROOT
ATOM      1  C   UNL     1      35.113 -18.829 -21.095  0.00  0.00    +0.090 C 
ATOM      2  C   UNL     1      34.864 -20.974 -19.971  0.00  0.00    +0.055 C 
ATOM      3  C   UNL     1      34.300 -19.860 -20.592  0.00  0.00    +0.023 C 
ATOM      4  C   UNL     1      36.508 -18.948 -20.959  0.00  0.00    +0.018 C 
ATOM      5  C   UNL     1      36.249 -21.076 -19.844  0.00  0.00    +0.005 C 
ATOM      6  C   UNL     1      37.071 -20.062 -20.338  0.00  0.00    +0.002 C 
ENDROOT
BRANCH   1   8
ATOM      7  O   UNL     1      34.582 -16.444 -25.680  0.00  0.00    -0.207 OA
ATOM      8  N   UNL     1      34.552 -17.719 -21.716  0.00  0.00    -0.137 N 
ATOM      9  N   UNL     1      34.467 -16.482 -21.159  0.00  0.00    -0.215 N 
ATOM     10  N   UNL     1      34.584 -17.651 -23.106  0.00  0.00    -0.143 NA
ATOM     11  N   UNL     1      34.370 -14.289 -22.269  0.00  0.00    -0.309 NA
ATOM     12  N   UNL     1      34.436 -14.358 -24.681  0.00  0.00    -0.251 NA
ATOM     13  N   UNL     1      34.292 -12.331 -23.576  0.00  0.00    -0.283 N 
ATOM     14  C   UNL     1      34.441 -15.564 -22.157  0.00  0.00    +0.243 C 
ATOM     15  C   UNL     1      34.518 -16.384 -23.376  0.00  0.00    +0.241 C 
ATOM     16  C   UNL     1      34.515 -15.730 -24.691  0.00  0.00    +0.239 C 
ATOM     17  C   UNL     1      34.370 -13.704 -23.538  0.00  0.00    +0.208 C 
ATOM     18  H   UNL     1      34.432 -16.285 -20.195  0.00  0.00    +0.175 HD
ATOM     19  H   UNL     1      34.242 -11.816 -22.738  0.00  0.00    +0.156 HD
ATOM     20  H   UNL     1      34.288 -11.862 -24.442  0.00  0.00    +0.156 HD
ENDBRANCH   1   8
BRANCH   2  23
ATOM     21  O   UNL     1      32.791 -22.040 -19.716  0.00  0.00    -0.270 OA
ATOM     22  N   UNL     1      34.622 -23.031 -18.692  0.00  0.00    -0.297 N 
ATOM     23  C   UNL     1      34.008 -22.032 -19.457  0.00  0.00    +0.246 C 
ATOM     24  H   UNL     1      35.589 -22.961 -18.526  0.00  0.00    +0.150 HD
BRANCH  22  25
ATOM     25  C   UNL     1      33.910 -24.157 -18.133  0.00  0.00    +0.117 C 
BRANCH  25  28
ATOM     26 CL   UNL     1      30.244 -22.909 -14.663  0.00  0.00    -0.082 Cl
ATOM     27 CL   UNL     1      35.294 -24.022 -13.122  0.00  0.00    -0.082 Cl
ATOM     28  C   UNL     1      33.525 -23.923 -16.700  0.00  0.00    -0.001 C 
ATOM     29  C   UNL     1      34.479 -24.066 -15.699  0.00  0.00    +0.009 C 
ATOM     30  C   UNL     1      32.218 -23.566 -16.390  0.00  0.00    +0.009 C 
ATOM     31  C   UNL     1      31.859 -23.350 -15.059  0.00  0.00    +0.058 C 
ATOM     32  C   UNL     1      34.121 -23.849 -14.369  0.00  0.00    +0.058 C 
ATOM     33  C   UNL     1      32.811 -23.491 -14.048  0.00  0.00    +0.023 C 
ENDBRANCH  25  28
ENDBRANCH  22  25
ENDBRANCH   2  23
TORSDOF 4
ENDMDL
MODEL 8
REMARK VINA RESULT:     -11.1      3.768      6.272
REMARK  Name = 448407
REMARK  4 active torsions:
REMARK  status: ('A' for Active; 'I' for Inactive)
REMARK    1  A    between atoms: C_1  and  N_8
REMARK    2  A    between atoms: C_2  and  C_23
REMARK    3  A    between atoms: N_22  and  C_25
REMARK    4  A    between atoms: C_25  and  C_28
REMARK                            x       y       z     vdW  Elec       q    Type
REMARK                         _______ _______ _______ _____ _____    ______ ____
ROOT
ATOM      1  C   UNL     1      33.445 -23.905 -14.206  0.00  0.00    +0.090 C 
ATOM      2  C   UNL     1      35.772 -23.674 -14.882  0.00  0.00    +0.055 C 
ATOM      3  C   UNL     1      34.418 -23.415 -15.095  0.00  0.00    +0.023 C 
ATOM      4  C   UNL     1      33.867 -24.660 -13.099  0.00  0.00    +0.018 C 
ATOM      5  C   UNL     1      36.174 -24.425 -13.778  0.00  0.00    +0.005 C 
ATOM      6  C   UNL     1      35.221 -24.918 -12.886  0.00  0.00    +0.002 C 
ENDROOT
BRANCH   1   8
ATOM      7  O   UNL     1      28.733 -26.094 -14.202  0.00  0.00    -0.207 OA
ATOM      8  N   UNL     1      32.095 -23.646 -14.418  0.00  0.00    -0.137 N 
ATOM      9  N   UNL     1      31.608 -22.803 -15.366  0.00  0.00    -0.215 N 
ATOM     10  N   UNL     1      31.173 -24.638 -14.096  0.00  0.00    -0.143 NA
ATOM     11  N   UNL     1      29.424 -22.840 -16.495  0.00  0.00    -0.309 NA
ATOM     12  N   UNL     1      27.950 -24.626 -15.817  0.00  0.00    -0.251 NA
ATOM     13  N   UNL     1      27.273 -23.104 -17.421  0.00  0.00    -0.283 N 
ATOM     14  C   UNL     1      30.358 -23.208 -15.699  0.00  0.00    +0.243 C 
ATOM     15  C   UNL     1      30.145 -24.388 -14.846  0.00  0.00    +0.241 C 
ATOM     16  C   UNL     1      28.873 -25.118 -14.925  0.00  0.00    +0.239 C 
ATOM     17  C   UNL     1      28.228 -23.561 -16.541  0.00  0.00    +0.208 C 
ATOM     18  H   UNL     1      32.083 -22.029 -15.747  0.00  0.00    +0.175 HD
ATOM     19  H   UNL     1      27.453 -22.310 -17.975  0.00  0.00    +0.156 HD
ATOM     20  H   UNL     1      26.410 -23.571 -17.497  0.00  0.00    +0.156 HD
ENDBRANCH   1   8
BRANCH   2  23
ATOM     21  O   UNL     1      37.978 -23.232 -15.541  0.00  0.00    -0.270 OA
ATOM     22  N   UNL     1      36.293 -22.607 -17.007  0.00  0.00    -0.297 N 
ATOM     23  C   UNL     1      36.766 -23.158 -15.810  0.00  0.00    +0.246 C 
ATOM     24  H   UNL     1      35.320 -22.580 -17.153  0.00  0.00    +0.150 HD
BRANCH  22  25
ATOM     25  C   UNL     1      37.156 -22.075 -18.036  0.00  0.00    +0.117 C 
BRANCH  25  28
ATOM     26 CL   UNL     1      37.157 -18.739 -22.025  0.00  0.00    -0.082 Cl
ATOM     27 CL   UNL     1      32.585 -21.013 -20.277  0.00  0.00    -0.082 Cl
ATOM     28  C   UNL     1      36.383 -21.332 -19.088  0.00  0.00    -0.001 C 
ATOM     29  C   UNL     1      35.007 -21.501 -19.180  0.00  0.00    +0.009 C 
ATOM     30  C   UNL     1      37.053 -20.483 -19.961  0.00  0.00    +0.009 C 
ATOM     31  C   UNL     1      36.337 -19.793 -20.939  0.00  0.00    +0.058 C 
ATOM     32  C   UNL     1      34.290 -20.811 -20.156  0.00  0.00    +0.058 C 
ATOM     33  C   UNL     1      34.955 -19.957 -21.037  0.00  0.00    +0.023 C 
ENDBRANCH  25  28
ENDBRANCH  22  25
ENDBRANCH   2  23
TORSDOF 4
ENDMDL
MODEL 9
REMARK VINA RESULT:     -11.0      4.372     10.379
REMARK  Name = 448407
REMARK  4 active torsions:
REMARK  status: ('A' for Active; 'I' for Inactive)
REMARK    1  A    between atoms: C_1  and  N_8
REMARK    2  A    between atoms: C_2  and  C_23
REMARK    3  A    between atoms: N_22  and  C_25
REMARK    4  A    between atoms: C_25  and  C_28
REMARK                            x       y       z     vdW  Elec       q    Type
REMARK                         _______ _______ _______ _____ _____    ______ ____
ROOT
ATOM      1  C   UNL     1      34.660 -20.190 -20.563  0.00  0.00    +0.090 C 
ATOM      2  C   UNL     1      35.270 -21.743 -18.790  0.00  0.00    +0.055 C 
ATOM      3  C   UNL     1      35.617 -20.733 -19.687  0.00  0.00    +0.023 C 
ATOM      4  C   UNL     1      33.346 -20.687 -20.512  0.00  0.00    +0.018 C 
ATOM      5  C   UNL     1      33.962 -22.225 -18.753  0.00  0.00    +0.005 C 
ATOM      6  C   UNL     1      33.000 -21.696 -19.615  0.00  0.00    +0.002 C 
ENDROOT
BRANCH   1   8
ATOM      7  O   UNL     1      34.752 -15.034 -21.194  0.00  0.00    -0.207 OA
ATOM      8  N   UNL     1      35.005 -19.183 -21.456  0.00  0.00    -0.137 N 
ATOM      9  N   UNL     1      34.853 -19.259 -22.805  0.00  0.00    -0.215 N 
ATOM     10  N   UNL     1      34.967 -17.863 -21.013  0.00  0.00    -0.143 NA
ATOM     11  N   UNL     1      34.540 -17.441 -24.432  0.00  0.00    -0.309 NA
ATOM     12  N   UNL     1      34.498 -15.219 -23.490  0.00  0.00    -0.251 NA
ATOM     13  N   UNL     1      34.253 -15.523 -25.770  0.00  0.00    -0.283 N 
ATOM     14  C   UNL     1      34.710 -18.001 -23.292  0.00  0.00    +0.243 C 
ATOM     15  C   UNL     1      34.794 -17.159 -22.088  0.00  0.00    +0.241 C 
ATOM     16  C   UNL     1      34.680 -15.700 -22.216  0.00  0.00    +0.239 C 
ATOM     17  C   UNL     1      34.435 -16.050 -24.512  0.00  0.00    +0.208 C 
ATOM     18  H   UNL     1      34.847 -20.086 -23.338  0.00  0.00    +0.175 HD
ATOM     19  H   UNL     1      34.202 -16.120 -26.552  0.00  0.00    +0.156 HD
ATOM     20  H   UNL     1      34.173 -14.549 -25.888  0.00  0.00    +0.156 HD
ENDBRANCH   1   8
BRANCH   2  23
ATOM     21  O   UNL     1      37.482 -22.208 -18.167  0.00  0.00    -0.270 OA
ATOM     22  N   UNL     1      35.809 -22.890 -16.712  0.00  0.00    -0.297 N 
ATOM     23  C   UNL     1      36.272 -22.293 -17.891  0.00  0.00    +0.246 C 
ATOM     24  H   UNL     1      34.838 -22.924 -16.558  0.00  0.00    +0.150 HD
BRANCH  22  25
ATOM     25  C   UNL     1      36.681 -23.460 -15.711  0.00  0.00    +0.117 C 
BRANCH  25  28
ATOM     26 CL   UNL     1      36.592 -23.877 -10.528  0.00  0.00    -0.082 Cl
ATOM     27 CL   UNL     1      32.341 -25.311 -13.526  0.00  0.00    -0.082 Cl
ATOM     28  C   UNL     1      35.932 -23.844 -14.467  0.00  0.00    -0.001 C 
ATOM     29  C   UNL     1      34.638 -24.339 -14.567  0.00  0.00    +0.009 C 
ATOM     30  C   UNL     1      36.542 -23.698 -13.226  0.00  0.00    +0.009 C 
ATOM     31  C   UNL     1      35.848 -24.053 -12.070  0.00  0.00    +0.058 C 
ATOM     32  C   UNL     1      33.943 -24.695 -13.412  0.00  0.00    +0.058 C 
ATOM     33  C   UNL     1      34.547 -24.552 -12.162  0.00  0.00    +0.023 C 
ENDBRANCH  25  28
ENDBRANCH  22  25
ENDBRANCH   2  23
TORSDOF 4
ENDMDL
