MODEL 1
REMARK VINA RESULT:     -11.1      0.000      0.000
REMARK  Name = 4369498
REMARK  8 active torsions:
REMARK  status: ('A' for Active; 'I' for Inactive)
REMARK    1  A    between atoms: N_2  and  C_11
REMARK    2  A    between atoms: C_5  and  C_25
REMARK    3  A    between atoms: C_8  and  S_14
REMARK    4  A    between atoms: C_13  and  O_23
REMARK    5  A    between atoms: S_14  and  N_17
REMARK    6  A    between atoms: N_17  and  C_19
REMARK    7  A    between atoms: C_19  and  C_20
REMARK    8  A    between atoms: C_26  and  C_32
REMARK                            x       y       z     vdW  Elec       q    Type
REMARK                         _______ _______ _______ _____ _____    ______ ____
ROOT
ATOM      1  O   UNL     1      33.334 -11.590 -22.427  0.00  0.00    -0.424 OA
ATOM      2  N   UNL     1      34.094 -13.572 -23.306  0.00  0.00    -0.265 N 
ATOM      3  N   UNL     1      32.117 -13.434 -21.942  0.00  0.00    -0.193 NA
ATOM      4  C   UNL     1      33.164 -12.935 -22.559  0.00  0.00    +0.293 C 
ATOM      5  C   UNL     1      32.283 -11.211 -21.647  0.00  0.00    +0.168 C 
ATOM      6  C   UNL     1      31.548 -12.333 -21.355  0.00  0.00    +0.141 C 
ATOM      7  H   UNL     1      34.798 -12.991 -23.676  0.00  0.00    +0.157 HD
ENDROOT
BRANCH   2  11
ATOM      8  C   UNL     1      34.945 -17.177 -23.050  0.00  0.00    +0.123 C 
ATOM      9  C   UNL     1      34.814 -15.824 -22.733  0.00  0.00    +0.038 C 
ATOM     10  C   UNL     1      34.478 -17.654 -24.275  0.00  0.00    +0.023 C 
ATOM     11  C   UNL     1      34.218 -14.950 -23.641  0.00  0.00    +0.087 C 
ATOM     12  C   UNL     1      33.882 -16.779 -25.183  0.00  0.00    +0.040 C 
ATOM     13  C   UNL     1      33.751 -15.427 -24.866  0.00  0.00    +0.152 C 
BRANCH   8  14
ATOM     14  S   UNL     1      35.694 -18.273 -21.915  0.00  0.00    +0.060 S 
ATOM     15  O   UNL     1      36.965 -18.723 -22.468  0.00  0.00    -0.153 OA
ATOM     16  O   UNL     1      35.671 -17.638 -20.604  0.00  0.00    -0.153 OA
BRANCH  14  17
ATOM     17  N   UNL     1      34.606 -19.590 -21.902  0.00  0.00    -0.179 NA
ATOM     18  H   UNL     1      35.024 -20.324 -22.475  0.00  0.00    +0.149 HD
BRANCH  17  19
ATOM     19  C   UNL     1      34.225 -20.213 -20.626  0.00  0.00    +0.091 C 
BRANCH  19  20
ATOM     20  C   UNL     1      35.063 -21.418 -20.355  0.00  0.00    +0.017 C 
ATOM     21  C   UNL     1      36.199 -21.317 -19.378  0.00  0.00    +0.001 C 
ATOM     22  C   UNL     1      34.966 -22.092 -19.017  0.00  0.00    +0.001 C 
ENDBRANCH  19  20
ENDBRANCH  17  19
ENDBRANCH  14  17
ENDBRANCH   8  14
BRANCH  13  23
ATOM     23  O   UNL     1      33.167 -14.588 -25.768  0.00  0.00    -0.470 OA
ATOM     24  C   UNL     1      33.965 -14.169 -26.873  0.00  0.00    +0.253 C 
ENDBRANCH  13  23
ENDBRANCH   2  11
BRANCH   5  25
ATOM     25  C   UNL     1      32.195  -9.808 -21.328  0.00  0.00    +0.036 C 
ATOM     26  C   UNL     1      32.324  -7.494 -22.011  0.00  0.00    +0.002 C 
ATOM     27  C   UNL     1      32.410  -8.851 -22.320  0.00  0.00    +0.003 C 
ATOM     28  C   UNL     1      31.893  -9.406 -20.027  0.00  0.00    +0.003 C 
ATOM     29  C   UNL     1      32.023  -7.093 -20.709  0.00  0.00    +0.000 C 
ATOM     30  C   UNL     1      31.807  -8.049 -19.717  0.00  0.00    +0.000 C 
BRANCH  26  32
ATOM     31  N   UNL     1      31.876  -4.432 -24.095  0.00  0.00    -0.242 NA
ATOM     32  C   UNL     1      32.548  -6.502 -23.040  0.00  0.00    +0.019 C 
ATOM     33  C   UNL     1      33.599  -6.628 -23.942  0.00  0.00    +0.003 C 
ATOM     34  C   UNL     1      31.722  -5.394 -23.158  0.00  0.00    +0.099 C 
ATOM     35  C   UNL     1      33.788  -5.658 -24.920  0.00  0.00    +0.021 C 
ATOM     36  C   UNL     1      32.907  -4.589 -24.953  0.00  0.00    +0.099 C 
ENDBRANCH  26  32
ENDBRANCH   5  25
TORSDOF 8
ENDMDL
MODEL 2
REMARK VINA RESULT:     -11.1      5.572     10.595
REMARK  Name = 4369498
REMARK  8 active torsions:
REMARK  status: ('A' for Active; 'I' for Inactive)
REMARK    1  A    between atoms: N_2  and  C_11
REMARK    2  A    between atoms: C_5  and  C_25
REMARK    3  A    between atoms: C_8  and  S_14
REMARK    4  A    between atoms: C_13  and  O_23
REMARK    5  A    between atoms: S_14  and  N_17
REMARK    6  A    between atoms: N_17  and  C_19
REMARK    7  A    between atoms: C_19  and  C_20
REMARK    8  A    between atoms: C_26  and  C_32
REMARK                            x       y       z     vdW  Elec       q    Type
REMARK                         _______ _______ _______ _____ _____    ______ ____
ROOT
ATOM      1  O   UNL     1      33.753 -21.093 -19.708  0.00  0.00    -0.424 OA
ATOM      2  N   UNL     1      32.989 -22.349 -17.943  0.00  0.00    -0.265 N 
ATOM      3  N   UNL     1      35.326 -22.155 -18.478  0.00  0.00    -0.193 NA
ATOM      4  C   UNL     1      34.049 -21.907 -18.657  0.00  0.00    +0.293 C 
ATOM      5  C   UNL     1      34.974 -20.803 -20.239  0.00  0.00    +0.168 C 
ATOM      6  C   UNL     1      35.925 -21.450 -19.490  0.00  0.00    +0.141 C 
ATOM      7  H   UNL     1      32.113 -22.032 -18.261  0.00  0.00    +0.157 HD
ENDROOT
BRANCH   2  11
ATOM      8  C   UNL     1      34.084 -24.597 -15.198  0.00  0.00    +0.123 C 
ATOM      9  C   UNL     1      34.119 -23.758 -16.313  0.00  0.00    +0.038 C 
ATOM     10  C   UNL     1      32.868 -24.877 -14.575  0.00  0.00    +0.023 C 
ATOM     11  C   UNL     1      32.938 -23.201 -16.803  0.00  0.00    +0.087 C 
ATOM     12  C   UNL     1      31.687 -24.320 -15.066  0.00  0.00    +0.040 C 
ATOM     13  C   UNL     1      31.722 -23.481 -16.180  0.00  0.00    +0.152 C 
BRANCH   8  14
ATOM     14  S   UNL     1      35.561 -25.298 -14.585  0.00  0.00    +0.060 S 
ATOM     15  O   UNL     1      35.642 -25.043 -13.152  0.00  0.00    -0.153 OA
ATOM     16  O   UNL     1      35.637 -26.669 -15.071  0.00  0.00    -0.153 OA
BRANCH  14  17
ATOM     17  N   UNL     1      36.763 -24.373 -15.374  0.00  0.00    -0.179 NA
ATOM     18  H   UNL     1      36.392 -23.428 -15.468  0.00  0.00    +0.149 HD
BRANCH  17  19
ATOM     19  C   UNL     1      38.100 -24.248 -14.775  0.00  0.00    +0.091 C 
BRANCH  19  20
ATOM     20  C   UNL     1      38.690 -25.594 -14.514  0.00  0.00    +0.017 C 
ATOM     21  C   UNL     1      40.149 -25.702 -14.179  0.00  0.00    +0.001 C 
ATOM     22  C   UNL     1      39.116 -25.950 -13.120  0.00  0.00    +0.001 C 
ENDBRANCH  19  20
ENDBRANCH  17  19
ENDBRANCH  14  17
ENDBRANCH   8  14
BRANCH  13  23
ATOM     23  O   UNL     1      30.558 -22.948 -16.645  0.00  0.00    -0.470 OA
ATOM     24  C   UNL     1      29.402 -23.102 -15.823  0.00  0.00    +0.253 C 
ENDBRANCH  13  23
ENDBRANCH   2  11
BRANCH   5  25
ATOM     25  C   UNL     1      34.981 -19.939 -21.393  0.00  0.00    +0.036 C 
ATOM     26  C   UNL     1      34.826 -17.727 -22.354  0.00  0.00    +0.002 C 
ATOM     27  C   UNL     1      34.818 -18.562 -21.238  0.00  0.00    +0.003 C 
ATOM     28  C   UNL     1      35.153 -20.480 -22.668  0.00  0.00    +0.003 C 
ATOM     29  C   UNL     1      34.997 -18.269 -23.628  0.00  0.00    +0.000 C 
ATOM     30  C   UNL     1      35.161 -19.645 -23.785  0.00  0.00    +0.000 C 
BRANCH  26  32
ATOM     31  N   UNL     1      34.611 -14.099 -23.192  0.00  0.00    -0.242 NA
ATOM     32  C   UNL     1      34.656 -16.300 -22.192  0.00  0.00    +0.019 C 
ATOM     33  C   UNL     1      34.383 -15.747 -20.946  0.00  0.00    +0.003 C 
ATOM     34  C   UNL     1      34.759 -15.440 -23.275  0.00  0.00    +0.099 C 
ATOM     35  C   UNL     1      34.225 -14.371 -20.822  0.00  0.00    +0.021 C 
ATOM     36  C   UNL     1      34.347 -13.598 -21.966  0.00  0.00    +0.099 C 
ENDBRANCH  26  32
ENDBRANCH   5  25
TORSDOF 8
ENDMDL
MODEL 3
REMARK VINA RESULT:     -10.9      5.539     10.684
REMARK  Name = 4369498
REMARK  8 active torsions:
REMARK  status: ('A' for Active; 'I' for Inactive)
REMARK    1  A    between atoms: N_2  and  C_11
REMARK    2  A    between atoms: C_5  and  C_25
REMARK    3  A    between atoms: C_8  and  S_14
REMARK    4  A    between atoms: C_13  and  O_23
REMARK    5  A    between atoms: S_14  and  N_17
REMARK    6  A    between atoms: N_17  and  C_19
REMARK    7  A    between atoms: C_19  and  C_20
REMARK    8  A    between atoms: C_26  and  C_32
REMARK                            x       y       z     vdW  Elec       q    Type
REMARK                         _______ _______ _______ _____ _____    ______ ____
ROOT
ATOM      1  O   UNL     1      33.766 -21.093 -19.759  0.00  0.00    -0.424 OA
ATOM      2  N   UNL     1      33.035 -22.355 -17.984  0.00  0.00    -0.265 N 
ATOM      3  N   UNL     1      35.367 -22.082 -18.506  0.00  0.00    -0.193 NA
ATOM      4  C   UNL     1      34.083 -21.883 -18.697  0.00  0.00    +0.293 C 
ATOM      5  C   UNL     1      34.979 -20.765 -20.286  0.00  0.00    +0.168 C 
ATOM      6  C   UNL     1      35.947 -21.368 -19.522  0.00  0.00    +0.141 C 
ATOM      7  H   UNL     1      32.150 -22.074 -18.313  0.00  0.00    +0.157 HD
ENDROOT
BRANCH   2  11
ATOM      8  C   UNL     1      34.185 -24.568 -15.234  0.00  0.00    +0.123 C 
ATOM      9  C   UNL     1      34.198 -23.741 -16.358  0.00  0.00    +0.038 C 
ATOM     10  C   UNL     1      32.981 -24.847 -14.588  0.00  0.00    +0.023 C 
ATOM     11  C   UNL     1      33.007 -23.195 -16.835  0.00  0.00    +0.087 C 
ATOM     12  C   UNL     1      31.790 -24.300 -15.065  0.00  0.00    +0.040 C 
ATOM     13  C   UNL     1      31.803 -23.474 -16.189  0.00  0.00    +0.152 C 
BRANCH   8  14
ATOM     14  S   UNL     1      35.676 -25.256 -14.638  0.00  0.00    +0.060 S 
ATOM     15  O   UNL     1      35.760 -26.644 -15.074  0.00  0.00    -0.153 OA
ATOM     16  O   UNL     1      36.755 -24.336 -14.972  0.00  0.00    -0.153 OA
BRANCH  14  17
ATOM     17  N   UNL     1      35.442 -25.228 -12.945  0.00  0.00    -0.179 NA
ATOM     18  H   UNL     1      34.580 -25.740 -12.757  0.00  0.00    +0.149 HD
BRANCH  17  19
ATOM     19  C   UNL     1      36.470 -25.789 -12.055  0.00  0.00    +0.091 C 
BRANCH  19  20
ATOM     20  C   UNL     1      37.023 -24.735 -11.156  0.00  0.00    +0.017 C 
ATOM     21  C   UNL     1      38.294 -24.035 -11.541  0.00  0.00    +0.001 C 
ATOM     22  C   UNL     1      36.986 -23.301 -11.597  0.00  0.00    +0.001 C 
ENDBRANCH  19  20
ENDBRANCH  17  19
ENDBRANCH  14  17
ENDBRANCH   8  14
BRANCH  13  23
ATOM     23  O   UNL     1      30.628 -22.951 -16.640  0.00  0.00    -0.470 OA
ATOM     24  C   UNL     1      29.447 -23.298 -15.921  0.00  0.00    +0.253 C 
ENDBRANCH  13  23
ENDBRANCH   2  11
BRANCH   5  25
ATOM     25  C   UNL     1      34.963 -19.915 -21.450  0.00  0.00    +0.036 C 
ATOM     26  C   UNL     1      34.786 -17.715 -22.435  0.00  0.00    +0.002 C 
ATOM     27  C   UNL     1      34.801 -18.537 -21.308  0.00  0.00    +0.003 C 
ATOM     28  C   UNL     1      35.111 -20.471 -22.721  0.00  0.00    +0.003 C 
ATOM     29  C   UNL     1      34.934 -18.272 -23.705  0.00  0.00    +0.000 C 
ATOM     30  C   UNL     1      35.097 -19.650 -23.849  0.00  0.00    +0.000 C 
BRANCH  26  32
ATOM     31  N   UNL     1      34.459 -14.107 -23.323  0.00  0.00    -0.242 NA
ATOM     32  C   UNL     1      34.617 -16.286 -22.287  0.00  0.00    +0.019 C 
ATOM     33  C   UNL     1      34.455 -15.709 -21.033  0.00  0.00    +0.003 C 
ATOM     34  C   UNL     1      34.612 -15.448 -23.391  0.00  0.00    +0.099 C 
ATOM     35  C   UNL     1      34.295 -14.332 -20.922  0.00  0.00    +0.021 C 
ATOM     36  C   UNL     1      34.304 -13.583 -22.088  0.00  0.00    +0.099 C 
ENDBRANCH  26  32
ENDBRANCH   5  25
TORSDOF 8
ENDMDL
MODEL 4
REMARK VINA RESULT:     -10.5      3.459     11.170
REMARK  Name = 4369498
REMARK  8 active torsions:
REMARK  status: ('A' for Active; 'I' for Inactive)
REMARK    1  A    between atoms: N_2  and  C_11
REMARK    2  A    between atoms: C_5  and  C_25
REMARK    3  A    between atoms: C_8  and  S_14
REMARK    4  A    between atoms: C_13  and  O_23
REMARK    5  A    between atoms: S_14  and  N_17
REMARK    6  A    between atoms: N_17  and  C_19
REMARK    7  A    between atoms: C_19  and  C_20
REMARK    8  A    between atoms: C_26  and  C_32
REMARK                            x       y       z     vdW  Elec       q    Type
REMARK                         _______ _______ _______ _____ _____    ______ ____
ROOT
ATOM      1  O   UNL     1      32.778 -12.112 -22.904  0.00  0.00    -0.424 OA
ATOM      2  N   UNL     1      32.102 -10.229 -21.774  0.00  0.00    -0.265 N 
ATOM      3  N   UNL     1      33.880 -10.199 -23.394  0.00  0.00    -0.193 NA
ATOM      4  C   UNL     1      32.936 -10.777 -22.687  0.00  0.00    +0.293 C 
ATOM      5  C   UNL     1      33.721 -12.396 -23.845  0.00  0.00    +0.168 C 
ATOM      6  C   UNL     1      34.387 -11.233 -24.139  0.00  0.00    +0.141 C 
ATOM      7  H   UNL     1      31.466 -10.859 -21.363  0.00  0.00    +0.157 HD
ENDROOT
BRANCH   2  11
ATOM      8  C   UNL     1      31.423  -6.580 -21.740  0.00  0.00    +0.123 C 
ATOM      9  C   UNL     1      31.527  -7.900 -22.179  0.00  0.00    +0.038 C 
ATOM     10  C   UNL     1      31.788  -6.247 -20.436  0.00  0.00    +0.023 C 
ATOM     11  C   UNL     1      31.997  -8.887 -21.312  0.00  0.00    +0.087 C 
ATOM     12  C   UNL     1      32.258  -7.234 -19.570  0.00  0.00    +0.040 C 
ATOM     13  C   UNL     1      32.363  -8.554 -20.008  0.00  0.00    +0.152 C 
BRANCH   8  14
ATOM     14  S   UNL     1      30.837  -5.342 -22.825  0.00  0.00    +0.060 S 
ATOM     15  O   UNL     1      30.224  -5.984 -23.981  0.00  0.00    -0.153 OA
ATOM     16  O   UNL     1      30.060  -4.394 -22.039  0.00  0.00    -0.153 OA
BRANCH  14  17
ATOM     17  N   UNL     1      32.282  -4.579 -23.326  0.00  0.00    -0.179 NA
ATOM     18  H   UNL     1      33.051  -5.182 -23.034  0.00  0.00    +0.149 HD
BRANCH  17  19
ATOM     19  C   UNL     1      32.495  -4.277 -24.749  0.00  0.00    +0.091 C 
BRANCH  19  20
ATOM     20  C   UNL     1      33.183  -5.410 -25.433  0.00  0.00    +0.017 C 
ATOM     21  C   UNL     1      34.658  -5.320 -25.698  0.00  0.00    +0.001 C 
ATOM     22  C   UNL     1      34.140  -6.265 -24.654  0.00  0.00    +0.001 C 
ENDBRANCH  19  20
ENDBRANCH  17  19
ENDBRANCH  14  17
ENDBRANCH   8  14
BRANCH  13  23
ATOM     23  O   UNL     1      32.826  -9.504 -19.147  0.00  0.00    -0.470 OA
ATOM     24  C   UNL     1      31.860 -10.381 -18.571  0.00  0.00    +0.253 C 
ENDBRANCH  13  23
ENDBRANCH   2  11
BRANCH   5  25
ATOM     25  C   UNL     1      33.796 -13.767 -24.284  0.00  0.00    +0.036 C 
ATOM     26  C   UNL     1      34.355 -16.078 -23.850  0.00  0.00    +0.002 C 
ATOM     27  C   UNL     1      34.283 -14.752 -23.425  0.00  0.00    +0.003 C 
ATOM     28  C   UNL     1      33.378 -14.111 -25.571  0.00  0.00    +0.003 C 
ATOM     29  C   UNL     1      33.937 -16.420 -25.137  0.00  0.00    +0.000 C 
ATOM     30  C   UNL     1      33.448 -15.437 -25.997  0.00  0.00    +0.000 C 
BRANCH  26  32
ATOM     31  N   UNL     1      35.467 -17.764 -20.714  0.00  0.00    -0.242 NA
ATOM     32  C   UNL     1      34.862 -17.098 -22.959  0.00  0.00    +0.019 C 
ATOM     33  C   UNL     1      35.226 -18.352 -23.436  0.00  0.00    +0.003 C 
ATOM     34  C   UNL     1      35.000 -16.857 -21.601  0.00  0.00    +0.099 C 
ATOM     35  C   UNL     1      35.711 -19.311 -22.555  0.00  0.00    +0.021 C 
ATOM     36  C   UNL     1      35.811 -18.971 -21.216  0.00  0.00    +0.099 C 
ENDBRANCH  26  32
ENDBRANCH   5  25
TORSDOF 8
ENDMDL
MODEL 5
REMARK VINA RESULT:     -10.3      5.817     11.037
REMARK  Name = 4369498
REMARK  8 active torsions:
REMARK  status: ('A' for Active; 'I' for Inactive)
REMARK    1  A    between atoms: N_2  and  C_11
REMARK    2  A    between atoms: C_5  and  C_25
REMARK    3  A    between atoms: C_8  and  S_14
REMARK    4  A    between atoms: C_13  and  O_23
REMARK    5  A    between atoms: S_14  and  N_17
REMARK    6  A    between atoms: N_17  and  C_19
REMARK    7  A    between atoms: C_19  and  C_20
REMARK    8  A    between atoms: C_26  and  C_32
REMARK                            x       y       z     vdW  Elec       q    Type
REMARK                         _______ _______ _______ _____ _____    ______ ____
ROOT
ATOM      1  O   UNL     1      35.484 -21.249 -19.008  0.00  0.00    -0.424 OA
ATOM      2  N   UNL     1      35.700 -22.451 -17.063  0.00  0.00    -0.265 N 
ATOM      3  N   UNL     1      33.641 -22.354 -18.303  0.00  0.00    -0.193 NA
ATOM      4  C   UNL     1      34.902 -22.060 -18.082  0.00  0.00    +0.293 C 
ATOM      5  C   UNL     1      34.481 -21.013 -19.900  0.00  0.00    +0.168 C 
ATOM      6  C   UNL     1      33.365 -21.685 -19.467  0.00  0.00    +0.141 C 
ATOM      7  H   UNL     1      36.621 -22.105 -17.101  0.00  0.00    +0.157 HD
ENDROOT
BRANCH   2  11
ATOM      8  C   UNL     1      33.809 -24.270 -14.436  0.00  0.00    +0.123 C 
ATOM      9  C   UNL     1      34.098 -23.459 -15.535  0.00  0.00    +0.038 C 
ATOM     10  C   UNL     1      34.843 -24.905 -13.747  0.00  0.00    +0.023 C 
ATOM     11  C   UNL     1      35.420 -23.284 -15.942  0.00  0.00    +0.087 C 
ATOM     12  C   UNL     1      36.165 -24.729 -14.156  0.00  0.00    +0.040 C 
ATOM     13  C   UNL     1      36.453 -23.919 -15.254  0.00  0.00    +0.152 C 
BRANCH   8  14
ATOM     14  S   UNL     1      32.154 -24.487 -13.921  0.00  0.00    +0.060 S 
ATOM     15  O   UNL     1      31.910 -25.910 -13.718  0.00  0.00    -0.153 OA
ATOM     16  O   UNL     1      31.903 -23.556 -12.830  0.00  0.00    -0.153 OA
BRANCH  14  17
ATOM     17  N   UNL     1      31.272 -23.972 -15.292  0.00  0.00    -0.179 NA
ATOM     18  H   UNL     1      31.726 -24.383 -16.107  0.00  0.00    +0.149 HD
BRANCH  17  19
ATOM     19  C   UNL     1      29.840 -24.284 -15.399  0.00  0.00    +0.091 C 
BRANCH  19  20
ATOM     20  C   UNL     1      29.081 -23.113 -15.928  0.00  0.00    +0.017 C 
ATOM     21  C   UNL     1      27.919 -23.347 -16.850  0.00  0.00    +0.001 C 
ATOM     22  C   UNL     1      27.680 -22.869 -15.448  0.00  0.00    +0.001 C 
ENDBRANCH  19  20
ENDBRANCH  17  19
ENDBRANCH  14  17
ENDBRANCH   8  14
BRANCH  13  23
ATOM     23  O   UNL     1      37.752 -23.759 -15.636  0.00  0.00    -0.470 OA
ATOM     24  C   UNL     1      38.736 -24.489 -14.906  0.00  0.00    +0.253 C 
ENDBRANCH  13  23
ENDBRANCH   2  11
BRANCH   5  25
ATOM     25  C   UNL     1      34.805 -20.163 -21.019  0.00  0.00    +0.036 C 
ATOM     26  C   UNL     1      34.927 -17.964 -22.013  0.00  0.00    +0.002 C 
ATOM     27  C   UNL     1      34.612 -18.785 -20.930  0.00  0.00    +0.003 C 
ATOM     28  C   UNL     1      35.315 -20.721 -22.193  0.00  0.00    +0.003 C 
ATOM     29  C   UNL     1      35.435 -18.523 -23.186  0.00  0.00    +0.000 C 
ATOM     30  C   UNL     1      35.630 -19.901 -23.276  0.00  0.00    +0.000 C 
BRANCH  26  32
ATOM     31  N   UNL     1      34.706 -14.377 -23.012  0.00  0.00    -0.242 NA
ATOM     32  C   UNL     1      34.725 -16.535 -21.920  0.00  0.00    +0.019 C 
ATOM     33  C   UNL     1      34.371 -15.936 -20.716  0.00  0.00    +0.003 C 
ATOM     34  C   UNL     1      34.879 -15.718 -23.030  0.00  0.00    +0.099 C 
ATOM     35  C   UNL     1      34.185 -14.560 -20.659  0.00  0.00    +0.021 C 
ATOM     36  C   UNL     1      34.363 -13.832 -21.824  0.00  0.00    +0.099 C 
ENDBRANCH  26  32
ENDBRANCH   5  25
TORSDOF 8
ENDMDL
MODEL 6
REMARK VINA RESULT:     -10.2      3.271      6.175
REMARK  Name = 4369498
REMARK  8 active torsions:
REMARK  status: ('A' for Active; 'I' for Inactive)
REMARK    1  A    between atoms: N_2  and  C_11
REMARK    2  A    between atoms: C_5  and  C_25
REMARK    3  A    between atoms: C_8  and  S_14
REMARK    4  A    between atoms: C_13  and  O_23
REMARK    5  A    between atoms: S_14  and  N_17
REMARK    6  A    between atoms: N_17  and  C_19
REMARK    7  A    between atoms: C_19  and  C_20
REMARK    8  A    between atoms: C_26  and  C_32
REMARK                            x       y       z     vdW  Elec       q    Type
REMARK                         _______ _______ _______ _____ _____    ______ ____
ROOT
ATOM      1  O   UNL     1      34.633 -17.042 -22.619  0.00  0.00    -0.424 OA
ATOM      2  N   UNL     1      35.202 -19.021 -21.599  0.00  0.00    -0.265 N 
ATOM      3  N   UNL     1      34.976 -16.956 -20.385  0.00  0.00    -0.193 NA
ATOM      4  C   UNL     1      34.952 -17.698 -21.469  0.00  0.00    +0.293 C 
ATOM      5  C   UNL     1      34.437 -15.757 -22.209  0.00  0.00    +0.168 C 
ATOM      6  C   UNL     1      34.646 -15.710 -20.853  0.00  0.00    +0.141 C 
ATOM      7  H   UNL     1      35.124 -19.369 -22.517  0.00  0.00    +0.157 HD
ENDROOT
BRANCH   2  11
ATOM      8  C   UNL     1      34.930 -21.840 -19.199  0.00  0.00    +0.123 C 
ATOM      9  C   UNL     1      34.594 -20.886 -20.161  0.00  0.00    +0.038 C 
ATOM     10  C   UNL     1      36.230 -21.896 -18.697  0.00  0.00    +0.023 C 
ATOM     11  C   UNL     1      35.559 -19.990 -20.620  0.00  0.00    +0.087 C 
ATOM     12  C   UNL     1      37.195 -20.999 -19.157  0.00  0.00    +0.040 C 
ATOM     13  C   UNL     1      36.859 -20.047 -20.118  0.00  0.00    +0.152 C 
BRANCH   8  14
ATOM     14  S   UNL     1      33.722 -22.961 -18.621  0.00  0.00    +0.060 S 
ATOM     15  O   UNL     1      32.460 -22.249 -18.460  0.00  0.00    -0.153 OA
ATOM     16  O   UNL     1      33.771 -24.144 -19.469  0.00  0.00    -0.153 OA
BRANCH  14  17
ATOM     17  N   UNL     1      34.316 -23.376 -17.072  0.00  0.00    -0.179 NA
ATOM     18  H   UNL     1      34.573 -22.503 -16.611  0.00  0.00    +0.149 HD
BRANCH  17  19
ATOM     19  C   UNL     1      33.459 -24.115 -16.134  0.00  0.00    +0.091 C 
BRANCH  19  20
ATOM     20  C   UNL     1      32.772 -23.180 -15.195  0.00  0.00    +0.017 C 
ATOM     21  C   UNL     1      31.279 -23.248 -15.052  0.00  0.00    +0.001 C 
ATOM     22  C   UNL     1      32.162 -23.721 -13.936  0.00  0.00    +0.001 C 
ENDBRANCH  19  20
ENDBRANCH  17  19
ENDBRANCH  14  17
ENDBRANCH   8  14
BRANCH  13  23
ATOM     23  O   UNL     1      37.816 -19.179 -20.553  0.00  0.00    -0.470 OA
ATOM     24  C   UNL     1      37.982 -19.052 -21.964  0.00  0.00    +0.253 C 
ENDBRANCH  13  23
ENDBRANCH   2  11
BRANCH   5  25
ATOM     25  C   UNL     1      34.079 -14.806 -23.232  0.00  0.00    +0.036 C 
ATOM     26  C   UNL     1      33.736 -12.522 -23.939  0.00  0.00    +0.002 C 
ATOM     27  C   UNL     1      34.082 -13.441 -22.950  0.00  0.00    +0.003 C 
ATOM     28  C   UNL     1      33.729 -15.253 -24.507  0.00  0.00    +0.003 C 
ATOM     29  C   UNL     1      33.386 -12.969 -25.214  0.00  0.00    +0.000 C 
ATOM     30  C   UNL     1      33.383 -14.334 -25.498  0.00  0.00    +0.000 C 
BRANCH  26  32
ATOM     31  N   UNL     1      32.655  -9.210 -22.606  0.00  0.00    -0.242 NA
ATOM     32  C   UNL     1      33.739 -11.105 -23.645  0.00  0.00    +0.019 C 
ATOM     33  C   UNL     1      34.770 -10.283 -24.085  0.00  0.00    +0.003 C 
ATOM     34  C   UNL     1      32.713 -10.524 -22.915  0.00  0.00    +0.099 C 
ATOM     35  C   UNL     1      34.744  -8.925 -23.787  0.00  0.00    +0.021 C 
ATOM     36  C   UNL     1      33.674  -8.443 -23.051  0.00  0.00    +0.099 C 
ENDBRANCH  26  32
ENDBRANCH   5  25
TORSDOF 8
ENDMDL
MODEL 7
REMARK VINA RESULT:     -10.1      5.116      9.998
REMARK  Name = 4369498
REMARK  8 active torsions:
REMARK  status: ('A' for Active; 'I' for Inactive)
REMARK    1  A    between atoms: N_2  and  C_11
REMARK    2  A    between atoms: C_5  and  C_25
REMARK    3  A    between atoms: C_8  and  S_14
REMARK    4  A    between atoms: C_13  and  O_23
REMARK    5  A    between atoms: S_14  and  N_17
REMARK    6  A    between atoms: N_17  and  C_19
REMARK    7  A    between atoms: C_19  and  C_20
REMARK    8  A    between atoms: C_26  and  C_32
REMARK                            x       y       z     vdW  Elec       q    Type
REMARK                         _______ _______ _______ _____ _____    ______ ____
ROOT
ATOM      1  O   UNL     1      34.340 -20.699 -20.550  0.00  0.00    -0.424 OA
ATOM      2  N   UNL     1      34.106 -22.013 -18.680  0.00  0.00    -0.265 N 
ATOM      3  N   UNL     1      36.182 -20.946 -19.262  0.00  0.00    -0.193 NA
ATOM      4  C   UNL     1      34.915 -21.243 -19.442  0.00  0.00    +0.293 C 
ATOM      5  C   UNL     1      35.354 -19.989 -21.120  0.00  0.00    +0.168 C 
ATOM      6  C   UNL     1      36.469 -20.142 -20.335  0.00  0.00    +0.141 C 
ATOM      7  H   UNL     1      33.182 -22.097 -19.011  0.00  0.00    +0.157 HD
ENDROOT
BRANCH   2  11
ATOM      8  C   UNL     1      35.961 -23.444 -15.800  0.00  0.00    +0.123 C 
ATOM      9  C   UNL     1      35.680 -22.750 -16.978  0.00  0.00    +0.038 C 
ATOM     10  C   UNL     1      34.939 -24.107 -15.121  0.00  0.00    +0.023 C 
ATOM     11  C   UNL     1      34.377 -22.721 -17.476  0.00  0.00    +0.087 C 
ATOM     12  C   UNL     1      33.636 -24.077 -15.619  0.00  0.00    +0.040 C 
ATOM     13  C   UNL     1      33.355 -23.384 -16.796  0.00  0.00    +0.152 C 
BRANCH   8  14
ATOM     14  S   UNL     1      37.592 -23.484 -15.177  0.00  0.00    +0.060 S 
ATOM     15  O   UNL     1      38.482 -22.866 -16.152  0.00  0.00    -0.153 OA
ATOM     16  O   UNL     1      37.560 -22.972 -13.814  0.00  0.00    -0.153 OA
BRANCH  14  17
ATOM     17  N   UNL     1      37.923 -25.160 -15.121  0.00  0.00    -0.179 NA
ATOM     18  H   UNL     1      38.926 -25.258 -14.967  0.00  0.00    +0.149 HD
BRANCH  17  19
ATOM     19  C   UNL     1      37.255 -26.005 -14.121  0.00  0.00    +0.091 C 
BRANCH  19  20
ATOM     20  C   UNL     1      38.088 -26.125 -12.889  0.00  0.00    +0.017 C 
ATOM     21  C   UNL     1      37.744 -25.294 -11.687  0.00  0.00    +0.001 C 
ATOM     22  C   UNL     1      37.503 -26.774 -11.668  0.00  0.00    +0.001 C 
ENDBRANCH  19  20
ENDBRANCH  17  19
ENDBRANCH  14  17
ENDBRANCH   8  14
BRANCH  13  23
ATOM     23  O   UNL     1      32.077 -23.369 -17.267  0.00  0.00    -0.470 OA
ATOM     24  C   UNL     1      31.033 -23.250 -16.302  0.00  0.00    +0.253 C 
ENDBRANCH  13  23
ENDBRANCH   2  11
BRANCH   5  25
ATOM     25  C   UNL     1      35.038 -19.287 -22.339  0.00  0.00    +0.036 C 
ATOM     26  C   UNL     1      34.532 -17.229 -23.500  0.00  0.00    +0.002 C 
ATOM     27  C   UNL     1      34.837 -17.907 -22.321  0.00  0.00    +0.003 C 
ATOM     28  C   UNL     1      34.933 -19.990 -23.541  0.00  0.00    +0.003 C 
ATOM     29  C   UNL     1      34.428 -17.933 -24.701  0.00  0.00    +0.000 C 
ATOM     30  C   UNL     1      34.629 -19.313 -24.721  0.00  0.00    +0.000 C 
BRANCH  26  32
ATOM     31  N   UNL     1      33.626 -13.796 -24.642  0.00  0.00    -0.242 NA
ATOM     32  C   UNL     1      34.324 -15.798 -23.480  0.00  0.00    +0.019 C 
ATOM     33  C   UNL     1      34.598 -15.049 -22.341  0.00  0.00    +0.003 C 
ATOM     34  C   UNL     1      33.843 -15.129 -24.595  0.00  0.00    +0.099 C 
ATOM     35  C   UNL     1      34.388 -13.675 -22.352  0.00  0.00    +0.021 C 
ATOM     36  C   UNL     1      33.904 -13.102 -23.517  0.00  0.00    +0.099 C 
ENDBRANCH  26  32
ENDBRANCH   5  25
TORSDOF 8
ENDMDL
MODEL 8
REMARK VINA RESULT:     -10.0      2.933     11.276
REMARK  Name = 4369498
REMARK  8 active torsions:
REMARK  status: ('A' for Active; 'I' for Inactive)
REMARK    1  A    between atoms: N_2  and  C_11
REMARK    2  A    between atoms: C_5  and  C_25
REMARK    3  A    between atoms: C_8  and  S_14
REMARK    4  A    between atoms: C_13  and  O_23
REMARK    5  A    between atoms: S_14  and  N_17
REMARK    6  A    between atoms: N_17  and  C_19
REMARK    7  A    between atoms: C_19  and  C_20
REMARK    8  A    between atoms: C_26  and  C_32
REMARK                            x       y       z     vdW  Elec       q    Type
REMARK                         _______ _______ _______ _____ _____    ______ ____
ROOT
ATOM      1  O   UNL     1      33.055 -13.721 -22.523  0.00  0.00    -0.424 OA
ATOM      2  N   UNL     1      32.259 -11.816 -21.514  0.00  0.00    -0.265 N 
ATOM      3  N   UNL     1      33.792 -11.757 -23.368  0.00  0.00    -0.193 NA
ATOM      4  C   UNL     1      33.042 -12.360 -22.474  0.00  0.00    +0.293 C 
ATOM      5  C   UNL     1      33.902 -13.995 -23.554  0.00  0.00    +0.168 C 
ATOM      6  C   UNL     1      34.347 -12.801 -24.063  0.00  0.00    +0.141 C 
ATOM      7  H   UNL     1      31.781 -12.467 -20.951  0.00  0.00    +0.157 HD
ENDROOT
BRANCH   2  11
ATOM      8  C   UNL     1      31.535  -8.196 -21.907  0.00  0.00    +0.123 C 
ATOM      9  C   UNL     1      31.770  -9.537 -22.212  0.00  0.00    +0.038 C 
ATOM     10  C   UNL     1      31.549  -7.770 -20.579  0.00  0.00    +0.023 C 
ATOM     11  C   UNL     1      32.019 -10.451 -21.189  0.00  0.00    +0.087 C 
ATOM     12  C   UNL     1      31.798  -8.685 -19.555  0.00  0.00    +0.040 C 
ATOM     13  C   UNL     1      32.033 -10.025 -19.860  0.00  0.00    +0.152 C 
BRANCH   8  14
ATOM     14  S   UNL     1      31.227  -7.049 -23.188  0.00  0.00    +0.060 S 
ATOM     15  O   UNL     1      30.744  -7.771 -24.358  0.00  0.00    -0.153 OA
ATOM     16  O   UNL     1      30.421  -5.970 -22.633  0.00  0.00    -0.153 OA
BRANCH  14  17
ATOM     17  N   UNL     1      32.790  -6.444 -23.524  0.00  0.00    -0.179 NA
ATOM     18  H   UNL     1      33.301  -7.192 -23.993  0.00  0.00    +0.149 HD
BRANCH  17  19
ATOM     19  C   UNL     1      32.945  -5.239 -24.352  0.00  0.00    +0.091 C 
BRANCH  19  20
ATOM     20  C   UNL     1      33.585  -5.574 -25.658  0.00  0.00    +0.017 C 
ATOM     21  C   UNL     1      34.211  -4.477 -26.470  0.00  0.00    +0.001 C 
ATOM     22  C   UNL     1      35.079  -5.491 -25.785  0.00  0.00    +0.001 C 
ENDBRANCH  19  20
ENDBRANCH  17  19
ENDBRANCH  14  17
ENDBRANCH   8  14
BRANCH  13  23
ATOM     23  O   UNL     1      32.275 -10.903 -18.846  0.00  0.00    -0.470 OA
ATOM     24  C   UNL     1      31.146 -11.374 -18.114  0.00  0.00    +0.253 C 
ENDBRANCH  13  23
ENDBRANCH   2  11
BRANCH   5  25
ATOM     25  C   UNL     1      34.120 -15.389 -23.851  0.00  0.00    +0.036 C 
ATOM     26  C   UNL     1      34.864 -17.584 -23.166  0.00  0.00    +0.002 C 
ATOM     27  C   UNL     1      34.654 -16.236 -22.879  0.00  0.00    +0.003 C 
ATOM     28  C   UNL     1      33.796 -15.893 -25.111  0.00  0.00    +0.003 C 
ATOM     29  C   UNL     1      34.540 -18.086 -24.427  0.00  0.00    +0.000 C 
ATOM     30  C   UNL     1      34.006 -17.241 -25.399  0.00  0.00    +0.000 C 
BRANCH  26  32
ATOM     31  N   UNL     1      37.276 -19.046 -20.726  0.00  0.00    -0.242 NA
ATOM     32  C   UNL     1      35.418 -18.461 -22.159  0.00  0.00    +0.019 C 
ATOM     33  C   UNL     1      34.684 -19.527 -21.653  0.00  0.00    +0.003 C 
ATOM     34  C   UNL     1      36.699 -18.265 -21.666  0.00  0.00    +0.099 C 
ATOM     35  C   UNL     1      35.244 -20.353 -20.685  0.00  0.00    +0.021 C 
ATOM     36  C   UNL     1      36.532 -20.072 -20.259  0.00  0.00    +0.099 C 
ENDBRANCH  26  32
ENDBRANCH   5  25
TORSDOF 8
ENDMDL
MODEL 9
REMARK VINA RESULT:      -9.8      2.841     11.300
REMARK  Name = 4369498
REMARK  8 active torsions:
REMARK  status: ('A' for Active; 'I' for Inactive)
REMARK    1  A    between atoms: N_2  and  C_11
REMARK    2  A    between atoms: C_5  and  C_25
REMARK    3  A    between atoms: C_8  and  S_14
REMARK    4  A    between atoms: C_13  and  O_23
REMARK    5  A    between atoms: S_14  and  N_17
REMARK    6  A    between atoms: N_17  and  C_19
REMARK    7  A    between atoms: C_19  and  C_20
REMARK    8  A    between atoms: C_26  and  C_32
REMARK                            x       y       z     vdW  Elec       q    Type
REMARK                         _______ _______ _______ _____ _____    ______ ____
ROOT
ATOM      1  O   UNL     1      34.352 -15.184 -23.165  0.00  0.00    -0.424 OA
ATOM      2  N   UNL     1      34.039 -12.937 -23.530  0.00  0.00    -0.265 N 
ATOM      3  N   UNL     1      34.438 -13.851 -21.340  0.00  0.00    -0.193 NA
ATOM      4  C   UNL     1      34.274 -13.929 -22.642  0.00  0.00    +0.293 C 
ATOM      5  C   UNL     1      34.589 -15.969 -22.077  0.00  0.00    +0.168 C 
ATOM      6  C   UNL     1      34.640 -15.156 -20.973  0.00  0.00    +0.141 C 
ATOM      7  H   UNL     1      33.950 -13.232 -24.466  0.00  0.00    +0.157 HD
ENDROOT
BRANCH   2  11
ATOM      8  C   UNL     1      32.973  -9.699 -22.061  0.00  0.00    +0.123 C 
ATOM      9  C   UNL     1      33.121 -11.071 -22.269  0.00  0.00    +0.038 C 
ATOM     10  C   UNL     1      33.607  -8.793 -22.911  0.00  0.00    +0.023 C 
ATOM     11  C   UNL     1      33.900 -11.535 -23.328  0.00  0.00    +0.087 C 
ATOM     12  C   UNL     1      34.386  -9.258 -23.971  0.00  0.00    +0.040 C 
ATOM     13  C   UNL     1      34.533 -10.629 -24.179  0.00  0.00    +0.152 C 
BRANCH   8  14
ATOM     14  S   UNL     1      31.995  -9.116 -20.737  0.00  0.00    +0.060 S 
ATOM     15  O   UNL     1      31.117 -10.191 -20.294  0.00  0.00    -0.153 OA
ATOM     16  O   UNL     1      32.883  -8.477 -19.775  0.00  0.00    -0.153 OA
BRANCH  14  17
ATOM     17  N   UNL     1      31.045  -7.908 -21.486  0.00  0.00    -0.179 NA
ATOM     18  H   UNL     1      30.073  -8.107 -21.249  0.00  0.00    +0.149 HD
BRANCH  17  19
ATOM     19  C   UNL     1      31.278  -6.492 -21.168  0.00  0.00    +0.091 C 
BRANCH  19  20
ATOM     20  C   UNL     1      30.888  -5.621 -22.315  0.00  0.00    +0.017 C 
ATOM     21  C   UNL     1      31.858  -4.590 -22.817  0.00  0.00    +0.001 C 
ATOM     22  C   UNL     1      31.564  -5.809 -23.642  0.00  0.00    +0.001 C 
ENDBRANCH  19  20
ENDBRANCH  17  19
ENDBRANCH  14  17
ENDBRANCH   8  14
BRANCH  13  23
ATOM     23  O   UNL     1      35.298 -11.063 -25.220  0.00  0.00    -0.470 OA
ATOM     24  C   UNL     1      36.159 -10.106 -25.833  0.00  0.00    +0.253 C 
ENDBRANCH  13  23
ENDBRANCH   2  11
BRANCH   5  25
ATOM     25  C   UNL     1      34.722 -17.384 -22.325  0.00  0.00    +0.036 C 
ATOM     26  C   UNL     1      34.697 -19.662 -21.520  0.00  0.00    +0.002 C 
ATOM     27  C   UNL     1      34.569 -18.294 -21.279  0.00  0.00    +0.003 C 
ATOM     28  C   UNL     1      35.001 -17.843 -23.613  0.00  0.00    +0.003 C 
ATOM     29  C   UNL     1      34.978 -20.119 -22.807  0.00  0.00    +0.000 C 
ATOM     30  C   UNL     1      35.129 -19.210 -23.854  0.00  0.00    +0.000 C 
BRANCH  26  32
ATOM     31  N   UNL     1      33.068 -21.810 -18.942  0.00  0.00    -0.242 NA
ATOM     32  C   UNL     1      34.540 -20.605 -20.435  0.00  0.00    +0.019 C 
ATOM     33  C   UNL     1      35.644 -21.209 -19.843  0.00  0.00    +0.003 C 
ATOM     34  C   UNL     1      33.284 -20.937 -19.951  0.00  0.00    +0.099 C 
ATOM     35  C   UNL     1      35.461 -22.111 -18.802  0.00  0.00    +0.021 C 
ATOM     36  C   UNL     1      34.164 -22.375 -18.392  0.00  0.00    +0.099 C 
ENDBRANCH  26  32
ENDBRANCH   5  25
TORSDOF 8
ENDMDL
