MODEL 1
REMARK VINA RESULT:     -11.8      0.000      0.000
REMARK  Name = 107971
REMARK  9 active torsions:
REMARK  status: ('A' for Active; 'I' for Inactive)
REMARK    1  A    between atoms: C_3  and  O_20
REMARK    2  A    between atoms: C_10  and  C_12
REMARK    3  A    between atoms: C_17  and  O_18
REMARK    4  A    between atoms: O_20  and  C_26
REMARK    5  A    between atoms: C_22  and  O_27
REMARK    6  A    between atoms: C_23  and  O_29
REMARK    7  A    between atoms: C_24  and  O_31
REMARK    8  A    between atoms: C_25  and  C_33
REMARK    9  A    between atoms: C_33  and  O_34
REMARK                            x       y       z     vdW  Elec       q    Type
REMARK                         _______ _______ _______ _____ _____    ______ ____
ROOT
ATOM      1  O   UNL     1      36.294 -21.973 -18.530  0.00  0.00    -0.450 OA
ATOM      2  O   UNL     1      32.668 -20.892 -20.056  0.00  0.00    -0.286 OA
ATOM      3  C   UNL     1      34.132 -23.877 -16.301  0.00  0.00    +0.144 C 
ATOM      4  C   UNL     1      35.271 -23.344 -16.903  0.00  0.00    +0.075 C 
ATOM      5  C   UNL     1      32.864 -23.534 -16.773  0.00  0.00    +0.037 C 
ATOM      6  C   UNL     1      35.140 -22.465 -17.979  0.00  0.00    +0.151 C 
ATOM      7  C   UNL     1      33.873 -22.122 -18.451  0.00  0.00    +0.074 C 
ATOM      8  C   UNL     1      32.730 -22.656 -17.849  0.00  0.00    +0.009 C 
ATOM      9  C   UNL     1      33.759 -21.195 -19.592  0.00  0.00    +0.202 C 
ATOM     10  C   UNL     1      35.037 -20.669 -20.147  0.00  0.00    +0.077 C 
ATOM     11  C   UNL     1      36.175 -21.094 -19.579  0.00  0.00    +0.183 C 
ENDROOT
BRANCH  10  12
ATOM     12  C   UNL     1      35.064 -19.707 -21.261  0.00  0.00    +0.006 C 
ATOM     13  C   UNL     1      34.812 -20.137 -22.566  0.00  0.00    +0.003 C 
ATOM     14  C   UNL     1      35.341 -18.359 -21.017  0.00  0.00    +0.003 C 
ATOM     15  C   UNL     1      34.838 -19.225 -23.621  0.00  0.00    +0.037 C 
ATOM     16  C   UNL     1      35.368 -17.448 -22.072  0.00  0.00    +0.037 C 
ATOM     17  C   UNL     1      35.116 -17.880 -23.374  0.00  0.00    +0.134 C 
BRANCH  17  18
ATOM     18  O   UNL     1      35.142 -16.990 -24.404  0.00  0.00    -0.506 OA
ATOM     19  H   UNL     1      34.996 -16.079 -24.238  0.00  0.00    +0.292 HD
ENDBRANCH  17  18
ENDBRANCH  10  12
BRANCH   3  20
ATOM     20  O   UNL     1      34.255 -24.735 -15.248  0.00  0.00    -0.450 OA
BRANCH  20  26
ATOM     21  O   UNL     1      36.415 -25.044 -14.422  0.00  0.00    -0.316 OA
ATOM     22  C   UNL     1      35.556 -24.510 -11.734  0.00  0.00    +0.173 C 
ATOM     23  C   UNL     1      36.920 -25.122 -12.052  0.00  0.00    +0.169 C 
ATOM     24  C   UNL     1      34.567 -24.738 -12.877  0.00  0.00    +0.210 C 
ATOM     25  C   UNL     1      37.396 -24.695 -13.443  0.00  0.00    +0.177 C 
ATOM     26  C   UNL     1      35.179 -24.361 -14.226  0.00  0.00    +0.318 C 
BRANCH  22  27
ATOM     27  O   UNL     1      35.060 -25.129 -10.546  0.00  0.00    -0.379 OA
ATOM     28  H   UNL     1      35.011 -24.471  -9.834  0.00  0.00    +0.211 HD
ENDBRANCH  22  27
BRANCH  23  29
ATOM     29  O   UNL     1      37.868 -24.693 -11.078  0.00  0.00    -0.379 OA
ATOM     30  H   UNL     1      37.491 -24.800 -10.191  0.00  0.00    +0.211 HD
ENDBRANCH  23  29
BRANCH  24  31
ATOM     31  O   UNL     1      33.409 -23.930 -12.670  0.00  0.00    -0.377 OA
ATOM     32  H   UNL     1      32.909 -23.864 -13.498  0.00  0.00    +0.211 HD
ENDBRANCH  24  31
BRANCH  25  33
ATOM     33  C   UNL     1      38.700 -25.386 -13.830  0.00  0.00    +0.169 C 
BRANCH  33  34
ATOM     34  O   UNL     1      38.820 -26.576 -13.074  0.00  0.00    -0.379 OA
ATOM     35  H   UNL     1      39.752 -26.844 -13.039  0.00  0.00    +0.211 HD
ENDBRANCH  33  34
ENDBRANCH  25  33
ENDBRANCH  20  26
ENDBRANCH   3  20
TORSDOF 9
ENDMDL
MODEL 2
REMARK VINA RESULT:     -11.6      1.003      1.960
REMARK  Name = 107971
REMARK  9 active torsions:
REMARK  status: ('A' for Active; 'I' for Inactive)
REMARK    1  A    between atoms: C_3  and  O_20
REMARK    2  A    between atoms: C_10  and  C_12
REMARK    3  A    between atoms: C_17  and  O_18
REMARK    4  A    between atoms: O_20  and  C_26
REMARK    5  A    between atoms: C_22  and  O_27
REMARK    6  A    between atoms: C_23  and  O_29
REMARK    7  A    between atoms: C_24  and  O_31
REMARK    8  A    between atoms: C_25  and  C_33
REMARK    9  A    between atoms: C_33  and  O_34
REMARK                            x       y       z     vdW  Elec       q    Type
REMARK                         _______ _______ _______ _____ _____    ______ ____
ROOT
ATOM      1  O   UNL     1      33.031 -21.633 -19.496  0.00  0.00    -0.450 OA
ATOM      2  O   UNL     1      36.781 -20.166 -20.156  0.00  0.00    -0.286 OA
ATOM      3  C   UNL     1      34.817 -23.380 -16.844  0.00  0.00    +0.144 C 
ATOM      4  C   UNL     1      33.793 -22.937 -17.681  0.00  0.00    +0.075 C 
ATOM      5  C   UNL     1      36.121 -22.921 -17.030  0.00  0.00    +0.037 C 
ATOM      6  C   UNL     1      34.077 -22.033 -18.705  0.00  0.00    +0.151 C 
ATOM      7  C   UNL     1      35.381 -21.574 -18.891  0.00  0.00    +0.074 C 
ATOM      8  C   UNL     1      36.408 -22.017 -18.054  0.00  0.00    +0.009 C 
ATOM      9  C   UNL     1      35.656 -20.616 -19.978  0.00  0.00    +0.202 C 
ATOM     10  C   UNL     1      34.496 -20.223 -20.824  0.00  0.00    +0.077 C 
ATOM     11  C   UNL     1      33.304 -20.755 -20.518  0.00  0.00    +0.183 C 
ENDROOT
BRANCH  10  12
ATOM     12  C   UNL     1      34.640 -19.304 -21.965  0.00  0.00    +0.006 C 
ATOM     13  C   UNL     1      35.007 -17.973 -21.752  0.00  0.00    +0.003 C 
ATOM     14  C   UNL     1      34.411 -19.761 -23.266  0.00  0.00    +0.003 C 
ATOM     15  C   UNL     1      35.144 -17.104 -22.834  0.00  0.00    +0.037 C 
ATOM     16  C   UNL     1      34.546 -18.891 -24.347  0.00  0.00    +0.037 C 
ATOM     17  C   UNL     1      34.913 -17.562 -24.132  0.00  0.00    +0.134 C 
BRANCH  17  18
ATOM     18  O   UNL     1      35.046 -16.713 -25.187  0.00  0.00    -0.506 OA
ATOM     19  H   UNL     1      34.304 -16.515 -25.724  0.00  0.00    +0.292 HD
ENDBRANCH  17  18
ENDBRANCH  10  12
BRANCH   3  20
ATOM     20  O   UNL     1      34.543 -24.264 -15.843  0.00  0.00    -0.450 OA
BRANCH  20  26
ATOM     21  O   UNL     1      36.479 -25.233 -14.974  0.00  0.00    -0.316 OA
ATOM     22  C   UNL     1      35.575 -24.829 -12.278  0.00  0.00    +0.173 C 
ATOM     23  C   UNL     1      36.758 -25.735 -12.618  0.00  0.00    +0.169 C 
ATOM     24  C   UNL     1      34.654 -24.644 -13.484  0.00  0.00    +0.210 C 
ATOM     25  C   UNL     1      37.436 -25.279 -13.913  0.00  0.00    +0.177 C 
ATOM     26  C   UNL     1      35.448 -24.278 -14.738  0.00  0.00    +0.318 C 
BRANCH  22  27
ATOM     27  O   UNL     1      34.845 -25.438 -11.212  0.00  0.00    -0.379 OA
ATOM     28  H   UNL     1      34.683 -26.371 -11.422  0.00  0.00    +0.211 HD
ENDBRANCH  22  27
BRANCH  23  29
ATOM     29  O   UNL     1      37.704 -25.695 -11.553  0.00  0.00    -0.379 OA
ATOM     30  H   UNL     1      37.651 -24.836 -11.106  0.00  0.00    +0.211 HD
ENDBRANCH  23  29
BRANCH  24  31
ATOM     31  O   UNL     1      33.729 -23.591 -13.217  0.00  0.00    -0.377 OA
ATOM     32  H   UNL     1      33.612 -23.499 -12.259  0.00  0.00    +0.211 HD
ENDBRANCH  24  31
BRANCH  25  33
ATOM     33  C   UNL     1      38.547 -26.236 -14.336  0.00  0.00    +0.169 C 
BRANCH  33  34
ATOM     34  O   UNL     1      38.080 -27.564 -14.180  0.00  0.00    -0.379 OA
ATOM     35  H   UNL     1      38.793 -28.116 -13.824  0.00  0.00    +0.211 HD
ENDBRANCH  33  34
ENDBRANCH  25  33
ENDBRANCH  20  26
ENDBRANCH   3  20
TORSDOF 9
ENDMDL
MODEL 3
REMARK VINA RESULT:     -11.0      1.646      3.218
REMARK  Name = 107971
REMARK  9 active torsions:
REMARK  status: ('A' for Active; 'I' for Inactive)
REMARK    1  A    between atoms: C_3  and  O_20
REMARK    2  A    between atoms: C_10  and  C_12
REMARK    3  A    between atoms: C_17  and  O_18
REMARK    4  A    between atoms: O_20  and  C_26
REMARK    5  A    between atoms: C_22  and  O_27
REMARK    6  A    between atoms: C_23  and  O_29
REMARK    7  A    between atoms: C_24  and  O_31
REMARK    8  A    between atoms: C_25  and  C_33
REMARK    9  A    between atoms: C_33  and  O_34
REMARK                            x       y       z     vdW  Elec       q    Type
REMARK                         _______ _______ _______ _____ _____    ______ ____
ROOT
ATOM      1  O   UNL     1      37.191 -20.102 -19.834  0.00  0.00    -0.450 OA
ATOM      2  O   UNL     1      33.373 -20.460 -21.225  0.00  0.00    -0.286 OA
ATOM      3  C   UNL     1      35.918 -22.521 -17.427  0.00  0.00    +0.144 C 
ATOM      4  C   UNL     1      36.774 -21.654 -18.104  0.00  0.00    +0.075 C 
ATOM      5  C   UNL     1      34.598 -22.676 -17.850  0.00  0.00    +0.037 C 
ATOM      6  C   UNL     1      36.306 -20.940 -19.208  0.00  0.00    +0.151 C 
ATOM      7  C   UNL     1      34.986 -21.094 -19.631  0.00  0.00    +0.074 C 
ATOM      8  C   UNL     1      34.127 -21.963 -18.954  0.00  0.00    +0.009 C 
ATOM      9  C   UNL     1      34.514 -20.332 -20.802  0.00  0.00    +0.202 C 
ATOM     10  C   UNL     1      35.503 -19.419 -21.440  0.00  0.00    +0.077 C 
ATOM     11  C   UNL     1      36.735 -19.382 -20.912  0.00  0.00    +0.183 C 
ENDROOT
BRANCH  10  12
ATOM     12  C   UNL     1      35.151 -18.573 -22.593  0.00  0.00    +0.006 C 
ATOM     13  C   UNL     1      35.325 -17.189 -22.526  0.00  0.00    +0.003 C 
ATOM     14  C   UNL     1      34.643 -19.153 -23.758  0.00  0.00    +0.003 C 
ATOM     15  C   UNL     1      34.992 -16.388 -23.618  0.00  0.00    +0.037 C 
ATOM     16  C   UNL     1      34.309 -18.351 -24.850  0.00  0.00    +0.037 C 
ATOM     17  C   UNL     1      34.483 -16.969 -24.780  0.00  0.00    +0.134 C 
BRANCH  17  18
ATOM     18  O   UNL     1      34.158 -16.187 -25.846  0.00  0.00    -0.506 OA
ATOM     19  H   UNL     1      34.263 -15.258 -25.793  0.00  0.00    +0.292 HD
ENDBRANCH  17  18
ENDBRANCH  10  12
BRANCH   3  20
ATOM     20  O   UNL     1      36.372 -23.219 -16.347  0.00  0.00    -0.450 OA
BRANCH  20  26
ATOM     21  O   UNL     1      34.366 -23.251 -15.157  0.00  0.00    -0.316 OA
ATOM     22  C   UNL     1      35.172 -25.584 -13.690  0.00  0.00    +0.173 C 
ATOM     23  C   UNL     1      33.971 -24.733 -13.279  0.00  0.00    +0.169 C 
ATOM     24  C   UNL     1      36.149 -24.784 -14.552  0.00  0.00    +0.210 C 
ATOM     25  C   UNL     1      33.365 -24.027 -14.495  0.00  0.00    +0.177 C 
ATOM     26  C   UNL     1      35.422 -24.051 -15.680  0.00  0.00    +0.318 C 
BRANCH  22  27
ATOM     27  O   UNL     1      35.834 -26.017 -12.500  0.00  0.00    -0.379 OA
ATOM     28  H   UNL     1      36.785 -26.101 -12.671  0.00  0.00    +0.211 HD
ENDBRANCH  22  27
BRANCH  23  29
ATOM     29  O   UNL     1      32.984 -25.569 -12.680  0.00  0.00    -0.379 OA
ATOM     30  H   UNL     1      32.116 -25.370 -13.063  0.00  0.00    +0.211 HD
ENDBRANCH  23  29
BRANCH  24  31
ATOM     31  O   UNL     1      37.102 -25.672 -15.136  0.00  0.00    -0.377 OA
ATOM     32  H   UNL     1      37.793 -25.156 -15.580  0.00  0.00    +0.211 HD
ENDBRANCH  24  31
BRANCH  25  33
ATOM     33  C   UNL     1      32.237 -23.081 -14.095  0.00  0.00    +0.169 C 
BRANCH  33  34
ATOM     34  O   UNL     1      32.202 -22.996 -12.682  0.00  0.00    -0.379 OA
ATOM     35  H   UNL     1      32.308 -23.882 -12.302  0.00  0.00    +0.211 HD
ENDBRANCH  33  34
ENDBRANCH  25  33
ENDBRANCH  20  26
ENDBRANCH   3  20
TORSDOF 9
ENDMDL
MODEL 4
REMARK VINA RESULT:     -10.4      1.705     10.210
REMARK  Name = 107971
REMARK  9 active torsions:
REMARK  status: ('A' for Active; 'I' for Inactive)
REMARK    1  A    between atoms: C_3  and  O_20
REMARK    2  A    between atoms: C_10  and  C_12
REMARK    3  A    between atoms: C_17  and  O_18
REMARK    4  A    between atoms: O_20  and  C_26
REMARK    5  A    between atoms: C_22  and  O_27
REMARK    6  A    between atoms: C_23  and  O_29
REMARK    7  A    between atoms: C_24  and  O_31
REMARK    8  A    between atoms: C_25  and  C_33
REMARK    9  A    between atoms: C_33  and  O_34
REMARK                            x       y       z     vdW  Elec       q    Type
REMARK                         _______ _______ _______ _____ _____    ______ ____
ROOT
ATOM      1  O   UNL     1      33.528 -23.134 -17.434  0.00  0.00    -0.450 OA
ATOM      2  O   UNL     1      37.463 -22.802 -16.409  0.00  0.00    -0.286 OA
ATOM      3  C   UNL     1      34.672 -21.033 -20.181  0.00  0.00    +0.144 C 
ATOM      4  C   UNL     1      33.850 -21.794 -19.351  0.00  0.00    +0.075 C 
ATOM      5  C   UNL     1      36.024 -20.875 -19.874  0.00  0.00    +0.037 C 
ATOM      6  C   UNL     1      34.383 -22.398 -18.212  0.00  0.00    +0.151 C 
ATOM      7  C   UNL     1      35.735 -22.240 -17.905  0.00  0.00    +0.074 C 
ATOM      8  C   UNL     1      36.560 -21.477 -18.736  0.00  0.00    +0.009 C 
ATOM      9  C   UNL     1      36.277 -22.890 -16.698  0.00  0.00    +0.202 C 
ATOM     10  C   UNL     1      35.310 -23.664 -15.871  0.00  0.00    +0.077 C 
ATOM     11  C   UNL     1      34.041 -23.718 -16.301  0.00  0.00    +0.183 C 
ENDROOT
BRANCH  10  12
ATOM     12  C   UNL     1      35.712 -24.330 -14.621  0.00  0.00    +0.006 C 
ATOM     13  C   UNL     1      36.421 -25.533 -14.664  0.00  0.00    +0.003 C 
ATOM     14  C   UNL     1      35.386 -23.761 -13.388  0.00  0.00    +0.003 C 
ATOM     15  C   UNL     1      36.801 -26.164 -13.480  0.00  0.00    +0.037 C 
ATOM     16  C   UNL     1      35.766 -24.392 -12.204  0.00  0.00    +0.037 C 
ATOM     17  C   UNL     1      36.473 -25.594 -12.249  0.00  0.00    +0.134 C 
BRANCH  17  18
ATOM     18  O   UNL     1      36.844 -26.210 -11.094  0.00  0.00    -0.506 OA
ATOM     19  H   UNL     1      37.740 -26.447 -10.957  0.00  0.00    +0.292 HD
ENDBRANCH  17  18
ENDBRANCH  10  12
BRANCH   3  20
ATOM     20  O   UNL     1      34.154 -20.440 -21.294  0.00  0.00    -0.450 OA
BRANCH  20  26
ATOM     21  O   UNL     1      34.389 -18.130 -21.065  0.00  0.00    -0.316 OA
ATOM     22  C   UNL     1      35.099 -17.841 -23.833  0.00  0.00    +0.173 C 
ATOM     23  C   UNL     1      34.730 -16.647 -22.952  0.00  0.00    +0.169 C 
ATOM     24  C   UNL     1      34.529 -19.142 -23.268  0.00  0.00    +0.210 C 
ATOM     25  C   UNL     1      35.052 -16.936 -21.483  0.00  0.00    +0.177 C 
ATOM     26  C   UNL     1      34.835 -19.281 -21.777  0.00  0.00    +0.318 C 
BRANCH  22  27
ATOM     27  O   UNL     1      34.559 -17.612 -25.136  0.00  0.00    -0.379 OA
ATOM     28  H   UNL     1      33.611 -17.421 -25.064  0.00  0.00    +0.211 HD
ENDBRANCH  22  27
BRANCH  23  29
ATOM     29  O   UNL     1      35.464 -15.502 -23.379  0.00  0.00    -0.379 OA
ATOM     30  H   UNL     1      35.312 -15.355 -24.325  0.00  0.00    +0.211 HD
ENDBRANCH  23  29
BRANCH  24  31
ATOM     31  O   UNL     1      35.115 -20.250 -23.950  0.00  0.00    -0.377 OA
ATOM     32  H   UNL     1      35.389 -19.975 -24.839  0.00  0.00    +0.211 HD
ENDBRANCH  24  31
BRANCH  25  33
ATOM     33  C   UNL     1      34.585 -15.806 -20.571  0.00  0.00    +0.169 C 
BRANCH  33  34
ATOM     34  O   UNL     1      34.218 -14.700 -21.375  0.00  0.00    -0.379 OA
ATOM     35  H   UNL     1      33.482 -14.227 -20.957  0.00  0.00    +0.211 HD
ENDBRANCH  33  34
ENDBRANCH  25  33
ENDBRANCH  20  26
ENDBRANCH   3  20
TORSDOF 9
ENDMDL
MODEL 5
REMARK VINA RESULT:     -10.4      1.483      2.152
REMARK  Name = 107971
REMARK  9 active torsions:
REMARK  status: ('A' for Active; 'I' for Inactive)
REMARK    1  A    between atoms: C_3  and  O_20
REMARK    2  A    between atoms: C_10  and  C_12
REMARK    3  A    between atoms: C_17  and  O_18
REMARK    4  A    between atoms: O_20  and  C_26
REMARK    5  A    between atoms: C_22  and  O_27
REMARK    6  A    between atoms: C_23  and  O_29
REMARK    7  A    between atoms: C_24  and  O_31
REMARK    8  A    between atoms: C_25  and  C_33
REMARK    9  A    between atoms: C_33  and  O_34
REMARK                            x       y       z     vdW  Elec       q    Type
REMARK                         _______ _______ _______ _____ _____    ______ ____
ROOT
ATOM      1  O   UNL     1      36.690 -20.773 -19.663  0.00  0.00    -0.450 OA
ATOM      2  O   UNL     1      32.868 -20.157 -20.950  0.00  0.00    -0.286 OA
ATOM      3  C   UNL     1      34.965 -23.178 -17.539  0.00  0.00    +0.144 C 
ATOM      4  C   UNL     1      35.975 -22.421 -18.131  0.00  0.00    +0.075 C 
ATOM      5  C   UNL     1      33.637 -23.002 -17.931  0.00  0.00    +0.037 C 
ATOM      6  C   UNL     1      35.656 -21.487 -19.117  0.00  0.00    +0.151 C 
ATOM      7  C   UNL     1      34.329 -21.311 -19.509  0.00  0.00    +0.074 C 
ATOM      8  C   UNL     1      33.314 -22.068 -18.917  0.00  0.00    +0.009 C 
ATOM      9  C   UNL     1      34.015 -20.321 -20.556  0.00  0.00    +0.202 C 
ATOM     10  C   UNL     1      35.166 -19.554 -21.108  0.00  0.00    +0.077 C 
ATOM     11  C   UNL     1      36.383 -19.839 -20.623  0.00  0.00    +0.183 C 
ENDROOT
BRANCH  10  12
ATOM     12  C   UNL     1      34.987 -18.509 -22.130  0.00  0.00    +0.006 C 
ATOM     13  C   UNL     1      34.999 -17.161 -21.764  0.00  0.00    +0.003 C 
ATOM     14  C   UNL     1      34.804 -18.863 -23.469  0.00  0.00    +0.003 C 
ATOM     15  C   UNL     1      34.830 -16.172 -22.733  0.00  0.00    +0.037 C 
ATOM     16  C   UNL     1      34.634 -17.874 -24.437  0.00  0.00    +0.037 C 
ATOM     17  C   UNL     1      34.647 -16.528 -24.070  0.00  0.00    +0.134 C 
BRANCH  17  18
ATOM     18  O   UNL     1      34.481 -15.563 -25.015  0.00  0.00    -0.506 OA
ATOM     19  H   UNL     1      33.669 -15.100 -25.073  0.00  0.00    +0.292 HD
ENDBRANCH  17  18
ENDBRANCH  10  12
BRANCH   3  20
ATOM     20  O   UNL     1      35.273 -24.090 -16.574  0.00  0.00    -0.450 OA
BRANCH  20  26
ATOM     21  O   UNL     1      36.291 -23.841 -14.490  0.00  0.00    -0.316 OA
ATOM     22  C   UNL     1      33.800 -24.272 -13.126  0.00  0.00    +0.173 C 
ATOM     23  C   UNL     1      35.147 -24.298 -12.402  0.00  0.00    +0.169 C 
ATOM     24  C   UNL     1      33.970 -24.545 -14.620  0.00  0.00    +0.210 C 
ATOM     25  C   UNL     1      36.171 -23.423 -13.129  0.00  0.00    +0.177 C 
ATOM     26  C   UNL     1      35.078 -23.679 -15.221  0.00  0.00    +0.318 C 
BRANCH  22  27
ATOM     27  O   UNL     1      32.970 -25.282 -12.550  0.00  0.00    -0.379 OA
ATOM     28  H   UNL     1      32.038 -25.074 -12.727  0.00  0.00    +0.211 HD
ENDBRANCH  22  27
BRANCH  23  29
ATOM     29  O   UNL     1      34.976 -23.817 -11.071  0.00  0.00    -0.379 OA
ATOM     30  H   UNL     1      35.820 -23.472 -10.742  0.00  0.00    +0.211 HD
ENDBRANCH  23  29
BRANCH  24  31
ATOM     31  O   UNL     1      32.751 -24.244 -15.298  0.00  0.00    -0.377 OA
ATOM     32  H   UNL     1      32.008 -24.641 -14.818  0.00  0.00    +0.211 HD
ENDBRANCH  24  31
BRANCH  25  33
ATOM     33  C   UNL     1      37.553 -23.525 -12.492  0.00  0.00    +0.169 C 
BRANCH  33  34
ATOM     34  O   UNL     1      37.709 -22.453 -11.580  0.00  0.00    -0.379 OA
ATOM     35  H   UNL     1      38.605 -22.470 -11.212  0.00  0.00    +0.211 HD
ENDBRANCH  33  34
ENDBRANCH  25  33
ENDBRANCH  20  26
ENDBRANCH   3  20
TORSDOF 9
ENDMDL
MODEL 6
REMARK VINA RESULT:     -10.2      1.218      2.549
REMARK  Name = 107971
REMARK  9 active torsions:
REMARK  status: ('A' for Active; 'I' for Inactive)
REMARK    1  A    between atoms: C_3  and  O_20
REMARK    2  A    between atoms: C_10  and  C_12
REMARK    3  A    between atoms: C_17  and  O_18
REMARK    4  A    between atoms: O_20  and  C_26
REMARK    5  A    between atoms: C_22  and  O_27
REMARK    6  A    between atoms: C_23  and  O_29
REMARK    7  A    between atoms: C_24  and  O_31
REMARK    8  A    between atoms: C_25  and  C_33
REMARK    9  A    between atoms: C_33  and  O_34
REMARK                            x       y       z     vdW  Elec       q    Type
REMARK                         _______ _______ _______ _____ _____    ______ ____
ROOT
ATOM      1  O   UNL     1      33.003 -22.073 -18.915  0.00  0.00    -0.450 OA
ATOM      2  O   UNL     1      36.777 -20.588 -19.363  0.00  0.00    -0.286 OA
ATOM      3  C   UNL     1      34.657 -23.854 -16.201  0.00  0.00    +0.144 C 
ATOM      4  C   UNL     1      33.676 -23.401 -17.082  0.00  0.00    +0.075 C 
ATOM      5  C   UNL     1      35.968 -23.389 -16.314  0.00  0.00    +0.037 C 
ATOM      6  C   UNL     1      34.009 -22.482 -18.078  0.00  0.00    +0.151 C 
ATOM      7  C   UNL     1      35.319 -22.018 -18.191  0.00  0.00    +0.074 C 
ATOM      8  C   UNL     1      36.304 -22.470 -17.309  0.00  0.00    +0.009 C 
ATOM      9  C   UNL     1      35.646 -21.044 -19.248  0.00  0.00    +0.202 C 
ATOM     10  C   UNL     1      34.530 -20.642 -20.147  0.00  0.00    +0.077 C 
ATOM     11  C   UNL     1      33.325 -21.181 -19.909  0.00  0.00    +0.183 C 
ENDROOT
BRANCH  10  12
ATOM     12  C   UNL     1      34.729 -19.706 -21.267  0.00  0.00    +0.006 C 
ATOM     13  C   UNL     1      34.625 -20.157 -22.585  0.00  0.00    +0.003 C 
ATOM     14  C   UNL     1      35.022 -18.364 -21.014  0.00  0.00    +0.003 C 
ATOM     15  C   UNL     1      34.814 -19.270 -23.644  0.00  0.00    +0.037 C 
ATOM     16  C   UNL     1      35.211 -17.478 -22.074  0.00  0.00    +0.037 C 
ATOM     17  C   UNL     1      35.107 -17.931 -23.390  0.00  0.00    +0.134 C 
BRANCH  17  18
ATOM     18  O   UNL     1      35.292 -17.066 -24.424  0.00  0.00    -0.506 OA
ATOM     19  H   UNL     1      34.583 -16.526 -24.715  0.00  0.00    +0.292 HD
ENDBRANCH  17  18
ENDBRANCH  10  12
BRANCH   3  20
ATOM     20  O   UNL     1      34.336 -24.753 -15.228  0.00  0.00    -0.450 OA
BRANCH  20  26
ATOM     21  O   UNL     1      35.872 -23.928 -13.678  0.00  0.00    -0.316 OA
ATOM     22  C   UNL     1      37.707 -26.068 -14.227  0.00  0.00    +0.173 C 
ATOM     23  C   UNL     1      38.113 -24.823 -13.439  0.00  0.00    +0.169 C 
ATOM     24  C   UNL     1      36.487 -25.794 -15.105  0.00  0.00    +0.210 C 
ATOM     25  C   UNL     1      36.902 -24.212 -12.728  0.00  0.00    +0.177 C 
ATOM     26  C   UNL     1      35.376 -25.103 -14.314  0.00  0.00    +0.318 C 
BRANCH  22  27
ATOM     27  O   UNL     1      38.810 -26.448 -15.052  0.00  0.00    -0.379 OA
ATOM     28  H   UNL     1      39.620 -26.470 -14.518  0.00  0.00    +0.211 HD
ENDBRANCH  22  27
BRANCH  23  29
ATOM     29  O   UNL     1      39.097 -25.178 -12.470  0.00  0.00    -0.379 OA
ATOM     30  H   UNL     1      38.712 -25.121 -11.582  0.00  0.00    +0.211 HD
ENDBRANCH  23  29
BRANCH  24  31
ATOM     31  O   UNL     1      35.976 -27.029 -15.607  0.00  0.00    -0.377 OA
ATOM     32  H   UNL     1      35.739 -26.925 -16.541  0.00  0.00    +0.211 HD
ENDBRANCH  24  31
BRANCH  25  33
ATOM     33  C   UNL     1      37.259 -22.903 -12.030  0.00  0.00    +0.169 C 
BRANCH  33  34
ATOM     34  O   UNL     1      37.644 -23.194 -10.699  0.00  0.00    -0.379 OA
ATOM     35  H   UNL     1      37.085 -23.905 -10.349  0.00  0.00    +0.211 HD
ENDBRANCH  33  34
ENDBRANCH  25  33
ENDBRANCH  20  26
ENDBRANCH   3  20
TORSDOF 9
ENDMDL
MODEL 7
REMARK VINA RESULT:     -10.0      1.406      2.601
REMARK  Name = 107971
REMARK  9 active torsions:
REMARK  status: ('A' for Active; 'I' for Inactive)
REMARK    1  A    between atoms: C_3  and  O_20
REMARK    2  A    between atoms: C_10  and  C_12
REMARK    3  A    between atoms: C_17  and  O_18
REMARK    4  A    between atoms: O_20  and  C_26
REMARK    5  A    between atoms: C_22  and  O_27
REMARK    6  A    between atoms: C_23  and  O_29
REMARK    7  A    between atoms: C_24  and  O_31
REMARK    8  A    between atoms: C_25  and  C_33
REMARK    9  A    between atoms: C_33  and  O_34
REMARK                            x       y       z     vdW  Elec       q    Type
REMARK                         _______ _______ _______ _____ _____    ______ ____
ROOT
ATOM      1  O   UNL     1      32.839 -21.218 -20.165  0.00  0.00    -0.450 OA
ATOM      2  O   UNL     1      36.641 -19.806 -20.607  0.00  0.00    -0.286 OA
ATOM      3  C   UNL     1      34.504 -23.219 -17.616  0.00  0.00    +0.144 C 
ATOM      4  C   UNL     1      33.516 -22.683 -18.441  0.00  0.00    +0.075 C 
ATOM      5  C   UNL     1      35.825 -22.782 -17.730  0.00  0.00    +0.037 C 
ATOM      6  C   UNL     1      33.852 -21.709 -19.382  0.00  0.00    +0.151 C 
ATOM      7  C   UNL     1      35.171 -21.272 -19.496  0.00  0.00    +0.074 C 
ATOM      8  C   UNL     1      36.163 -21.808 -18.670  0.00  0.00    +0.009 C 
ATOM      9  C   UNL     1      35.501 -20.239 -20.495  0.00  0.00    +0.202 C 
ATOM     10  C   UNL     1      34.376 -19.748 -21.337  0.00  0.00    +0.077 C 
ATOM     11  C   UNL     1      33.162 -20.270 -21.106  0.00  0.00    +0.183 C 
ENDROOT
BRANCH  10  12
ATOM     12  C   UNL     1      34.575 -18.746 -22.397  0.00  0.00    +0.006 C 
ATOM     13  C   UNL     1      34.950 -17.441 -22.067  0.00  0.00    +0.003 C 
ATOM     14  C   UNL     1      34.391 -19.096 -23.736  0.00  0.00    +0.003 C 
ATOM     15  C   UNL     1      35.138 -16.492 -23.071  0.00  0.00    +0.037 C 
ATOM     16  C   UNL     1      34.579 -18.147 -24.740  0.00  0.00    +0.037 C 
ATOM     17  C   UNL     1      34.952 -16.844 -24.408  0.00  0.00    +0.134 C 
BRANCH  17  18
ATOM     18  O   UNL     1      35.136 -15.918 -25.388  0.00  0.00    -0.506 OA
ATOM     19  H   UNL     1      35.212 -16.191 -26.281  0.00  0.00    +0.292 HD
ENDBRANCH  17  18
ENDBRANCH  10  12
BRANCH   3  20
ATOM     20  O   UNL     1      34.181 -24.172 -16.697  0.00  0.00    -0.450 OA
BRANCH  20  26
ATOM     21  O   UNL     1      35.402 -24.617 -14.760  0.00  0.00    -0.316 OA
ATOM     22  C   UNL     1      33.189 -23.869 -13.089  0.00  0.00    +0.173 C 
ATOM     23  C   UNL     1      34.411 -24.610 -12.547  0.00  0.00    +0.169 C 
ATOM     24  C   UNL     1      33.041 -24.075 -14.597  0.00  0.00    +0.210 C 
ATOM     25  C   UNL     1      35.651 -24.300 -13.389  0.00  0.00    +0.177 C 
ATOM     26  C   UNL     1      34.362 -23.823 -15.324  0.00  0.00    +0.318 C 
BRANCH  22  27
ATOM     27  O   UNL     1      32.032 -24.379 -12.424  0.00  0.00    -0.379 OA
ATOM     28  H   UNL     1      31.928 -23.935 -11.568  0.00  0.00    +0.211 HD
ENDBRANCH  22  27
BRANCH  23  29
ATOM     29  O   UNL     1      34.645 -24.210 -11.199  0.00  0.00    -0.379 OA
ATOM     30  H   UNL     1      35.167 -23.393 -11.191  0.00  0.00    +0.211 HD
ENDBRANCH  23  29
BRANCH  24  31
ATOM     31  O   UNL     1      32.069 -23.162 -15.106  0.00  0.00    -0.377 OA
ATOM     32  H   UNL     1      32.519 -22.400 -15.503  0.00  0.00    +0.211 HD
ENDBRANCH  24  31
BRANCH  25  33
ATOM     33  C   UNL     1      36.858 -25.117 -12.939  0.00  0.00    +0.169 C 
BRANCH  33  34
ATOM     34  O   UNL     1      36.394 -26.319 -12.352  0.00  0.00    -0.379 OA
ATOM     35  H   UNL     1      35.442 -26.248 -12.181  0.00  0.00    +0.211 HD
ENDBRANCH  33  34
ENDBRANCH  25  33
ENDBRANCH  20  26
ENDBRANCH   3  20
TORSDOF 9
ENDMDL
MODEL 8
REMARK VINA RESULT:      -9.9      1.591      3.058
REMARK  Name = 107971
REMARK  9 active torsions:
REMARK  status: ('A' for Active; 'I' for Inactive)
REMARK    1  A    between atoms: C_3  and  O_20
REMARK    2  A    between atoms: C_10  and  C_12
REMARK    3  A    between atoms: C_17  and  O_18
REMARK    4  A    between atoms: O_20  and  C_26
REMARK    5  A    between atoms: C_22  and  O_27
REMARK    6  A    between atoms: C_23  and  O_29
REMARK    7  A    between atoms: C_24  and  O_31
REMARK    8  A    between atoms: C_25  and  C_33
REMARK    9  A    between atoms: C_33  and  O_34
REMARK                            x       y       z     vdW  Elec       q    Type
REMARK                         _______ _______ _______ _____ _____    ______ ____
ROOT
ATOM      1  O   UNL     1      37.747 -19.726 -19.113  0.00  0.00    -0.450 OA
ATOM      2  O   UNL     1      34.255 -21.267 -20.554  0.00  0.00    -0.286 OA
ATOM      3  C   UNL     1      37.090 -22.204 -16.525  0.00  0.00    +0.144 C 
ATOM      4  C   UNL     1      37.699 -21.187 -17.259  0.00  0.00    +0.075 C 
ATOM      5  C   UNL     1      35.888 -22.762 -16.963  0.00  0.00    +0.037 C 
ATOM      6  C   UNL     1      37.103 -20.728 -18.433  0.00  0.00    +0.151 C 
ATOM      7  C   UNL     1      35.902 -21.284 -18.872  0.00  0.00    +0.074 C 
ATOM      8  C   UNL     1      35.290 -22.304 -18.138  0.00  0.00    +0.009 C 
ATOM      9  C   UNL     1      35.292 -20.785 -20.118  0.00  0.00    +0.202 C 
ATOM     10  C   UNL     1      36.014 -19.684 -20.814  0.00  0.00    +0.077 C 
ATOM     11  C   UNL     1      37.159 -19.255 -20.262  0.00  0.00    +0.183 C 
ENDROOT
BRANCH  10  12
ATOM     12  C   UNL     1      35.495 -19.069 -22.047  0.00  0.00    +0.006 C 
ATOM     13  C   UNL     1      35.535 -17.682 -22.210  0.00  0.00    +0.003 C 
ATOM     14  C   UNL     1      34.961 -19.871 -23.059  0.00  0.00    +0.003 C 
ATOM     15  C   UNL     1      35.044 -17.101 -23.378  0.00  0.00    +0.037 C 
ATOM     16  C   UNL     1      34.468 -19.289 -24.226  0.00  0.00    +0.037 C 
ATOM     17  C   UNL     1      34.510 -17.904 -24.387  0.00  0.00    +0.134 C 
BRANCH  17  18
ATOM     18  O   UNL     1      34.030 -17.336 -25.526  0.00  0.00    -0.506 OA
ATOM     19  H   UNL     1      33.153 -17.006 -25.551  0.00  0.00    +0.292 HD
ENDBRANCH  17  18
ENDBRANCH  10  12
BRANCH   3  20
ATOM     20  O   UNL     1      37.669 -22.655 -15.375  0.00  0.00    -0.450 OA
BRANCH  20  26
ATOM     21  O   UNL     1      36.304 -23.916 -13.965  0.00  0.00    -0.316 OA
ATOM     22  C   UNL     1      38.263 -26.009 -13.797  0.00  0.00    +0.173 C 
ATOM     23  C   UNL     1      37.063 -25.932 -12.853  0.00  0.00    +0.169 C 
ATOM     24  C   UNL     1      38.579 -24.641 -14.403  0.00  0.00    +0.210 C 
ATOM     25  C   UNL     1      35.891 -25.210 -13.523  0.00  0.00    +0.177 C 
ATOM     26  C   UNL     1      37.321 -23.977 -14.961  0.00  0.00    +0.318 C 
BRANCH  22  27
ATOM     27  O   UNL     1      39.388 -26.467 -13.045  0.00  0.00    -0.379 OA
ATOM     28  H   UNL     1      40.179 -26.459 -13.608  0.00  0.00    +0.211 HD
ENDBRANCH  22  27
BRANCH  23  29
ATOM     29  O   UNL     1      36.661 -27.251 -12.494  0.00  0.00    -0.379 OA
ATOM     30  H   UNL     1      37.447 -27.797 -12.336  0.00  0.00    +0.211 HD
ENDBRANCH  23  29
BRANCH  24  31
ATOM     31  O   UNL     1      39.512 -24.801 -15.471  0.00  0.00    -0.377 OA
ATOM     32  H   UNL     1      40.414 -24.807 -15.114  0.00  0.00    +0.211 HD
ENDBRANCH  24  31
BRANCH  25  33
ATOM     33  C   UNL     1      34.722 -25.018 -12.561  0.00  0.00    +0.169 C 
BRANCH  33  34
ATOM     34  O   UNL     1      35.142 -25.396 -11.263  0.00  0.00    -0.379 OA
ATOM     35  H   UNL     1      34.366 -25.619 -10.725  0.00  0.00    +0.211 HD
ENDBRANCH  33  34
ENDBRANCH  25  33
ENDBRANCH  20  26
ENDBRANCH   3  20
TORSDOF 9
ENDMDL
MODEL 9
REMARK VINA RESULT:      -9.8      2.110     10.338
REMARK  Name = 107971
REMARK  9 active torsions:
REMARK  status: ('A' for Active; 'I' for Inactive)
REMARK    1  A    between atoms: C_3  and  O_20
REMARK    2  A    between atoms: C_10  and  C_12
REMARK    3  A    between atoms: C_17  and  O_18
REMARK    4  A    between atoms: O_20  and  C_26
REMARK    5  A    between atoms: C_22  and  O_27
REMARK    6  A    between atoms: C_23  and  O_29
REMARK    7  A    between atoms: C_24  and  O_31
REMARK    8  A    between atoms: C_25  and  C_33
REMARK    9  A    between atoms: C_33  and  O_34
REMARK                            x       y       z     vdW  Elec       q    Type
REMARK                         _______ _______ _______ _____ _____    ______ ____
ROOT
ATOM      1  O   UNL     1      36.903 -20.813 -19.439  0.00  0.00    -0.450 OA
ATOM      2  O   UNL     1      33.091 -22.033 -18.649  0.00  0.00    -0.286 OA
ATOM      3  C   UNL     1      35.190 -19.217 -22.229  0.00  0.00    +0.144 C 
ATOM      4  C   UNL     1      36.194 -19.629 -21.354  0.00  0.00    +0.075 C 
ATOM      5  C   UNL     1      33.869 -19.613 -22.016  0.00  0.00    +0.037 C 
ATOM      6  C   UNL     1      35.875 -20.439 -20.264  0.00  0.00    +0.151 C 
ATOM      7  C   UNL     1      34.555 -20.835 -20.051  0.00  0.00    +0.074 C 
ATOM      8  C   UNL     1      33.546 -20.423 -20.926  0.00  0.00    +0.009 C 
ATOM      9  C   UNL     1      34.240 -21.688 -18.890  0.00  0.00    +0.202 C 
ATOM     10  C   UNL     1      35.389 -22.087 -18.031  0.00  0.00    +0.077 C 
ATOM     11  C   UNL     1      36.601 -21.625 -18.372  0.00  0.00    +0.183 C 
ENDROOT
BRANCH  10  12
ATOM     12  C   UNL     1      35.220 -22.967 -16.862  0.00  0.00    +0.006 C 
ATOM     13  C   UNL     1      33.967 -23.512 -16.571  0.00  0.00    +0.003 C 
ATOM     14  C   UNL     1      36.312 -23.260 -16.042  0.00  0.00    +0.003 C 
ATOM     15  C   UNL     1      33.808 -24.346 -15.464  0.00  0.00    +0.037 C 
ATOM     16  C   UNL     1      36.151 -24.093 -14.935  0.00  0.00    +0.037 C 
ATOM     17  C   UNL     1      34.900 -24.636 -14.645  0.00  0.00    +0.134 C 
BRANCH  17  18
ATOM     18  O   UNL     1      34.743 -25.449 -13.565  0.00  0.00    -0.506 OA
ATOM     19  H   UNL     1      34.478 -25.088 -12.743  0.00  0.00    +0.292 HD
ENDBRANCH  17  18
ENDBRANCH  10  12
BRANCH   3  20
ATOM     20  O   UNL     1      35.498 -18.427 -23.297  0.00  0.00    -0.450 OA
BRANCH  20  26
ATOM     21  O   UNL     1      34.708 -16.770 -21.857  0.00  0.00    -0.316 OA
ATOM     22  C   UNL     1      33.939 -15.099 -24.063  0.00  0.00    +0.173 C 
ATOM     23  C   UNL     1      33.477 -14.830 -22.631  0.00  0.00    +0.169 C 
ATOM     24  C   UNL     1      34.342 -16.561 -24.248  0.00  0.00    +0.210 C 
ATOM     25  C   UNL     1      34.489 -15.377 -21.621  0.00  0.00    +0.177 C 
ATOM     26  C   UNL     1      35.283 -17.024 -23.136  0.00  0.00    +0.318 C 
BRANCH  22  27
ATOM     27  O   UNL     1      32.856 -14.789 -24.942  0.00  0.00    -0.379 OA
ATOM     28  H   UNL     1      33.081 -14.006 -25.469  0.00  0.00    +0.211 HD
ENDBRANCH  22  27
BRANCH  23  29
ATOM     29  O   UNL     1      33.332 -13.425 -22.438  0.00  0.00    -0.379 OA
ATOM     30  H   UNL     1      33.036 -13.014 -23.265  0.00  0.00    +0.211 HD
ENDBRANCH  23  29
BRANCH  24  31
ATOM     31  O   UNL     1      35.018 -16.711 -25.497  0.00  0.00    -0.377 OA
ATOM     32  H   UNL     1      34.898 -15.909 -26.028  0.00  0.00    +0.211 HD
ENDBRANCH  24  31
BRANCH  25  33
ATOM     33  C   UNL     1      33.995 -15.225 -20.186  0.00  0.00    +0.169 C 
BRANCH  33  34
ATOM     34  O   UNL     1      32.579 -15.219 -20.196  0.00  0.00    -0.379 OA
ATOM     35  H   UNL     1      32.262 -14.389 -20.585  0.00  0.00    +0.211 HD
ENDBRANCH  33  34
ENDBRANCH  25  33
ENDBRANCH  20  26
ENDBRANCH   3  20
TORSDOF 9
ENDMDL
