MODEL 1
REMARK VINA RESULT:     -12.0      0.000      0.000
REMARK  Name = 6102777
REMARK  2 active torsions:
REMARK  status: ('A' for Active; 'I' for Inactive)
REMARK    1  A    between atoms: C_4  and  S_16
REMARK    2  A    between atoms: S_16  and  N_19
REMARK                            x       y       z     vdW  Elec       q    Type
REMARK                         _______ _______ _______ _____ _____    ______ ____
ROOT
ATOM      1  O   UNL     1      33.794 -23.413 -16.349  0.00  0.00    -0.453 OA
ATOM      2  O   UNL     1      37.770 -22.444 -16.312  0.00  0.00    -0.286 OA
ATOM      3  C   UNL     1      35.943 -23.416 -15.188  0.00  0.00    +0.075 A 
ATOM      4  C   UNL     1      36.048 -24.405 -12.989  0.00  0.00    +0.126 C 
ATOM      5  C   UNL     1      34.583 -23.717 -15.267  0.00  0.00    +0.148 A 
ATOM      6  C   UNL     1      36.680 -23.758 -14.052  0.00  0.00    +0.026 C 
ATOM      7  C   UNL     1      35.721 -22.418 -17.473  0.00  0.00    +0.074 A 
ATOM      8  C   UNL     1      36.583 -22.734 -16.323  0.00  0.00    +0.201 A 
ATOM      9  C   UNL     1      34.374 -22.777 -17.419  0.00  0.00    +0.148 A 
ATOM     10  C   UNL     1      34.688 -24.707 -13.063  0.00  0.00    +0.023 C 
ATOM     11  C   UNL     1      33.956 -24.364 -14.200  0.00  0.00    +0.039 C 
ATOM     12  C   UNL     1      36.239 -21.772 -18.598  0.00  0.00    +0.006 C 
ATOM     13  C   UNL     1      33.538 -22.487 -18.499  0.00  0.00    +0.038 C 
ATOM     14  C   UNL     1      35.399 -21.484 -19.674  0.00  0.00    +0.000 C 
ATOM     15  C   UNL     1      34.051 -21.841 -19.625  0.00  0.00    +0.003 C 
ENDROOT
BRANCH   4  16
ATOM     16  S   UNL     1      36.960 -24.837 -11.564  0.00  0.00    +0.081 S 
ATOM     17  O   UNL     1      36.736 -23.810 -10.554  0.00  0.00    -0.149 OA
ATOM     18  O   UNL     1      36.673 -26.230 -11.248  0.00  0.00    -0.149 OA
BRANCH  16  19
ATOM     19  N   UNL     1      38.562 -24.712 -12.141  0.00  0.00    -0.156 N 
ATOM     20  N   UNL     1      40.423 -25.454 -13.474  0.00  0.00    -0.094 NA
ATOM     21  N   UNL     1      38.514 -26.668 -13.579  0.00  0.00    -0.071 NA
ATOM     22  N   UNL     1      40.492 -26.513 -14.294  0.00  0.00    -0.139 N 
ATOM     23  N   UNL     1      39.384 -27.261 -14.385  0.00  0.00    -0.020 NA
ATOM     24  C   UNL     1      39.171 -25.601 -13.059  0.00  0.00    +0.145 C 
ATOM     25  H   UNL     1      39.106 -23.961 -11.809  0.00  0.00    +0.186 HD
ATOM     26  H   UNL     1      41.310 -26.728 -14.798  0.00  0.00    +0.197 HD
ENDBRANCH  16  19
ENDBRANCH   4  16
TORSDOF 2
ENDMDL
MODEL 2
REMARK VINA RESULT:     -12.0      2.868      4.185
REMARK  Name = 6102777
REMARK  2 active torsions:
REMARK  status: ('A' for Active; 'I' for Inactive)
REMARK    1  A    between atoms: C_4  and  S_16
REMARK    2  A    between atoms: S_16  and  N_19
REMARK                            x       y       z     vdW  Elec       q    Type
REMARK                         _______ _______ _______ _____ _____    ______ ____
ROOT
ATOM      1  O   UNL     1      36.879 -21.075 -18.875  0.00  0.00    -0.453 OA
ATOM      2  O   UNL     1      32.968 -22.278 -18.811  0.00  0.00    -0.286 OA
ATOM      3  C   UNL     1      35.086 -22.322 -17.783  0.00  0.00    +0.075 A 
ATOM      4  C   UNL     1      35.600 -23.505 -15.743  0.00  0.00    +0.126 C 
ATOM      5  C   UNL     1      36.405 -21.876 -17.866  0.00  0.00    +0.148 A 
ATOM      6  C   UNL     1      34.678 -23.136 -16.723  0.00  0.00    +0.026 C 
ATOM      7  C   UNL     1      34.663 -21.058 -19.901  0.00  0.00    +0.074 A 
ATOM      8  C   UNL     1      34.136 -21.918 -18.830  0.00  0.00    +0.201 A 
ATOM      9  C   UNL     1      36.006 -20.686 -19.862  0.00  0.00    +0.148 A 
ATOM     10  C   UNL     1      36.921 -23.063 -15.823  0.00  0.00    +0.023 C 
ATOM     11  C   UNL     1      37.323 -22.249 -16.882  0.00  0.00    +0.039 C 
ATOM     12  C   UNL     1      33.835 -20.623 -20.939  0.00  0.00    +0.006 C 
ATOM     13  C   UNL     1      36.528 -19.871 -20.869  0.00  0.00    +0.038 C 
ATOM     14  C   UNL     1      34.362 -19.809 -21.943  0.00  0.00    +0.000 C 
ATOM     15  C   UNL     1      35.705 -19.434 -21.908  0.00  0.00    +0.003 C 
ENDROOT
BRANCH   4  16
ATOM     16  S   UNL     1      35.101 -24.523 -14.415  0.00  0.00    +0.081 S 
ATOM     17  O   UNL     1      33.664 -24.364 -14.236  0.00  0.00    -0.149 OA
ATOM     18  O   UNL     1      35.655 -25.853 -14.631  0.00  0.00    -0.149 OA
BRANCH  16  19
ATOM     19  N   UNL     1      35.912 -23.786 -13.105  0.00  0.00    -0.156 N 
ATOM     20  N   UNL     1      36.513 -23.612 -10.782  0.00  0.00    -0.094 NA
ATOM     21  N   UNL     1      35.136 -25.308 -11.380  0.00  0.00    -0.071 NA
ATOM     22  N   UNL     1      36.139 -24.398  -9.762  0.00  0.00    -0.139 N 
ATOM     23  N   UNL     1      35.323 -25.415 -10.070  0.00  0.00    -0.020 NA
ATOM     24  C   UNL     1      35.860 -24.225 -11.761  0.00  0.00    +0.145 C 
ATOM     25  H   UNL     1      36.461 -22.991 -13.301  0.00  0.00    +0.186 HD
ATOM     26  H   UNL     1      36.447 -24.237  -8.841  0.00  0.00    +0.197 HD
ENDBRANCH  16  19
ENDBRANCH   4  16
TORSDOF 2
ENDMDL
MODEL 3
REMARK VINA RESULT:     -11.7      2.907      3.529
REMARK  Name = 6102777
REMARK  2 active torsions:
REMARK  status: ('A' for Active; 'I' for Inactive)
REMARK    1  A    between atoms: C_4  and  S_16
REMARK    2  A    between atoms: S_16  and  N_19
REMARK                            x       y       z     vdW  Elec       q    Type
REMARK                         _______ _______ _______ _____ _____    ______ ____
ROOT
ATOM      1  O   UNL     1      32.802 -21.924 -18.675  0.00  0.00    -0.453 OA
ATOM      2  O   UNL     1      36.796 -22.268 -17.850  0.00  0.00    -0.286 OA
ATOM      3  C   UNL     1      34.580 -22.765 -17.226  0.00  0.00    +0.075 A 
ATOM      4  C   UNL     1      33.952 -24.036 -15.273  0.00  0.00    +0.126 C 
ATOM      5  C   UNL     1      33.236 -22.609 -17.567  0.00  0.00    +0.148 A 
ATOM      6  C   UNL     1      34.944 -23.478 -16.081  0.00  0.00    +0.026 C 
ATOM      7  C   UNL     1      35.118 -21.437 -19.279  0.00  0.00    +0.074 A 
ATOM      8  C   UNL     1      35.603 -22.166 -18.096  0.00  0.00    +0.201 A 
ATOM      9  C   UNL     1      33.744 -21.358 -19.499  0.00  0.00    +0.148 A 
ATOM     10  C   UNL     1      32.607 -23.882 -15.609  0.00  0.00    +0.023 C 
ATOM     11  C   UNL     1      32.249 -23.169 -16.753  0.00  0.00    +0.039 C 
ATOM     12  C   UNL     1      36.016 -20.835 -20.164  0.00  0.00    +0.006 C 
ATOM     13  C   UNL     1      33.261 -20.671 -20.615  0.00  0.00    +0.038 C 
ATOM     14  C   UNL     1      35.527 -20.149 -21.277  0.00  0.00    +0.000 C 
ATOM     15  C   UNL     1      34.154 -20.067 -21.502  0.00  0.00    +0.003 C 
ENDROOT
BRANCH   4  16
ATOM     16  S   UNL     1      34.396 -24.928 -13.839  0.00  0.00    +0.081 S 
ATOM     17  O   UNL     1      33.210 -25.063 -13.003  0.00  0.00    -0.149 OA
ATOM     18  O   UNL     1      35.120 -26.122 -14.255  0.00  0.00    -0.149 OA
BRANCH  16  19
ATOM     19  N   UNL     1      35.484 -23.844 -13.093  0.00  0.00    -0.156 N 
ATOM     20  N   UNL     1      36.754 -23.034 -11.216  0.00  0.00    -0.094 NA
ATOM     21  N   UNL     1      35.460 -24.865 -10.891  0.00  0.00    -0.071 NA
ATOM     22  N   UNL     1      36.806 -23.527  -9.970  0.00  0.00    -0.139 N 
ATOM     23  N   UNL     1      36.055 -24.611  -9.732  0.00  0.00    -0.020 NA
ATOM     24  C   UNL     1      35.902 -23.906 -11.743  0.00  0.00    +0.145 C 
ATOM     25  H   UNL     1      35.851 -23.117 -13.648  0.00  0.00    +0.186 HD
ATOM     26  H   UNL     1      37.364 -23.116  -9.271  0.00  0.00    +0.197 HD
ENDBRANCH  16  19
ENDBRANCH   4  16
TORSDOF 2
ENDMDL
MODEL 4
REMARK VINA RESULT:     -11.6      2.483      4.043
REMARK  Name = 6102777
REMARK  2 active torsions:
REMARK  status: ('A' for Active; 'I' for Inactive)
REMARK    1  A    between atoms: C_4  and  S_16
REMARK    2  A    between atoms: S_16  and  N_19
REMARK                            x       y       z     vdW  Elec       q    Type
REMARK                         _______ _______ _______ _____ _____    ______ ____
ROOT
ATOM      1  O   UNL     1      32.680 -23.134 -15.616  0.00  0.00    -0.453 OA
ATOM      2  O   UNL     1      31.501 -25.663 -12.622  0.00  0.00    -0.286 OA
ATOM      3  C   UNL     1      33.258 -24.504 -13.678  0.00  0.00    +0.075 A 
ATOM      4  C   UNL     1      35.568 -24.577 -12.984  0.00  0.00    +0.126 C 
ATOM      5  C   UNL     1      33.591 -23.639 -14.721  0.00  0.00    +0.148 A 
ATOM      6  C   UNL     1      34.243 -24.976 -12.807  0.00  0.00    +0.026 C 
ATOM      7  C   UNL     1      30.893 -24.355 -14.484  0.00  0.00    +0.074 A 
ATOM      8  C   UNL     1      31.853 -24.907 -13.516  0.00  0.00    +0.201 A 
ATOM      9  C   UNL     1      31.363 -23.499 -15.480  0.00  0.00    +0.148 A 
ATOM     10  C   UNL     1      35.906 -23.714 -14.026  0.00  0.00    +0.023 C 
ATOM     11  C   UNL     1      34.919 -23.245 -14.894  0.00  0.00    +0.039 C 
ATOM     12  C   UNL     1      29.536 -24.680 -14.409  0.00  0.00    +0.006 C 
ATOM     13  C   UNL     1      30.469 -22.963 -16.409  0.00  0.00    +0.038 C 
ATOM     14  C   UNL     1      28.648 -24.142 -15.341  0.00  0.00    +0.000 C 
ATOM     15  C   UNL     1      29.113 -23.285 -16.339  0.00  0.00    +0.003 C 
ENDROOT
BRANCH   4  16
ATOM     16  S   UNL     1      36.807 -25.162 -11.900  0.00  0.00    +0.081 S 
ATOM     17  O   UNL     1      37.721 -24.062 -11.621  0.00  0.00    -0.149 OA
ATOM     18  O   UNL     1      36.153 -25.850 -10.795  0.00  0.00    -0.149 OA
BRANCH  16  19
ATOM     19  N   UNL     1      37.599 -26.310 -12.885  0.00  0.00    -0.156 N 
ATOM     20  N   UNL     1      39.428 -27.057 -14.259  0.00  0.00    -0.094 NA
ATOM     21  N   UNL     1      39.575 -24.983 -13.361  0.00  0.00    -0.071 NA
ATOM     22  N   UNL     1      40.554 -26.402 -14.576  0.00  0.00    -0.139 N 
ATOM     23  N   UNL     1      40.683 -25.169 -14.067  0.00  0.00    -0.020 NA
ATOM     24  C   UNL     1      38.859 -26.126 -13.502  0.00  0.00    +0.145 C 
ATOM     25  H   UNL     1      37.141 -27.170 -13.036  0.00  0.00    +0.186 HD
ATOM     26  H   UNL     1      41.246 -26.804 -15.151  0.00  0.00    +0.197 HD
ENDBRANCH  16  19
ENDBRANCH   4  16
TORSDOF 2
ENDMDL
MODEL 5
REMARK VINA RESULT:     -11.5      8.791     11.102
REMARK  Name = 6102777
REMARK  2 active torsions:
REMARK  status: ('A' for Active; 'I' for Inactive)
REMARK    1  A    between atoms: C_4  and  S_16
REMARK    2  A    between atoms: S_16  and  N_19
REMARK                            x       y       z     vdW  Elec       q    Type
REMARK                         _______ _______ _______ _____ _____    ______ ____
ROOT
ATOM      1  O   UNL     1      33.610 -13.337 -22.925  0.00  0.00    -0.453 OA
ATOM      2  O   UNL     1      32.345 -14.956 -19.386  0.00  0.00    -0.286 OA
ATOM      3  C   UNL     1      33.606 -15.211 -21.358  0.00  0.00    +0.075 A 
ATOM      4  C   UNL     1      34.882 -17.178 -21.931  0.00  0.00    +0.126 C 
ATOM      5  C   UNL     1      33.999 -14.599 -22.549  0.00  0.00    +0.148 A 
ATOM      6  C   UNL     1      34.045 -16.500 -21.045  0.00  0.00    +0.026 C 
ATOM      7  C   UNL     1      32.319 -13.122 -20.863  0.00  0.00    +0.074 A 
ATOM      8  C   UNL     1      32.723 -14.473 -20.443  0.00  0.00    +0.201 A 
ATOM      9  C   UNL     1      32.786 -12.632 -22.082  0.00  0.00    +0.148 A 
ATOM     10  C   UNL     1      35.277 -16.571 -23.123  0.00  0.00    +0.023 C 
ATOM     11  C   UNL     1      34.836 -15.283 -23.433  0.00  0.00    +0.039 C 
ATOM     12  C   UNL     1      31.482 -12.345 -20.059  0.00  0.00    +0.006 C 
ATOM     13  C   UNL     1      32.414 -11.353 -22.502  0.00  0.00    +0.038 C 
ATOM     14  C   UNL     1      31.114 -11.067 -20.484  0.00  0.00    +0.000 C 
ATOM     15  C   UNL     1      31.578 -10.572 -21.702  0.00  0.00    +0.003 C 
ENDROOT
BRANCH   4  16
ATOM     16  S   UNL     1      35.436 -18.789 -21.549  0.00  0.00    +0.081 S 
ATOM     17  O   UNL     1      35.838 -19.437 -22.791  0.00  0.00    -0.149 OA
ATOM     18  O   UNL     1      36.386 -18.692 -20.449  0.00  0.00    -0.149 OA
BRANCH  16  19
ATOM     19  N   UNL     1      33.996 -19.512 -20.983  0.00  0.00    -0.156 N 
ATOM     20  N   UNL     1      32.777 -21.201 -19.778  0.00  0.00    -0.094 NA
ATOM     21  N   UNL     1      35.036 -21.360 -19.800  0.00  0.00    -0.071 NA
ATOM     22  N   UNL     1      33.258 -22.252 -19.098  0.00  0.00    -0.139 N 
ATOM     23  N   UNL     1      34.591 -22.386 -19.085  0.00  0.00    -0.020 NA
ATOM     24  C   UNL     1      33.927 -20.684 -20.192  0.00  0.00    +0.145 C 
ATOM     25  H   UNL     1      33.145 -19.079 -21.226  0.00  0.00    +0.186 HD
ATOM     26  H   UNL     1      32.666 -22.889 -18.636  0.00  0.00    +0.197 HD
ENDBRANCH  16  19
ENDBRANCH   4  16
TORSDOF 2
ENDMDL
MODEL 6
REMARK VINA RESULT:     -11.4      1.650      3.105
REMARK  Name = 6102777
REMARK  2 active torsions:
REMARK  status: ('A' for Active; 'I' for Inactive)
REMARK    1  A    between atoms: C_4  and  S_16
REMARK    2  A    between atoms: S_16  and  N_19
REMARK                            x       y       z     vdW  Elec       q    Type
REMARK                         _______ _______ _______ _____ _____    ______ ____
ROOT
ATOM      1  O   UNL     1      36.546 -21.289 -18.739  0.00  0.00    -0.453 OA
ATOM      2  O   UNL     1      32.870 -22.867 -17.876  0.00  0.00    -0.286 OA
ATOM      3  C   UNL     1      35.143 -22.667 -17.291  0.00  0.00    +0.075 A 
ATOM      4  C   UNL     1      36.169 -23.721 -15.378  0.00  0.00    +0.126 C 
ATOM      5  C   UNL     1      36.366 -22.097 -17.644  0.00  0.00    +0.148 A 
ATOM      6  C   UNL     1      35.038 -23.480 -16.159  0.00  0.00    +0.026 C 
ATOM      7  C   UNL     1      34.181 -21.527 -19.301  0.00  0.00    +0.074 A 
ATOM      8  C   UNL     1      33.968 -22.395 -18.133  0.00  0.00    +0.201 A 
ATOM      9  C   UNL     1      35.460 -21.023 -19.537  0.00  0.00    +0.148 A 
ATOM     10  C   UNL     1      37.395 -23.155 -15.727  0.00  0.00    +0.023 C 
ATOM     11  C   UNL     1      37.494 -22.344 -16.858  0.00  0.00    +0.039 C 
ATOM     12  C   UNL     1      33.125 -21.211 -20.159  0.00  0.00    +0.006 C 
ATOM     13  C   UNL     1      35.686 -20.197 -20.640  0.00  0.00    +0.038 C 
ATOM     14  C   UNL     1      33.356 -20.386 -21.260  0.00  0.00    +0.000 C 
ATOM     15  C   UNL     1      34.633 -19.880 -21.500  0.00  0.00    +0.003 C 
ENDROOT
BRANCH   4  16
ATOM     16  S   UNL     1      36.050 -24.736 -13.962  0.00  0.00    +0.081 S 
ATOM     17  O   UNL     1      36.627 -24.012 -12.835  0.00  0.00    -0.149 OA
ATOM     18  O   UNL     1      34.682 -25.230 -13.873  0.00  0.00    -0.149 OA
BRANCH  16  19
ATOM     19  N   UNL     1      37.085 -26.026 -14.386  0.00  0.00    -0.156 N 
ATOM     20  N   UNL     1      39.236 -27.097 -14.502  0.00  0.00    -0.094 NA
ATOM     21  N   UNL     1      39.141 -25.046 -13.547  0.00  0.00    -0.071 NA
ATOM     22  N   UNL     1      40.420 -26.640 -14.069  0.00  0.00    -0.139 N 
ATOM     23  N   UNL     1      40.411 -25.428 -13.497  0.00  0.00    -0.020 NA
ATOM     24  C   UNL     1      38.480 -26.065 -14.151  0.00  0.00    +0.145 C 
ATOM     25  H   UNL     1      36.678 -26.806 -14.830  0.00  0.00    +0.186 HD
ATOM     26  H   UNL     1      41.248 -27.165 -14.167  0.00  0.00    +0.197 HD
ENDBRANCH  16  19
ENDBRANCH   4  16
TORSDOF 2
ENDMDL
MODEL 7
REMARK VINA RESULT:     -11.3      5.708      6.877
REMARK  Name = 6102777
REMARK  2 active torsions:
REMARK  status: ('A' for Active; 'I' for Inactive)
REMARK    1  A    between atoms: C_4  and  S_16
REMARK    2  A    between atoms: S_16  and  N_19
REMARK                            x       y       z     vdW  Elec       q    Type
REMARK                         _______ _______ _______ _____ _____    ______ ____
ROOT
ATOM      1  O   UNL     1      35.558 -23.080 -16.197  0.00  0.00    -0.453 OA
ATOM      2  O   UNL     1      32.138 -22.583 -18.388  0.00  0.00    -0.286 OA
ATOM      3  C   UNL     1      33.139 -23.350 -16.399  0.00  0.00    +0.075 A 
ATOM      4  C   UNL     1      31.950 -24.373 -14.565  0.00  0.00    +0.126 C 
ATOM      5  C   UNL     1      34.342 -23.489 -15.707  0.00  0.00    +0.148 A 
ATOM      6  C   UNL     1      31.940 -23.790 -15.833  0.00  0.00    +0.026 C 
ATOM      7  C   UNL     1      34.471 -22.299 -18.240  0.00  0.00    +0.074 A 
ATOM      8  C   UNL     1      33.159 -22.731 -17.733  0.00  0.00    +0.201 A 
ATOM      9  C   UNL     1      35.597 -22.500 -17.441  0.00  0.00    +0.148 A 
ATOM     10  C   UNL     1      33.151 -24.516 -13.870  0.00  0.00    +0.023 C 
ATOM     11  C   UNL     1      34.346 -24.074 -14.439  0.00  0.00    +0.039 C 
ATOM     12  C   UNL     1      34.590 -21.701 -19.496  0.00  0.00    +0.006 C 
ATOM     13  C   UNL     1      36.852 -22.098 -17.902  0.00  0.00    +0.038 C 
ATOM     14  C   UNL     1      35.847 -21.302 -19.952  0.00  0.00    +0.000 C 
ATOM     15  C   UNL     1      36.976 -21.500 -19.157  0.00  0.00    +0.003 C 
ENDROOT
BRANCH   4  16
ATOM     16  S   UNL     1      30.457 -24.928 -13.849  0.00  0.00    +0.081 S 
ATOM     17  O   UNL     1      30.011 -26.105 -14.583  0.00  0.00    -0.149 OA
ATOM     18  O   UNL     1      30.651 -25.011 -12.407  0.00  0.00    -0.149 OA
BRANCH  16  19
ATOM     19  N   UNL     1      29.413 -23.623 -14.199  0.00  0.00    -0.156 N 
ATOM     20  N   UNL     1      27.802 -22.476 -15.570  0.00  0.00    -0.094 NA
ATOM     21  N   UNL     1      28.570 -24.474 -16.310  0.00  0.00    -0.071 NA
ATOM     22  N   UNL     1      27.278 -22.863 -16.742  0.00  0.00    -0.139 N 
ATOM     23  N   UNL     1      27.706 -24.040 -17.219  0.00  0.00    -0.020 NA
ATOM     24  C   UNL     1      28.597 -23.516 -15.350  0.00  0.00    +0.145 C 
ATOM     25  H   UNL     1      29.376 -22.885 -13.547  0.00  0.00    +0.186 HD
ATOM     26  H   UNL     1      26.619 -22.313 -17.225  0.00  0.00    +0.197 HD
ENDBRANCH  16  19
ENDBRANCH   4  16
TORSDOF 2
ENDMDL
MODEL 8
REMARK VINA RESULT:     -11.2      2.871      4.278
REMARK  Name = 6102777
REMARK  2 active torsions:
REMARK  status: ('A' for Active; 'I' for Inactive)
REMARK    1  A    between atoms: C_4  and  S_16
REMARK    2  A    between atoms: S_16  and  N_19
REMARK                            x       y       z     vdW  Elec       q    Type
REMARK                         _______ _______ _______ _____ _____    ______ ____
ROOT
ATOM      1  O   UNL     1      31.272 -24.471 -13.803  0.00  0.00    -0.453 OA
ATOM      2  O   UNL     1      32.451 -22.736 -17.317  0.00  0.00    -0.286 OA
ATOM      3  C   UNL     1      33.074 -23.698 -15.260  0.00  0.00    +0.075 A 
ATOM      4  C   UNL     1      35.348 -23.969 -14.501  0.00  0.00    +0.126 C 
ATOM      5  C   UNL     1      32.603 -24.281 -14.084  0.00  0.00    +0.148 A 
ATOM      6  C   UNL     1      34.445 -23.539 -15.474  0.00  0.00    +0.026 C 
ATOM      7  C   UNL     1      30.679 -23.468 -15.949  0.00  0.00    +0.074 A 
ATOM      8  C   UNL     1      32.099 -23.255 -16.268  0.00  0.00    +0.201 A 
ATOM      9  C   UNL     1      30.347 -24.064 -14.733  0.00  0.00    +0.148 A 
ATOM     10  C   UNL     1      34.882 -24.552 -13.322  0.00  0.00    +0.023 C 
ATOM     11  C   UNL     1      33.512 -24.708 -13.113  0.00  0.00    +0.039 C 
ATOM     12  C   UNL     1      29.680 -23.080 -16.846  0.00  0.00    +0.006 C 
ATOM     13  C   UNL     1      29.005 -24.275 -14.410  0.00  0.00    +0.038 C 
ATOM     14  C   UNL     1      28.340 -23.293 -16.517  0.00  0.00    +0.000 C 
ATOM     15  C   UNL     1      28.003 -23.890 -15.302  0.00  0.00    +0.003 C 
ENDROOT
BRANCH   4  16
ATOM     16  S   UNL     1      37.065 -23.775 -14.757  0.00  0.00    +0.081 S 
ATOM     17  O   UNL     1      37.266 -23.235 -16.096  0.00  0.00    -0.149 OA
ATOM     18  O   UNL     1      37.617 -23.069 -13.609  0.00  0.00    -0.149 OA
BRANCH  16  19
ATOM     19  N   UNL     1      37.594 -25.398 -14.724  0.00  0.00    -0.156 N 
ATOM     20  N   UNL     1      39.278 -27.098 -14.469  0.00  0.00    -0.094 NA
ATOM     21  N   UNL     1      39.931 -24.940 -14.253  0.00  0.00    -0.071 NA
ATOM     22  N   UNL     1      40.584 -26.945 -14.209  0.00  0.00    -0.139 N 
ATOM     23  N   UNL     1      41.015 -25.684 -14.074  0.00  0.00    -0.020 NA
ATOM     24  C   UNL     1      38.923 -25.818 -14.484  0.00  0.00    +0.145 C 
ATOM     25  H   UNL     1      36.919 -26.098 -14.883  0.00  0.00    +0.186 HD
ATOM     26  H   UNL     1      41.191 -27.716 -14.123  0.00  0.00    +0.197 HD
ENDBRANCH  16  19
ENDBRANCH   4  16
TORSDOF 2
ENDMDL
MODEL 9
REMARK VINA RESULT:     -11.1      1.799      2.384
REMARK  Name = 6102777
REMARK  2 active torsions:
REMARK  status: ('A' for Active; 'I' for Inactive)
REMARK    1  A    between atoms: C_4  and  S_16
REMARK    2  A    between atoms: S_16  and  N_19
REMARK                            x       y       z     vdW  Elec       q    Type
REMARK                         _______ _______ _______ _____ _____    ______ ____
ROOT
ATOM      1  O   UNL     1      32.892 -22.176 -18.417  0.00  0.00    -0.453 OA
ATOM      2  O   UNL     1      36.983 -22.082 -18.365  0.00  0.00    -0.286 OA
ATOM      3  C   UNL     1      34.994 -22.889 -17.396  0.00  0.00    +0.075 A 
ATOM      4  C   UNL     1      34.891 -24.356 -15.483  0.00  0.00    +0.126 C 
ATOM      5  C   UNL     1      33.601 -22.876 -17.472  0.00  0.00    +0.148 A 
ATOM      6  C   UNL     1      35.644 -23.627 -16.404  0.00  0.00    +0.026 C 
ATOM      7  C   UNL     1      34.984 -21.369 -19.385  0.00  0.00    +0.074 A 
ATOM      8  C   UNL     1      35.761 -22.111 -18.381  0.00  0.00    +0.201 A 
ATOM      9  C   UNL     1      33.592 -21.444 -19.345  0.00  0.00    +0.148 A 
ATOM     10  C   UNL     1      33.498 -24.346 -15.554  0.00  0.00    +0.023 C 
ATOM     11  C   UNL     1      32.853 -23.607 -16.546  0.00  0.00    +0.039 C 
ATOM     12  C   UNL     1      35.625 -20.603 -20.361  0.00  0.00    +0.006 C 
ATOM     13  C   UNL     1      32.834 -20.748 -20.288  0.00  0.00    +0.038 C 
ATOM     14  C   UNL     1      34.862 -19.909 -21.301  0.00  0.00    +0.000 C 
ATOM     15  C   UNL     1      33.470 -19.981 -21.265  0.00  0.00    +0.003 C 
ENDROOT
BRANCH   4  16
ATOM     16  S   UNL     1      35.694 -25.282 -14.239  0.00  0.00    +0.081 S 
ATOM     17  O   UNL     1      35.102 -24.926 -12.955  0.00  0.00    -0.149 OA
ATOM     18  O   UNL     1      35.717 -26.677 -14.657  0.00  0.00    -0.149 OA
BRANCH  16  19
ATOM     19  N   UNL     1      37.277 -24.648 -14.319  0.00  0.00    -0.156 N 
ATOM     20  N   UNL     1      39.671 -24.869 -14.428  0.00  0.00    -0.094 NA
ATOM     21  N   UNL     1      38.449 -26.774 -14.351  0.00  0.00    -0.071 NA
ATOM     22  N   UNL     1      40.405 -25.991 -14.452  0.00  0.00    -0.139 N 
ATOM     23  N   UNL     1      39.722 -27.143 -14.407  0.00  0.00    -0.020 NA
ATOM     24  C   UNL     1      38.464 -25.417 -14.366  0.00  0.00    +0.145 C 
ATOM     25  H   UNL     1      37.373 -23.667 -14.333  0.00  0.00    +0.186 HD
ATOM     26  H   UNL     1      41.388 -25.969 -14.499  0.00  0.00    +0.197 HD
ENDBRANCH  16  19
ENDBRANCH   4  16
TORSDOF 2
ENDMDL
