MODEL 1
REMARK VINA RESULT:     -11.7      0.000      0.000
REMARK  Name = 54671008
REMARK  7 active torsions:
REMARK  status: ('A' for Active; 'I' for Inactive)
REMARK    1  A    between atoms: C_4  and  C_21
REMARK    2  A    between atoms: C_6  and  C_11
REMARK    3  A    between atoms: C_8  and  O_34
REMARK    4  A    between atoms: N_10  and  C_13
REMARK    5  A    between atoms: C_13  and  C_15
REMARK    6  A    between atoms: C_21  and  N_25
REMARK    7  A    between atoms: C_26  and  C_31
REMARK                            x       y       z     vdW  Elec       q    Type
REMARK                         _______ _______ _______ _____ _____    ______ ____
ROOT
ATOM      1  O   UNL     1      36.158 -23.737 -14.367  0.00  0.00    -0.271 OA
ATOM      2  N   UNL     1      33.829 -23.957 -14.275  0.00  0.00    -0.232 N 
ATOM      3  N   UNL     1      32.555 -23.607 -16.251  0.00  0.00    -0.386 NA
ATOM      4  C   UNL     1      32.635 -23.892 -14.988  0.00  0.00    +0.182 C 
ATOM      5  C   UNL     1      35.052 -23.708 -14.904  0.00  0.00    +0.265 C 
ATOM      6  C   UNL     1      33.729 -23.358 -16.907  0.00  0.00    +0.199 C 
ATOM      7  C   UNL     1      33.803 -24.289 -12.852  0.00  0.00    +0.122 C 
ATOM      8  C   UNL     1      34.949 -23.384 -16.353  0.00  0.00    +0.245 C 
ENDROOT
BRANCH   6  11
ATOM      9  O   UNL     1      33.790 -23.904 -19.190  0.00  0.00    -0.268 OA
ATOM     10  N   UNL     1      33.299 -21.713 -18.566  0.00  0.00    -0.295 N 
ATOM     11  C   UNL     1      33.613 -23.039 -18.337  0.00  0.00    +0.275 C 
ATOM     12  H   UNL     1      33.182 -21.118 -17.790  0.00  0.00    +0.150 HD
BRANCH  10  13
ATOM     13  C   UNL     1      33.131 -21.156 -19.890  0.00  0.00    +0.117 C 
BRANCH  13  15
ATOM     14  F   UNL     1      37.852 -18.734 -21.773  0.00  0.00    -0.204 F 
ATOM     15  C   UNL     1      34.390 -20.510 -20.391  0.00  0.00    -0.002 C 
ATOM     16  C   UNL     1      34.320 -19.488 -21.338  0.00  0.00    -0.000 C 
ATOM     17  C   UNL     1      35.630 -20.932 -19.912  0.00  0.00    -0.000 C 
ATOM     18  C   UNL     1      35.489 -18.888 -21.805  0.00  0.00    +0.029 C 
ATOM     19  C   UNL     1      36.800 -20.333 -20.379  0.00  0.00    +0.029 C 
ATOM     20  C   UNL     1      36.729 -19.311 -21.325  0.00  0.00    +0.140 C 
ENDBRANCH  13  15
ENDBRANCH  10  13
ENDBRANCH   6  11
BRANCH   4  21
ATOM     21  C   UNL     1      31.348 -24.171 -14.248  0.00  0.00    +0.117 C 
ATOM     22  C   UNL     1      31.230 -25.663 -13.968  0.00  0.00    +0.028 C 
ATOM     23  C   UNL     1      31.307 -23.358 -12.961  0.00  0.00    +0.028 C 
BRANCH  21  25
ATOM     24  O   UNL     1      28.610 -25.030 -14.321  0.00  0.00    -0.265 OA
ATOM     25  N   UNL     1      30.335 -23.734 -15.173  0.00  0.00    -0.293 N 
ATOM     26  C   UNL     1      29.030 -24.207 -15.130  0.00  0.00    +0.302 C 
ATOM     27  H   UNL     1      30.576 -23.072 -15.861  0.00  0.00    +0.150 HD
BRANCH  26  31
ATOM     28  O   UNL     1      27.460 -22.499 -15.965  0.00  0.00    -0.416 OA
ATOM     29  N   UNL     1      27.835 -24.236 -17.325  0.00  0.00    -0.102 NA
ATOM     30  N   UNL     1      26.940 -23.389 -17.951  0.00  0.00    -0.111 NA
ATOM     31  C   UNL     1      28.111 -23.676 -16.170  0.00  0.00    +0.304 A 
ATOM     32  C   UNL     1      26.750 -22.390 -17.122  0.00  0.00    +0.227 A 
ATOM     33  C   UNL     1      25.899 -21.201 -17.266  0.00  0.00    +0.097 C 
ENDBRANCH  26  31
ENDBRANCH  21  25
ENDBRANCH   4  21
BRANCH   8  34
ATOM     34  O   UNL     1      36.109 -23.126 -17.048  0.00  0.00    -0.370 OA
ATOM     35  H   UNL     1      36.797 -22.635 -16.646  0.00  0.00    +0.211 HD
ENDBRANCH   8  34
TORSDOF 7
ENDMDL
MODEL 2
REMARK VINA RESULT:     -10.4      2.367      6.006
REMARK  Name = 54671008
REMARK  7 active torsions:
REMARK  status: ('A' for Active; 'I' for Inactive)
REMARK    1  A    between atoms: C_4  and  C_21
REMARK    2  A    between atoms: C_6  and  C_11
REMARK    3  A    between atoms: C_8  and  O_34
REMARK    4  A    between atoms: N_10  and  C_13
REMARK    5  A    between atoms: C_13  and  C_15
REMARK    6  A    between atoms: C_21  and  N_25
REMARK    7  A    between atoms: C_26  and  C_31
REMARK                            x       y       z     vdW  Elec       q    Type
REMARK                         _______ _______ _______ _____ _____    ______ ____
ROOT
ATOM      1  O   UNL     1      30.221 -22.838 -16.913  0.00  0.00    -0.271 OA
ATOM      2  N   UNL     1      31.472 -23.667 -15.116  0.00  0.00    -0.232 N 
ATOM      3  N   UNL     1      33.844 -23.693 -15.271  0.00  0.00    -0.386 NA
ATOM      4  C   UNL     1      32.747 -23.933 -14.622  0.00  0.00    +0.182 C 
ATOM      5  C   UNL     1      31.299 -23.108 -16.385  0.00  0.00    +0.265 C 
ATOM      6  C   UNL     1      33.721 -23.142 -16.518  0.00  0.00    +0.199 C 
ATOM      7  C   UNL     1      30.302 -23.977 -14.297  0.00  0.00    +0.122 C 
ATOM      8  C   UNL     1      32.564 -22.835 -17.120  0.00  0.00    +0.245 C 
ENDROOT
BRANCH   6  11
ATOM      9  O   UNL     1      36.046 -22.829 -16.628  0.00  0.00    -0.268 OA
ATOM     10  N   UNL     1      34.795 -22.702 -18.591  0.00  0.00    -0.295 N 
ATOM     11  C   UNL     1      34.978 -22.878 -17.233  0.00  0.00    +0.275 C 
ATOM     12  H   UNL     1      33.881 -22.767 -18.953  0.00  0.00    +0.150 HD
BRANCH  10  13
ATOM     13  C   UNL     1      35.879 -22.430 -19.507  0.00  0.00    +0.117 C 
BRANCH  13  15
ATOM     14  F   UNL     1      35.493 -17.285 -21.761  0.00  0.00    -0.204 F 
ATOM     15  C   UNL     1      35.776 -21.058 -20.108  0.00  0.00    -0.002 C 
ATOM     16  C   UNL     1      34.527 -20.536 -20.445  0.00  0.00    -0.000 C 
ATOM     17  C   UNL     1      36.929 -20.305 -20.330  0.00  0.00    -0.000 C 
ATOM     18  C   UNL     1      34.432 -19.262 -21.004  0.00  0.00    +0.029 C 
ATOM     19  C   UNL     1      36.834 -19.030 -20.888  0.00  0.00    +0.029 C 
ATOM     20  C   UNL     1      35.585 -18.509 -21.225  0.00  0.00    +0.140 C 
ENDBRANCH  13  15
ENDBRANCH  10  13
ENDBRANCH   6  11
BRANCH   4  21
ATOM     21  C   UNL     1      32.864 -24.538 -13.244  0.00  0.00    +0.117 C 
ATOM     22  C   UNL     1      32.686 -23.455 -12.189  0.00  0.00    +0.028 C 
ATOM     23  C   UNL     1      31.837 -25.650 -13.080  0.00  0.00    +0.028 C 
BRANCH  21  25
ATOM     24  O   UNL     1      34.740 -24.381 -11.076  0.00  0.00    -0.265 OA
ATOM     25  N   UNL     1      34.206 -25.063 -13.228  0.00  0.00    -0.293 N 
ATOM     26  C   UNL     1      35.043 -24.939 -12.128  0.00  0.00    +0.302 C 
ATOM     27  H   UNL     1      34.540 -25.530 -14.028  0.00  0.00    +0.150 HD
BRANCH  26  31
ATOM     28  O   UNL     1      37.194 -25.127 -13.320  0.00  0.00    -0.416 OA
ATOM     29  N   UNL     1      36.973 -26.393 -11.489  0.00  0.00    -0.102 NA
ATOM     30  N   UNL     1      38.227 -26.626 -12.020  0.00  0.00    -0.111 NA
ATOM     31  C   UNL     1      36.406 -25.512 -12.279  0.00  0.00    +0.304 A 
ATOM     32  C   UNL     1      38.313 -25.867 -13.087  0.00  0.00    +0.227 A 
ATOM     33  C   UNL     1      39.420 -25.709 -14.039  0.00  0.00    +0.097 C 
ENDBRANCH  26  31
ENDBRANCH  21  25
ENDBRANCH   4  21
BRANCH   8  34
ATOM     34  O   UNL     1      32.482 -22.282 -18.378  0.00  0.00    -0.370 OA
ATOM     35  H   UNL     1      32.730 -21.389 -18.514  0.00  0.00    +0.211 HD
ENDBRANCH   8  34
TORSDOF 7
ENDMDL
MODEL 3
REMARK VINA RESULT:     -10.1      2.130      3.065
REMARK  Name = 54671008
REMARK  7 active torsions:
REMARK  status: ('A' for Active; 'I' for Inactive)
REMARK    1  A    between atoms: C_4  and  C_21
REMARK    2  A    between atoms: C_6  and  C_11
REMARK    3  A    between atoms: C_8  and  O_34
REMARK    4  A    between atoms: N_10  and  C_13
REMARK    5  A    between atoms: C_13  and  C_15
REMARK    6  A    between atoms: C_21  and  N_25
REMARK    7  A    between atoms: C_26  and  C_31
REMARK                            x       y       z     vdW  Elec       q    Type
REMARK                         _______ _______ _______ _____ _____    ______ ____
ROOT
ATOM      1  O   UNL     1      38.244 -21.617 -16.491  0.00  0.00    -0.271 OA
ATOM      2  N   UNL     1      36.589 -22.956 -15.517  0.00  0.00    -0.232 N 
ATOM      3  N   UNL     1      34.576 -23.363 -16.715  0.00  0.00    -0.386 NA
ATOM      4  C   UNL     1      35.324 -23.520 -15.667  0.00  0.00    +0.182 C 
ATOM      5  C   UNL     1      37.141 -22.161 -16.524  0.00  0.00    +0.265 C 
ATOM      6  C   UNL     1      35.079 -22.593 -17.727  0.00  0.00    +0.199 C 
ATOM      7  C   UNL     1      37.346 -23.201 -14.291  0.00  0.00    +0.122 C 
ATOM      8  C   UNL     1      36.275 -21.989 -17.723  0.00  0.00    +0.245 C 
ENDROOT
BRANCH   6  11
ATOM      9  O   UNL     1      33.537 -23.368 -19.320  0.00  0.00    -0.268 OA
ATOM     10  N   UNL     1      34.270 -21.158 -19.440  0.00  0.00    -0.295 N 
ATOM     11  C   UNL     1      34.214 -22.431 -18.904  0.00  0.00    +0.275 C 
ATOM     12  H   UNL     1      34.856 -20.494 -19.009  0.00  0.00    +0.150 HD
BRANCH  10  13
ATOM     13  C   UNL     1      33.510 -20.753 -20.601  0.00  0.00    +0.117 C 
BRANCH  13  15
ATOM     14  F   UNL     1      35.965 -16.495 -23.347  0.00  0.00    -0.204 F 
ATOM     15  C   UNL     1      34.165 -19.617 -21.333  0.00  0.00    -0.002 C 
ATOM     16  C   UNL     1      34.565 -19.782 -22.659  0.00  0.00    -0.000 C 
ATOM     17  C   UNL     1      34.373 -18.398 -20.688  0.00  0.00    -0.000 C 
ATOM     18  C   UNL     1      35.174 -18.727 -23.339  0.00  0.00    +0.029 C 
ATOM     19  C   UNL     1      34.981 -17.344 -21.368  0.00  0.00    +0.029 C 
ATOM     20  C   UNL     1      35.382 -17.508 -22.694  0.00  0.00    +0.140 C 
ENDBRANCH  13  15
ENDBRANCH  10  13
ENDBRANCH   6  11
BRANCH   4  21
ATOM     21  C   UNL     1      34.785 -24.369 -14.540  0.00  0.00    +0.117 C 
ATOM     22  C   UNL     1      35.366 -25.773 -14.631  0.00  0.00    +0.028 C 
ATOM     23  C   UNL     1      35.111 -23.717 -13.203  0.00  0.00    +0.028 C 
BRANCH  21  25
ATOM     24  O   UNL     1      32.742 -25.264 -12.732  0.00  0.00    -0.265 OA
ATOM     25  N   UNL     1      33.366 -24.376 -14.783  0.00  0.00    -0.293 N 
ATOM     26  C   UNL     1      32.449 -24.830 -13.843  0.00  0.00    +0.302 C 
ATOM     27  H   UNL     1      33.032 -24.046 -15.649  0.00  0.00    +0.150 HD
BRANCH  26  31
ATOM     28  O   UNL     1      30.475 -23.638 -14.718  0.00  0.00    -0.416 OA
ATOM     29  N   UNL     1      30.179 -25.801 -14.230  0.00  0.00    -0.102 NA
ATOM     30  N   UNL     1      28.980 -25.302 -14.702  0.00  0.00    -0.111 NA
ATOM     31  C   UNL     1      31.023 -24.796 -14.257  0.00  0.00    +0.304 A 
ATOM     32  C   UNL     1      29.199 -24.037 -14.974  0.00  0.00    +0.227 A 
ATOM     33  C   UNL     1      28.282 -23.020 -15.503  0.00  0.00    +0.097 C 
ENDBRANCH  26  31
ENDBRANCH  21  25
ENDBRANCH   4  21
BRANCH   8  34
ATOM     34  O   UNL     1      36.746 -21.220 -18.763  0.00  0.00    -0.370 OA
ATOM     35  H   UNL     1      36.261 -21.166 -19.563  0.00  0.00    +0.211 HD
ENDBRANCH   8  34
TORSDOF 7
ENDMDL
MODEL 4
REMARK VINA RESULT:      -9.4      4.967      8.835
REMARK  Name = 54671008
REMARK  7 active torsions:
REMARK  status: ('A' for Active; 'I' for Inactive)
REMARK    1  A    between atoms: C_4  and  C_21
REMARK    2  A    between atoms: C_6  and  C_11
REMARK    3  A    between atoms: C_8  and  O_34
REMARK    4  A    between atoms: N_10  and  C_13
REMARK    5  A    between atoms: C_13  and  C_15
REMARK    6  A    between atoms: C_21  and  N_25
REMARK    7  A    between atoms: C_26  and  C_31
REMARK                            x       y       z     vdW  Elec       q    Type
REMARK                         _______ _______ _______ _____ _____    ______ ____
ROOT
ATOM      1  O   UNL     1      32.843 -22.544 -18.862  0.00  0.00    -0.271 OA
ATOM      2  N   UNL     1      34.301 -21.080 -19.961  0.00  0.00    -0.232 N 
ATOM      3  N   UNL     1      36.493 -20.762 -19.096  0.00  0.00    -0.386 NA
ATOM      4  C   UNL     1      35.572 -20.509 -19.974  0.00  0.00    +0.182 C 
ATOM      5  C   UNL     1      33.935 -21.988 -18.965  0.00  0.00    +0.265 C 
ATOM      6  C   UNL     1      36.177 -21.648 -18.102  0.00  0.00    +0.199 C 
ATOM      7  C   UNL     1      33.341 -20.724 -21.004  0.00  0.00    +0.122 C 
ATOM      8  C   UNL     1      34.999 -22.272 -17.963  0.00  0.00    +0.245 C 
ENDROOT
BRANCH   6  11
ATOM      9  O   UNL     1      38.048 -21.048 -16.816  0.00  0.00    -0.268 OA
ATOM     10  N   UNL     1      37.191 -23.207 -16.624  0.00  0.00    -0.295 N 
ATOM     11  C   UNL     1      37.236 -21.918 -17.120  0.00  0.00    +0.275 C 
ATOM     12  H   UNL     1      36.485 -23.811 -16.952  0.00  0.00    +0.150 HD
BRANCH  10  13
ATOM     13  C   UNL     1      38.127 -23.713 -15.646  0.00  0.00    +0.117 C 
BRANCH  13  15
ATOM     14  F   UNL     1      35.542 -25.474 -10.965  0.00  0.00    -0.204 F 
ATOM     15  C   UNL     1      37.438 -24.183 -14.398  0.00  0.00    -0.002 C 
ATOM     16  C   UNL     1      36.325 -23.495 -13.915  0.00  0.00    -0.000 C 
ATOM     17  C   UNL     1      37.910 -25.308 -13.721  0.00  0.00    -0.000 C 
ATOM     18  C   UNL     1      35.685 -23.931 -12.755  0.00  0.00    +0.029 C 
ATOM     19  C   UNL     1      37.270 -25.744 -12.561  0.00  0.00    +0.029 C 
ATOM     20  C   UNL     1      36.157 -25.055 -12.078  0.00  0.00    +0.140 C 
ENDBRANCH  13  15
ENDBRANCH  10  13
ENDBRANCH   6  11
BRANCH   4  21
ATOM     21  C   UNL     1      35.903 -19.535 -21.079  0.00  0.00    +0.117 C 
ATOM     22  C   UNL     1      37.375 -19.153 -21.004  0.00  0.00    +0.028 C 
ATOM     23  C   UNL     1      35.556 -20.149 -22.429  0.00  0.00    +0.028 C 
BRANCH  21  25
ATOM     24  O   UNL     1      35.692 -17.113 -22.606  0.00  0.00    -0.265 OA
ATOM     25  N   UNL     1      35.058 -18.406 -20.788  0.00  0.00    -0.293 N 
ATOM     26  C   UNL     1      35.023 -17.273 -21.589  0.00  0.00    +0.302 C 
ATOM     27  H   UNL     1      34.481 -18.441 -19.990  0.00  0.00    +0.150 HD
BRANCH  26  31
ATOM     28  O   UNL     1      33.696 -15.239 -22.022  0.00  0.00    -0.416 OA
ATOM     29  N   UNL     1      33.647 -16.015 -19.924  0.00  0.00    -0.102 NA
ATOM     30  N   UNL     1      32.855 -14.884 -19.979  0.00  0.00    -0.111 NA
ATOM     31  C   UNL     1      34.116 -16.185 -21.137  0.00  0.00    +0.304 A 
ATOM     32  C   UNL     1      32.913 -14.465 -21.221  0.00  0.00    +0.227 A 
ATOM     33  C   UNL     1      32.267 -13.306 -21.850  0.00  0.00    +0.097 C 
ENDBRANCH  26  31
ENDBRANCH  21  25
ENDBRANCH   4  21
BRANCH   8  34
ATOM     34  O   UNL     1      34.720 -23.157 -16.947  0.00  0.00    -0.370 OA
ATOM     35  H   UNL     1      34.509 -24.048 -17.147  0.00  0.00    +0.211 HD
ENDBRANCH   8  34
TORSDOF 7
ENDMDL
MODEL 5
REMARK VINA RESULT:      -9.2      7.608     11.168
REMARK  Name = 54671008
REMARK  7 active torsions:
REMARK  status: ('A' for Active; 'I' for Inactive)
REMARK    1  A    between atoms: C_4  and  C_21
REMARK    2  A    between atoms: C_6  and  C_11
REMARK    3  A    between atoms: C_8  and  O_34
REMARK    4  A    between atoms: N_10  and  C_13
REMARK    5  A    between atoms: C_13  and  C_15
REMARK    6  A    between atoms: C_21  and  N_25
REMARK    7  A    between atoms: C_26  and  C_31
REMARK                            x       y       z     vdW  Elec       q    Type
REMARK                         _______ _______ _______ _____ _____    ______ ____
ROOT
ATOM      1  O   UNL     1      33.722 -14.296 -25.684  0.00  0.00    -0.271 OA
ATOM      2  N   UNL     1      33.515 -14.198 -23.354  0.00  0.00    -0.232 N 
ATOM      3  N   UNL     1      34.171 -16.078 -22.054  0.00  0.00    -0.386 NA
ATOM      4  C   UNL     1      33.697 -14.874 -22.150  0.00  0.00    +0.182 C 
ATOM      5  C   UNL     1      33.846 -14.802 -24.570  0.00  0.00    +0.265 C 
ATOM      6  C   UNL     1      34.509 -16.706 -23.221  0.00  0.00    +0.199 C 
ATOM      7  C   UNL     1      32.974 -12.841 -23.345  0.00  0.00    +0.122 C 
ATOM      8  C   UNL     1      34.390 -16.183 -24.449  0.00  0.00    +0.245 C 
ENDROOT
BRANCH   6  11
ATOM      9  O   UNL     1      34.893 -18.894 -23.983  0.00  0.00    -0.268 OA
ATOM     10  N   UNL     1      35.700 -18.271 -21.887  0.00  0.00    -0.295 N 
ATOM     11  C   UNL     1      35.045 -18.068 -23.087  0.00  0.00    +0.275 C 
ATOM     12  H   UNL     1      35.753 -17.522 -21.250  0.00  0.00    +0.150 HD
BRANCH  10  13
ATOM     13  C   UNL     1      36.312 -19.528 -21.521  0.00  0.00    +0.117 C 
BRANCH  13  15
ATOM     14  F   UNL     1      32.943 -22.644 -18.259  0.00  0.00    -0.204 F 
ATOM     15  C   UNL     1      35.413 -20.359 -20.651  0.00  0.00    -0.002 C 
ATOM     16  C   UNL     1      35.961 -21.310 -19.790  0.00  0.00    -0.000 C 
ATOM     17  C   UNL     1      34.031 -20.181 -20.704  0.00  0.00    -0.000 C 
ATOM     18  C   UNL     1      35.127 -22.082 -18.982  0.00  0.00    +0.029 C 
ATOM     19  C   UNL     1      33.196 -20.953 -19.896  0.00  0.00    +0.029 C 
ATOM     20  C   UNL     1      33.745 -21.903 -19.035  0.00  0.00    +0.140 C 
ENDBRANCH  13  15
ENDBRANCH  10  13
ENDBRANCH   6  11
BRANCH   4  21
ATOM     21  C   UNL     1      33.320 -14.164 -20.872  0.00  0.00    +0.117 C 
ATOM     22  C   UNL     1      32.163 -14.892 -20.201  0.00  0.00    +0.028 C 
ATOM     23  C   UNL     1      34.531 -14.078 -19.953  0.00  0.00    +0.028 C 
BRANCH  21  25
ATOM     24  O   UNL     1      31.853 -12.203 -19.372  0.00  0.00    -0.265 OA
ATOM     25  N   UNL     1      32.918 -12.858 -21.326  0.00  0.00    -0.293 N 
ATOM     26  C   UNL     1      32.208 -11.974 -20.525  0.00  0.00    +0.302 C 
ATOM     27  H   UNL     1      33.157 -12.581 -22.241  0.00  0.00    +0.150 HD
BRANCH  26  31
ATOM     28  O   UNL     1      32.321  -9.512 -20.626  0.00  0.00    -0.416 OA
ATOM     29  N   UNL     1      31.084 -10.503 -22.205  0.00  0.00    -0.102 NA
ATOM     30  N   UNL     1      31.032  -9.139 -22.416  0.00  0.00    -0.111 NA
ATOM     31  C   UNL     1      31.846 -10.675 -21.151  0.00  0.00    +0.304 A 
ATOM     32  C   UNL     1      31.767  -8.600 -21.472  0.00  0.00    +0.227 A 
ATOM     33  C   UNL     1      32.068  -7.187 -21.210  0.00  0.00    +0.097 C 
ENDBRANCH  26  31
ENDBRANCH  21  25
ENDBRANCH   4  21
BRANCH   8  34
ATOM     34  O   UNL     1      34.742 -16.849 -25.601  0.00  0.00    -0.370 OA
ATOM     35  H   UNL     1      34.200 -17.541 -25.926  0.00  0.00    +0.211 HD
ENDBRANCH   8  34
TORSDOF 7
ENDMDL
MODEL 6
REMARK VINA RESULT:      -9.1      6.427     10.062
REMARK  Name = 54671008
REMARK  7 active torsions:
REMARK  status: ('A' for Active; 'I' for Inactive)
REMARK    1  A    between atoms: C_4  and  C_21
REMARK    2  A    between atoms: C_6  and  C_11
REMARK    3  A    between atoms: C_8  and  O_34
REMARK    4  A    between atoms: N_10  and  C_13
REMARK    5  A    between atoms: C_13  and  C_15
REMARK    6  A    between atoms: C_21  and  N_25
REMARK    7  A    between atoms: C_26  and  C_31
REMARK                            x       y       z     vdW  Elec       q    Type
REMARK                         _______ _______ _______ _____ _____    ______ ____
ROOT
ATOM      1  O   UNL     1      33.517 -15.661 -25.397  0.00  0.00    -0.271 OA
ATOM      2  N   UNL     1      34.558 -17.154 -23.925  0.00  0.00    -0.232 N 
ATOM      3  N   UNL     1      34.704 -16.594 -21.619  0.00  0.00    -0.386 NA
ATOM      4  C   UNL     1      34.934 -17.403 -22.607  0.00  0.00    +0.182 C 
ATOM      5  C   UNL     1      33.889 -15.976 -24.268  0.00  0.00    +0.265 C 
ATOM      6  C   UNL     1      34.049 -15.429 -21.910  0.00  0.00    +0.199 C 
ATOM      7  C   UNL     1      34.867 -18.138 -24.961  0.00  0.00    +0.122 C 
ATOM      8  C   UNL     1      33.629 -15.056 -23.127  0.00  0.00    +0.245 C 
ENDROOT
BRANCH   6  11
ATOM      9  O   UNL     1      34.722 -14.148 -20.060  0.00  0.00    -0.268 OA
ATOM     10  N   UNL     1      32.463 -14.201 -20.635  0.00  0.00    -0.295 N 
ATOM     11  C   UNL     1      33.799 -14.530 -20.774  0.00  0.00    +0.275 C 
ATOM     12  H   UNL     1      31.819 -14.577 -21.277  0.00  0.00    +0.150 HD
BRANCH  10  13
ATOM     13  C   UNL     1      31.967 -13.332 -19.592  0.00  0.00    +0.117 C 
BRANCH  13  15
ATOM     14  F   UNL     1      31.707  -7.963 -21.268  0.00  0.00    -0.204 F 
ATOM     15  C   UNL     1      31.897 -11.900 -20.039  0.00  0.00    -0.002 C 
ATOM     16  C   UNL     1      32.047 -10.871 -19.109  0.00  0.00    -0.000 C 
ATOM     17  C   UNL     1      31.683 -11.599 -21.384  0.00  0.00    -0.000 C 
ATOM     18  C   UNL     1      31.982  -9.542 -19.524  0.00  0.00    +0.029 C 
ATOM     19  C   UNL     1      31.618 -10.269 -21.799  0.00  0.00    +0.029 C 
ATOM     20  C   UNL     1      31.768  -9.240 -20.869  0.00  0.00    +0.140 C 
ENDBRANCH  13  15
ENDBRANCH  10  13
ENDBRANCH   6  11
BRANCH   4  21
ATOM     21  C   UNL     1      35.654 -18.695 -22.304  0.00  0.00    +0.117 C 
ATOM     22  C   UNL     1      35.860 -19.483 -23.591  0.00  0.00    +0.028 C 
ATOM     23  C   UNL     1      36.979 -18.397 -21.615  0.00  0.00    +0.028 C 
BRANCH  21  25
ATOM     24  O   UNL     1      36.302 -20.845 -20.515  0.00  0.00    -0.265 OA
ATOM     25  N   UNL     1      34.748 -19.377 -21.417  0.00  0.00    -0.293 N 
ATOM     26  C   UNL     1      35.155 -20.410 -20.583  0.00  0.00    +0.302 C 
ATOM     27  H   UNL     1      33.803 -19.099 -21.400  0.00  0.00    +0.150 HD
BRANCH  26  31
ATOM     28  O   UNL     1      34.411 -22.018 -18.867  0.00  0.00    -0.416 OA
ATOM     29  N   UNL     1      32.818 -20.719 -19.753  0.00  0.00    -0.102 NA
ATOM     30  N   UNL     1      32.224 -21.548 -18.820  0.00  0.00    -0.111 NA
ATOM     31  C   UNL     1      34.094 -21.028 -19.746  0.00  0.00    +0.304 A 
ATOM     32  C   UNL     1      33.190 -22.288 -18.328  0.00  0.00    +0.227 A 
ATOM     33  C   UNL     1      33.137 -23.339 -17.305  0.00  0.00    +0.097 C 
ENDBRANCH  26  31
ENDBRANCH  21  25
ENDBRANCH   4  21
BRANCH   8  34
ATOM     34  O   UNL     1      32.973 -13.873 -23.378  0.00  0.00    -0.370 OA
ATOM     35  H   UNL     1      32.845 -13.586 -24.261  0.00  0.00    +0.211 HD
ENDBRANCH   8  34
TORSDOF 7
ENDMDL
