MODEL 1
REMARK VINA RESULT:     -11.4      0.000      0.000
REMARK  Name = 46937030
REMARK  7 active torsions:
REMARK  status: ('A' for Active; 'I' for Inactive)
REMARK    1  A    between atoms: C_3  and  C_10
REMARK    2  A    between atoms: C_7  and  C_25
REMARK    3  A    between atoms: N_9  and  C_12
REMARK    4  A    between atoms: C_12  and  C_13
REMARK    5  A    between atoms: C_18  and  C_21
REMARK    6  A    between atoms: C_25  and  N_26
REMARK    7  A    between atoms: N_26  and  C_29
REMARK                            x       y       z     vdW  Elec       q    Type
REMARK                         _______ _______ _______ _____ _____    ______ ____
ROOT
ATOM      1  O   UNL     1      35.466 -25.742 -11.541  0.00  0.00    -0.277 OA
ATOM      2  N   UNL     1      36.141 -24.519 -13.381  0.00  0.00    -0.275 N 
ATOM      3  C   UNL     1      35.981 -23.458 -14.374  0.00  0.00    +0.152 C 
ATOM      4  C   UNL     1      37.406 -23.109 -14.792  0.00  0.00    +0.031 C 
ATOM      5  C   UNL     1      37.507 -25.026 -13.372  0.00  0.00    +0.094 C 
ATOM      6  C   UNL     1      38.163 -24.421 -14.602  0.00  0.00    +0.024 C 
ATOM      7  C   UNL     1      35.215 -24.934 -12.437  0.00  0.00    +0.204 C 
ENDROOT
BRANCH   3  10
ATOM      8  O   UNL     1      34.909 -25.210 -15.592  0.00  0.00    -0.273 OA
ATOM      9  N   UNL     1      34.927 -23.061 -16.486  0.00  0.00    -0.299 N 
ATOM     10  C   UNL     1      35.212 -24.021 -15.531  0.00  0.00    +0.241 C 
ATOM     11  H   UNL     1      35.222 -22.136 -16.325  0.00  0.00    +0.150 HD
BRANCH   9  12
ATOM     12  C   UNL     1      34.214 -23.349 -17.710  0.00  0.00    +0.116 C 
BRANCH  12  13
ATOM     13  C   UNL     1      34.407 -22.273 -18.740  0.00  0.00    -0.003 C 
ATOM     14  C   UNL     1      33.298 -21.637 -19.298  0.00  0.00    -0.003 C 
ATOM     15  C   UNL     1      35.694 -21.911 -19.138  0.00  0.00    -0.003 C 
ATOM     16  C   UNL     1      33.477 -20.637 -20.255  0.00  0.00    +0.002 C 
ATOM     17  C   UNL     1      35.872 -20.911 -20.094  0.00  0.00    +0.002 C 
ATOM     18  C   UNL     1      34.764 -20.274 -20.652  0.00  0.00    +0.031 C 
BRANCH  18  21
ATOM     19  N   UNL     1      35.225 -17.916 -21.279  0.00  0.00    -0.343 N 
ATOM     20  N   UNL     1      34.855 -19.524 -22.934  0.00  0.00    -0.285 NA
ATOM     21  C   UNL     1      34.950 -19.232 -21.649  0.00  0.00    +0.117 C 
ATOM     22  H   UNL     1      35.348 -17.227 -21.971  0.00  0.00    +0.144 HD
ATOM     23  H   UNL     1      35.296 -17.677 -20.327  0.00  0.00    +0.144 HD
ATOM     24  H   UNL     1      34.981 -18.819 -23.610  0.00  0.00    +0.188 HD
ENDBRANCH  18  21
ENDBRANCH  12  13
ENDBRANCH   9  12
ENDBRANCH   3  10
BRANCH   7  25
ATOM     25  C   UNL     1      33.836 -24.335 -12.552  0.00  0.00    +0.006 C 
BRANCH  25  26
ATOM     26  N   UNL     1      33.003 -25.314 -13.231  0.00  0.00    +0.391 N 
ATOM     27  H   UNL     1      33.279 -25.366 -14.212  0.00  0.00    -0.084 HD
ATOM     28  H   UNL     1      33.128 -26.221 -12.781  0.00  0.00    -0.084 HD
BRANCH  26  29
ATOM     29  C   UNL     1      31.589 -24.934 -13.148  0.00  0.00    -0.061 C 
ATOM     30  C   UNL     1      31.426 -23.426 -13.379  0.00  0.00    -0.021 C 
ATOM     31  C   UNL     1      30.770 -25.866 -14.053  0.00  0.00    -0.021 C 
ATOM     32  C   UNL     1      29.304 -25.466 -14.231  0.00  0.00    -0.002 C 
ATOM     33  C   UNL     1      31.843 -22.869 -14.741  0.00  0.00    -0.002 C 
ATOM     34  C   UNL     1      28.985 -24.808 -15.576  0.00  0.00    -0.000 C 
ATOM     35  C   UNL     1      31.077 -23.358 -15.969  0.00  0.00    -0.000 C 
ATOM     36  C   UNL     1      29.557 -23.408 -15.812  0.00  0.00    -0.000 C 
ENDBRANCH  26  29
ENDBRANCH  25  26
ENDBRANCH   7  25
TORSDOF 7
ENDMDL
MODEL 2
REMARK VINA RESULT:     -10.2      2.180      6.592
REMARK  Name = 46937030
REMARK  7 active torsions:
REMARK  status: ('A' for Active; 'I' for Inactive)
REMARK    1  A    between atoms: C_3  and  C_10
REMARK    2  A    between atoms: C_7  and  C_25
REMARK    3  A    between atoms: N_9  and  C_12
REMARK    4  A    between atoms: C_12  and  C_13
REMARK    5  A    between atoms: C_18  and  C_21
REMARK    6  A    between atoms: C_25  and  N_26
REMARK    7  A    between atoms: N_26  and  C_29
REMARK                            x       y       z     vdW  Elec       q    Type
REMARK                         _______ _______ _______ _____ _____    ______ ____
ROOT
ATOM      1  O   UNL     1      38.232 -22.781 -15.936  0.00  0.00    -0.277 OA
ATOM      2  N   UNL     1      37.289 -24.578 -14.832  0.00  0.00    -0.275 N 
ATOM      3  C   UNL     1      36.228 -25.557 -14.598  0.00  0.00    +0.152 C 
ATOM      4  C   UNL     1      36.945 -26.754 -13.982  0.00  0.00    +0.031 C 
ATOM      5  C   UNL     1      38.521 -24.970 -14.160  0.00  0.00    +0.094 C 
ATOM      6  C   UNL     1      38.128 -26.124 -13.252  0.00  0.00    +0.024 C 
ATOM      7  C   UNL     1      37.253 -23.486 -15.686  0.00  0.00    +0.204 C 
ENDROOT
BRANCH   3  10
ATOM      8  O   UNL     1      35.622 -24.221 -12.715  0.00  0.00    -0.273 OA
ATOM      9  N   UNL     1      33.956 -25.364 -13.870  0.00  0.00    -0.299 N 
ATOM     10  C   UNL     1      35.257 -24.961 -13.624  0.00  0.00    +0.241 C 
ATOM     11  H   UNL     1      33.786 -25.962 -14.634  0.00  0.00    +0.150 HD
BRANCH   9  12
ATOM     12  C   UNL     1      32.832 -24.949 -13.061  0.00  0.00    +0.116 C 
BRANCH  12  13
ATOM     13  C   UNL     1      31.620 -24.650 -13.895  0.00  0.00    -0.003 C 
ATOM     14  C   UNL     1      30.459 -25.408 -13.734  0.00  0.00    -0.003 C 
ATOM     15  C   UNL     1      31.654 -23.616 -14.830  0.00  0.00    -0.003 C 
ATOM     16  C   UNL     1      29.332 -25.130 -14.508  0.00  0.00    +0.002 C 
ATOM     17  C   UNL     1      30.527 -23.338 -15.604  0.00  0.00    +0.002 C 
ATOM     18  C   UNL     1      29.366 -24.095 -15.442  0.00  0.00    +0.031 C 
BRANCH  18  21
ATOM     19  N   UNL     1      27.428 -22.659 -16.032  0.00  0.00    -0.343 N 
ATOM     20  N   UNL     1      27.828 -24.639 -17.207  0.00  0.00    -0.285 NA
ATOM     21  C   UNL     1      28.192 -23.805 -16.249  0.00  0.00    +0.117 C 
ATOM     22  H   UNL     1      26.637 -22.483 -16.591  0.00  0.00    +0.144 HD
ATOM     23  H   UNL     1      27.680 -22.027 -15.321  0.00  0.00    +0.144 HD
ATOM     24  H   UNL     1      27.033 -24.445 -17.754  0.00  0.00    +0.188 HD
ENDBRANCH  18  21
ENDBRANCH  12  13
ENDBRANCH   9  12
ENDBRANCH   3  10
BRANCH   7  25
ATOM     25  C   UNL     1      35.919 -23.185 -16.321  0.00  0.00    +0.006 C 
BRANCH  25  26
ATOM     26  N   UNL     1      36.055 -21.913 -17.012  0.00  0.00    +0.391 N 
ATOM     27  H   UNL     1      35.269 -21.312 -16.765  0.00  0.00    -0.084 HD
ATOM     28  H   UNL     1      36.933 -21.477 -16.729  0.00  0.00    -0.084 HD
BRANCH  26  29
ATOM     29  C   UNL     1      36.072 -22.114 -18.464  0.00  0.00    -0.061 C 
ATOM     30  C   UNL     1      34.794 -22.829 -18.920  0.00  0.00    -0.021 C 
ATOM     31  C   UNL     1      36.399 -20.777 -19.146  0.00  0.00    -0.021 C 
ATOM     32  C   UNL     1      36.252 -20.780 -20.669  0.00  0.00    -0.002 C 
ATOM     33  C   UNL     1      33.462 -22.111 -18.696  0.00  0.00    -0.002 C 
ATOM     34  C   UNL     1      34.988 -20.087 -21.185  0.00  0.00    -0.000 C 
ATOM     35  C   UNL     1      33.241 -20.789 -19.429  0.00  0.00    -0.000 C 
ATOM     36  C   UNL     1      33.655 -20.783 -20.901  0.00  0.00    -0.000 C 
ENDBRANCH  26  29
ENDBRANCH  25  26
ENDBRANCH   7  25
TORSDOF 7
ENDMDL
MODEL 3
REMARK VINA RESULT:      -9.5      1.593      2.149
REMARK  Name = 46937030
REMARK  7 active torsions:
REMARK  status: ('A' for Active; 'I' for Inactive)
REMARK    1  A    between atoms: C_3  and  C_10
REMARK    2  A    between atoms: C_7  and  C_25
REMARK    3  A    between atoms: N_9  and  C_12
REMARK    4  A    between atoms: C_12  and  C_13
REMARK    5  A    between atoms: C_18  and  C_21
REMARK    6  A    between atoms: C_25  and  N_26
REMARK    7  A    between atoms: N_26  and  C_29
REMARK                            x       y       z     vdW  Elec       q    Type
REMARK                         _______ _______ _______ _____ _____    ______ ____
ROOT
ATOM      1  O   UNL     1      34.444 -25.596 -11.323  0.00  0.00    -0.277 OA
ATOM      2  N   UNL     1      36.177 -24.230 -12.009  0.00  0.00    -0.275 N 
ATOM      3  C   UNL     1      36.744 -23.135 -12.794  0.00  0.00    +0.152 C 
ATOM      4  C   UNL     1      37.936 -22.655 -11.972  0.00  0.00    +0.031 C 
ATOM      5  C   UNL     1      37.080 -24.630 -10.938  0.00  0.00    +0.094 C 
ATOM      6  C   UNL     1      38.387 -23.913 -11.234  0.00  0.00    +0.024 C 
ATOM      7  C   UNL     1      34.902 -24.765 -12.110  0.00  0.00    +0.204 C 
ENDROOT
BRANCH   3  10
ATOM      8  O   UNL     1      37.641 -24.836 -14.209  0.00  0.00    -0.273 OA
ATOM      9  N   UNL     1      37.072 -22.779 -15.139  0.00  0.00    -0.299 N 
ATOM     10  C   UNL     1      37.197 -23.695 -14.109  0.00  0.00    +0.241 C 
ATOM     11  H   UNL     1      36.700 -21.891 -14.934  0.00  0.00    +0.150 HD
BRANCH   9  12
ATOM     12  C   UNL     1      37.460 -23.063 -16.502  0.00  0.00    +0.116 C 
BRANCH  12  13
ATOM     13  C   UNL     1      36.492 -22.486 -17.494  0.00  0.00    -0.003 C 
ATOM     14  C   UNL     1      36.948 -21.629 -18.496  0.00  0.00    -0.003 C 
ATOM     15  C   UNL     1      35.137 -22.806 -17.413  0.00  0.00    -0.003 C 
ATOM     16  C   UNL     1      36.048 -21.093 -19.418  0.00  0.00    +0.002 C 
ATOM     17  C   UNL     1      34.237 -22.270 -18.334  0.00  0.00    +0.002 C 
ATOM     18  C   UNL     1      34.693 -21.414 -19.337  0.00  0.00    +0.031 C 
BRANCH  18  21
ATOM     19  N   UNL     1      34.195 -20.127 -21.401  0.00  0.00    -0.343 N 
ATOM     20  N   UNL     1      32.456 -21.034 -20.130  0.00  0.00    -0.285 NA
ATOM     21  C   UNL     1      33.755 -20.857 -20.298  0.00  0.00    +0.117 C 
ATOM     22  H   UNL     1      33.542 -19.759 -22.039  0.00  0.00    +0.144 HD
ATOM     23  H   UNL     1      35.158 -19.981 -21.542  0.00  0.00    +0.144 HD
ATOM     24  H   UNL     1      31.820 -20.657 -20.780  0.00  0.00    +0.188 HD
ENDBRANCH  18  21
ENDBRANCH  12  13
ENDBRANCH   9  12
ENDBRANCH   3  10
BRANCH   7  25
ATOM     25  C   UNL     1      34.064 -24.269 -13.261  0.00  0.00    +0.006 C 
BRANCH  25  26
ATOM     26  N   UNL     1      33.083 -25.303 -13.549  0.00  0.00    +0.391 N 
ATOM     27  H   UNL     1      33.215 -25.634 -14.505  0.00  0.00    -0.084 HD
ATOM     28  H   UNL     1      33.211 -26.071 -12.890  0.00  0.00    -0.084 HD
BRANCH  26  29
ATOM     29  C   UNL     1      31.722 -24.777 -13.404  0.00  0.00    -0.061 C 
ATOM     30  C   UNL     1      31.681 -23.289 -13.779  0.00  0.00    -0.021 C 
ATOM     31  C   UNL     1      30.749 -25.705 -14.147  0.00  0.00    -0.021 C 
ATOM     32  C   UNL     1      29.317 -25.179 -14.260  0.00  0.00    -0.002 C 
ATOM     33  C   UNL     1      32.036 -22.911 -15.217  0.00  0.00    -0.002 C 
ATOM     34  C   UNL     1      28.952 -24.625 -15.640  0.00  0.00    -0.000 C 
ATOM     35  C   UNL     1      31.130 -23.437 -16.330  0.00  0.00    -0.000 C 
ATOM     36  C   UNL     1      29.630 -23.318 -16.060  0.00  0.00    -0.000 C 
ENDBRANCH  26  29
ENDBRANCH  25  26
ENDBRANCH   7  25
TORSDOF 7
ENDMDL
MODEL 4
REMARK VINA RESULT:      -9.5      1.930      5.142
REMARK  Name = 46937030
REMARK  7 active torsions:
REMARK  status: ('A' for Active; 'I' for Inactive)
REMARK    1  A    between atoms: C_3  and  C_10
REMARK    2  A    between atoms: C_7  and  C_25
REMARK    3  A    between atoms: N_9  and  C_12
REMARK    4  A    between atoms: C_12  and  C_13
REMARK    5  A    between atoms: C_18  and  C_21
REMARK    6  A    between atoms: C_25  and  N_26
REMARK    7  A    between atoms: N_26  and  C_29
REMARK                            x       y       z     vdW  Elec       q    Type
REMARK                         _______ _______ _______ _____ _____    ______ ____
ROOT
ATOM      1  O   UNL     1      32.738 -23.967 -12.946  0.00  0.00    -0.277 OA
ATOM      2  N   UNL     1      33.214 -23.739 -15.196  0.00  0.00    -0.275 N 
ATOM      3  C   UNL     1      34.022 -23.978 -16.390  0.00  0.00    +0.152 C 
ATOM      4  C   UNL     1      33.034 -23.866 -17.547  0.00  0.00    +0.031 C 
ATOM      5  C   UNL     1      31.899 -23.221 -15.548  0.00  0.00    +0.094 C 
ATOM      6  C   UNL     1      31.989 -22.882 -17.027  0.00  0.00    +0.024 C 
ATOM      7  C   UNL     1      33.526 -24.076 -13.888  0.00  0.00    +0.204 C 
ENDROOT
BRANCH   3  10
ATOM      8  O   UNL     1      35.311 -22.169 -15.516  0.00  0.00    -0.273 OA
ATOM      9  N   UNL     1      35.644 -22.828 -17.723  0.00  0.00    -0.299 N 
ATOM     10  C   UNL     1      35.058 -22.898 -16.471  0.00  0.00    +0.241 C 
ATOM     11  H   UNL     1      35.358 -23.470 -18.412  0.00  0.00    +0.150 HD
BRANCH   9  12
ATOM     12  C   UNL     1      36.658 -21.857 -18.069  0.00  0.00    +0.116 C 
BRANCH  12  13
ATOM     13  C   UNL     1      36.279 -21.058 -19.283  0.00  0.00    -0.003 C 
ATOM     14  C   UNL     1      37.206 -20.194 -19.865  0.00  0.00    -0.003 C 
ATOM     15  C   UNL     1      35.000 -21.178 -19.826  0.00  0.00    -0.003 C 
ATOM     16  C   UNL     1      36.855 -19.451 -20.993  0.00  0.00    +0.002 C 
ATOM     17  C   UNL     1      34.648 -20.435 -20.953  0.00  0.00    +0.002 C 
ATOM     18  C   UNL     1      35.576 -19.572 -21.537  0.00  0.00    +0.031 C 
BRANCH  18  21
ATOM     19  N   UNL     1      35.581 -17.461 -22.844  0.00  0.00    -0.343 N 
ATOM     20  N   UNL     1      34.506 -19.361 -23.679  0.00  0.00    -0.285 NA
ATOM     21  C   UNL     1      35.209 -18.798 -22.712  0.00  0.00    +0.117 C 
ATOM     22  H   UNL     1      35.321 -16.956 -23.649  0.00  0.00    +0.144 HD
ATOM     23  H   UNL     1      36.101 -17.022 -22.134  0.00  0.00    +0.144 HD
ATOM     24  H   UNL     1      34.257 -18.839 -24.475  0.00  0.00    +0.188 HD
ENDBRANCH  18  21
ENDBRANCH  12  13
ENDBRANCH   9  12
ENDBRANCH   3  10
BRANCH   7  25
ATOM     25  C   UNL     1      34.919 -24.602 -13.653  0.00  0.00    +0.006 C 
BRANCH  25  26
ATOM     26  N   UNL     1      35.587 -23.658 -12.771  0.00  0.00    +0.391 N 
ATOM     27  H   UNL     1      35.149 -22.741 -12.869  0.00  0.00    -0.084 HD
ATOM     28  H   UNL     1      35.502 -23.988 -11.810  0.00  0.00    -0.084 HD
BRANCH  26  29
ATOM     29  C   UNL     1      37.009 -23.552 -13.112  0.00  0.00    -0.061 C 
ATOM     30  C   UNL     1      37.877 -23.940 -11.908  0.00  0.00    -0.021 C 
ATOM     31  C   UNL     1      37.264 -24.312 -14.423  0.00  0.00    -0.021 C 
ATOM     32  C   UNL     1      38.738 -24.466 -14.801  0.00  0.00    -0.002 C 
ATOM     33  C   UNL     1      37.763 -25.373 -11.384  0.00  0.00    -0.002 C 
ATOM     34  C   UNL     1      39.317 -25.858 -14.542  0.00  0.00    -0.000 C 
ATOM     35  C   UNL     1      38.181 -26.504 -12.323  0.00  0.00    -0.000 C 
ATOM     36  C   UNL     1      39.491 -26.272 -13.078  0.00  0.00    -0.000 C 
ENDBRANCH  26  29
ENDBRANCH  25  26
ENDBRANCH   7  25
TORSDOF 7
ENDMDL
MODEL 5
REMARK VINA RESULT:      -9.3      1.657      4.831
REMARK  Name = 46937030
REMARK  7 active torsions:
REMARK  status: ('A' for Active; 'I' for Inactive)
REMARK    1  A    between atoms: C_3  and  C_10
REMARK    2  A    between atoms: C_7  and  C_25
REMARK    3  A    between atoms: N_9  and  C_12
REMARK    4  A    between atoms: C_12  and  C_13
REMARK    5  A    between atoms: C_18  and  C_21
REMARK    6  A    between atoms: C_25  and  N_26
REMARK    7  A    between atoms: N_26  and  C_29
REMARK                            x       y       z     vdW  Elec       q    Type
REMARK                         _______ _______ _______ _____ _____    ______ ____
ROOT
ATOM      1  O   UNL     1      30.824 -24.783 -12.372  0.00  0.00    -0.277 OA
ATOM      2  N   UNL     1      31.095 -24.073 -14.553  0.00  0.00    -0.275 N 
ATOM      3  C   UNL     1      31.654 -24.175 -15.900  0.00  0.00    +0.152 C 
ATOM      4  C   UNL     1      30.626 -23.486 -16.792  0.00  0.00    +0.031 C 
ATOM      5  C   UNL     1      29.971 -23.146 -14.521  0.00  0.00    +0.094 C 
ATOM      6  C   UNL     1      29.996 -22.445 -15.869  0.00  0.00    +0.024 C 
ATOM      7  C   UNL     1      31.432 -24.831 -13.443  0.00  0.00    +0.204 C 
ENDROOT
BRANCH   3  10
ATOM      8  O   UNL     1      33.258 -22.632 -15.036  0.00  0.00    -0.273 OA
ATOM      9  N   UNL     1      33.719 -23.742 -17.030  0.00  0.00    -0.299 N 
ATOM     10  C   UNL     1      32.955 -23.431 -15.918  0.00  0.00    +0.241 C 
ATOM     11  H   UNL     1      33.369 -24.402 -17.671  0.00  0.00    +0.150 HD
BRANCH   9  12
ATOM     12  C   UNL     1      35.008 -23.144 -17.296  0.00  0.00    +0.116 C 
BRANCH  12  13
ATOM     13  C   UNL     1      34.954 -22.181 -18.448  0.00  0.00    -0.003 C 
ATOM     14  C   UNL     1      36.136 -21.671 -18.985  0.00  0.00    -0.003 C 
ATOM     15  C   UNL     1      33.723 -21.798 -18.979  0.00  0.00    -0.003 C 
ATOM     16  C   UNL     1      36.086 -20.776 -20.054  0.00  0.00    +0.002 C 
ATOM     17  C   UNL     1      33.673 -20.903 -20.048  0.00  0.00    +0.002 C 
ATOM     18  C   UNL     1      34.855 -20.393 -20.586  0.00  0.00    +0.031 C 
BRANCH  18  21
ATOM     19  N   UNL     1      34.950 -18.089 -21.507  0.00  0.00    -0.343 N 
ATOM     20  N   UNL     1      34.607 -19.912 -22.928  0.00  0.00    -0.285 NA
ATOM     21  C   UNL     1      34.803 -19.462 -21.701  0.00  0.00    +0.117 C 
ATOM     22  H   UNL     1      34.911 -17.477 -22.277  0.00  0.00    +0.144 HD
ATOM     23  H   UNL     1      35.093 -17.733 -20.601  0.00  0.00    +0.144 HD
ATOM     24  H   UNL     1      34.571 -19.283 -23.684  0.00  0.00    +0.188 HD
ENDBRANCH  18  21
ENDBRANCH  12  13
ENDBRANCH   9  12
ENDBRANCH   3  10
BRANCH   7  25
ATOM     25  C   UNL     1      32.614 -25.753 -13.603  0.00  0.00    +0.006 C 
BRANCH  25  26
ATOM     26  N   UNL     1      33.580 -25.387 -12.580  0.00  0.00    +0.391 N 
ATOM     27  H   UNL     1      33.128 -24.781 -11.894  0.00  0.00    -0.084 HD
ATOM     28  H   UNL     1      33.919 -26.237 -12.130  0.00  0.00    -0.084 HD
BRANCH  26  29
ATOM     29  C   UNL     1      34.717 -24.679 -13.174  0.00  0.00    -0.061 C 
ATOM     30  C   UNL     1      35.636 -24.127 -12.077  0.00  0.00    -0.021 C 
ATOM     31  C   UNL     1      35.368 -25.584 -14.232  0.00  0.00    -0.021 C 
ATOM     32  C   UNL     1      36.692 -25.065 -14.796  0.00  0.00    -0.002 C 
ATOM     33  C   UNL     1      36.316 -25.134 -11.148  0.00  0.00    -0.002 C 
ATOM     34  C   UNL     1      37.935 -25.769 -14.247  0.00  0.00    -0.000 C 
ATOM     35  C   UNL     1      37.301 -26.120 -11.775  0.00  0.00    -0.000 C 
ATOM     36  C   UNL     1      38.282 -25.512 -12.778  0.00  0.00    -0.000 C 
ENDBRANCH  26  29
ENDBRANCH  25  26
ENDBRANCH   7  25
TORSDOF 7
ENDMDL
MODEL 6
REMARK VINA RESULT:      -9.1      8.522     13.279
REMARK  Name = 46937030
REMARK  7 active torsions:
REMARK  status: ('A' for Active; 'I' for Inactive)
REMARK    1  A    between atoms: C_3  and  C_10
REMARK    2  A    between atoms: C_7  and  C_25
REMARK    3  A    between atoms: N_9  and  C_12
REMARK    4  A    between atoms: C_12  and  C_13
REMARK    5  A    between atoms: C_18  and  C_21
REMARK    6  A    between atoms: C_25  and  N_26
REMARK    7  A    between atoms: N_26  and  C_29
REMARK                            x       y       z     vdW  Elec       q    Type
REMARK                         _______ _______ _______ _____ _____    ______ ____
ROOT
ATOM      1  O   UNL     1      34.001 -16.706 -24.773  0.00  0.00    -0.277 OA
ATOM      2  N   UNL     1      33.895 -14.422 -24.441  0.00  0.00    -0.275 N 
ATOM      3  C   UNL     1      34.149 -13.200 -23.681  0.00  0.00    +0.152 C 
ATOM      4  C   UNL     1      34.203 -12.099 -24.737  0.00  0.00    +0.031 C 
ATOM      5  C   UNL     1      33.516 -14.116 -25.815  0.00  0.00    +0.094 C 
ATOM      6  C   UNL     1      33.276 -12.615 -25.835  0.00  0.00    +0.024 C 
ATOM      7  C   UNL     1      34.110 -15.728 -24.030  0.00  0.00    +0.204 C 
ENDROOT
BRANCH   3  10
ATOM      8  O   UNL     1      32.274 -13.911 -22.386  0.00  0.00    -0.273 OA
ATOM      9  N   UNL     1      32.848 -11.655 -22.395  0.00  0.00    -0.299 N 
ATOM     10  C   UNL     1      32.994 -12.985 -22.751  0.00  0.00    +0.241 C 
ATOM     11  H   UNL     1      33.492 -11.001 -22.752  0.00  0.00    +0.150 HD
BRANCH   9  12
ATOM     12  C   UNL     1      31.797 -11.179 -21.525  0.00  0.00    +0.116 C 
BRANCH  12  13
ATOM     13  C   UNL     1      31.625  -9.690 -21.614  0.00  0.00    -0.003 C 
ATOM     14  C   UNL     1      31.113  -9.116 -22.778  0.00  0.00    -0.003 C 
ATOM     15  C   UNL     1      31.979  -8.881 -20.535  0.00  0.00    -0.003 C 
ATOM     16  C   UNL     1      30.953  -7.733 -22.862  0.00  0.00    +0.002 C 
ATOM     17  C   UNL     1      31.819  -7.497 -20.618  0.00  0.00    +0.002 C 
ATOM     18  C   UNL     1      31.305  -6.924 -21.781  0.00  0.00    +0.031 C 
BRANCH  18  21
ATOM     19  N   UNL     1      29.989  -4.855 -21.388  0.00  0.00    -0.343 N 
ATOM     20  N   UNL     1      32.086  -4.740 -22.413  0.00  0.00    -0.285 NA
ATOM     21  C   UNL     1      31.138  -5.482 -21.868  0.00  0.00    +0.117 C 
ATOM     22  H   UNL     1      29.897  -3.877 -21.457  0.00  0.00    +0.144 HD
ATOM     23  H   UNL     1      29.270  -5.390 -20.981  0.00  0.00    +0.144 HD
ATOM     24  H   UNL     1      31.974  -3.764 -22.473  0.00  0.00    +0.188 HD
ENDBRANCH  18  21
ENDBRANCH  12  13
ENDBRANCH   9  12
ENDBRANCH   3  10
BRANCH   7  25
ATOM     25  C   UNL     1      34.499 -15.913 -22.586  0.00  0.00    +0.006 C 
BRANCH  25  26
ATOM     26  N   UNL     1      35.667 -16.779 -22.567  0.00  0.00    +0.391 N 
ATOM     27  H   UNL     1      36.244 -16.581 -23.385  0.00  0.00    -0.084 HD
ATOM     28  H   UNL     1      36.194 -16.603 -21.712  0.00  0.00    -0.084 HD
BRANCH  26  29
ATOM     29  C   UNL     1      35.263 -18.189 -22.592  0.00  0.00    -0.061 C 
ATOM     30  C   UNL     1      36.491 -19.093 -22.768  0.00  0.00    -0.021 C 
ATOM     31  C   UNL     1      34.364 -18.469 -21.379  0.00  0.00    -0.021 C 
ATOM     32  C   UNL     1      34.029 -19.945 -21.154  0.00  0.00    -0.002 C 
ATOM     33  C   UNL     1      37.553 -19.067 -21.668  0.00  0.00    -0.002 C 
ATOM     34  C   UNL     1      34.809 -20.606 -20.015  0.00  0.00    -0.000 C 
ATOM     35  C   UNL     1      37.138 -19.537 -20.274  0.00  0.00    -0.000 C 
ATOM     36  C   UNL     1      36.308 -20.822 -20.240  0.00  0.00    -0.000 C 
ENDBRANCH  26  29
ENDBRANCH  25  26
ENDBRANCH   7  25
TORSDOF 7
ENDMDL
MODEL 7
REMARK VINA RESULT:      -9.1      7.276     12.204
REMARK  Name = 46937030
REMARK  7 active torsions:
REMARK  status: ('A' for Active; 'I' for Inactive)
REMARK    1  A    between atoms: C_3  and  C_10
REMARK    2  A    between atoms: C_7  and  C_25
REMARK    3  A    between atoms: N_9  and  C_12
REMARK    4  A    between atoms: C_12  and  C_13
REMARK    5  A    between atoms: C_18  and  C_21
REMARK    6  A    between atoms: C_25  and  N_26
REMARK    7  A    between atoms: N_26  and  C_29
REMARK                            x       y       z     vdW  Elec       q    Type
REMARK                         _______ _______ _______ _____ _____    ______ ____
ROOT
ATOM      1  O   UNL     1      34.221 -17.846 -25.017  0.00  0.00    -0.277 OA
ATOM      2  N   UNL     1      34.032 -15.565 -24.703  0.00  0.00    -0.275 N 
ATOM      3  C   UNL     1      34.466 -14.282 -24.152  0.00  0.00    +0.152 C 
ATOM      4  C   UNL     1      33.933 -13.245 -25.136  0.00  0.00    +0.031 C 
ATOM      5  C   UNL     1      33.057 -15.374 -25.768  0.00  0.00    +0.094 C 
ATOM      6  C   UNL     1      32.676 -13.904 -25.700  0.00  0.00    +0.024 C 
ATOM      7  C   UNL     1      34.543 -16.820 -24.414  0.00  0.00    +0.204 C 
ENDROOT
BRANCH   3  10
ATOM      8  O   UNL     1      34.279 -14.654 -21.801  0.00  0.00    -0.273 OA
ATOM      9  N   UNL     1      32.688 -13.327 -22.863  0.00  0.00    -0.299 N 
ATOM     10  C   UNL     1      33.824 -14.116 -22.807  0.00  0.00    +0.241 C 
ATOM     11  H   UNL     1      32.422 -12.949 -23.732  0.00  0.00    +0.150 HD
BRANCH   9  12
ATOM     12  C   UNL     1      31.873 -13.031 -21.707  0.00  0.00    +0.116 C 
BRANCH  12  13
ATOM     13  C   UNL     1      31.969 -11.587 -21.306  0.00  0.00    -0.003 C 
ATOM     14  C   UNL     1      31.803 -11.223 -19.970  0.00  0.00    -0.003 C 
ATOM     15  C   UNL     1      32.224 -10.611 -22.270  0.00  0.00    -0.003 C 
ATOM     16  C   UNL     1      31.893  -9.882 -19.597  0.00  0.00    +0.002 C 
ATOM     17  C   UNL     1      32.313  -9.270 -21.896  0.00  0.00    +0.002 C 
ATOM     18  C   UNL     1      32.148  -8.906 -20.560  0.00  0.00    +0.031 C 
BRANCH  18  21
ATOM     19  N   UNL     1      31.469  -6.529 -20.794  0.00  0.00    -0.343 N 
ATOM     20  N   UNL     1      33.077  -7.144 -19.214  0.00  0.00    -0.285 NA
ATOM     21  C   UNL     1      32.242  -7.507 -20.172  0.00  0.00    +0.117 C 
ATOM     22  H   UNL     1      31.549  -5.588 -20.514  0.00  0.00    +0.144 HD
ATOM     23  H   UNL     1      30.844  -6.778 -21.511  0.00  0.00    +0.144 HD
ATOM     24  H   UNL     1      33.143  -6.198 -18.950  0.00  0.00    +0.188 HD
ENDBRANCH  18  21
ENDBRANCH  12  13
ENDBRANCH   9  12
ENDBRANCH   3  10
BRANCH   7  25
ATOM     25  C   UNL     1      35.546 -16.885 -23.290  0.00  0.00    +0.006 C 
BRANCH  25  26
ATOM     26  N   UNL     1      34.847 -17.401 -22.125  0.00  0.00    +0.391 N 
ATOM     27  H   UNL     1      35.319 -17.077 -21.280  0.00  0.00    -0.084 HD
ATOM     28  H   UNL     1      33.885 -17.062 -22.142  0.00  0.00    -0.084 HD
BRANCH  26  29
ATOM     29  C   UNL     1      34.834 -18.867 -22.138  0.00  0.00    -0.061 C 
ATOM     30  C   UNL     1      36.248 -19.412 -22.374  0.00  0.00    -0.021 C 
ATOM     31  C   UNL     1      34.098 -19.368 -20.885  0.00  0.00    -0.021 C 
ATOM     32  C   UNL     1      34.180 -20.878 -20.653  0.00  0.00    -0.002 C 
ATOM     33  C   UNL     1      37.314 -19.095 -21.324  0.00  0.00    -0.002 C 
ATOM     34  C   UNL     1      35.160 -21.298 -19.554  0.00  0.00    -0.000 C 
ATOM     35  C   UNL     1      37.104 -19.648 -19.915  0.00  0.00    -0.000 C 
ATOM     36  C   UNL     1      36.650 -21.107 -19.848  0.00  0.00    -0.000 C 
ENDBRANCH  26  29
ENDBRANCH  25  26
ENDBRANCH   7  25
TORSDOF 7
ENDMDL
MODEL 8
REMARK VINA RESULT:      -9.0      2.323      7.670
REMARK  Name = 46937030
REMARK  7 active torsions:
REMARK  status: ('A' for Active; 'I' for Inactive)
REMARK    1  A    between atoms: C_3  and  C_10
REMARK    2  A    between atoms: C_7  and  C_25
REMARK    3  A    between atoms: N_9  and  C_12
REMARK    4  A    between atoms: C_12  and  C_13
REMARK    5  A    between atoms: C_18  and  C_21
REMARK    6  A    between atoms: C_25  and  N_26
REMARK    7  A    between atoms: N_26  and  C_29
REMARK                            x       y       z     vdW  Elec       q    Type
REMARK                         _______ _______ _______ _____ _____    ______ ____
ROOT
ATOM      1  O   UNL     1      32.618 -24.294 -17.821  0.00  0.00    -0.277 OA
ATOM      2  N   UNL     1      32.199 -23.772 -15.609  0.00  0.00    -0.275 N 
ATOM      3  C   UNL     1      32.572 -23.239 -14.300  0.00  0.00    +0.152 C 
ATOM      4  C   UNL     1      31.251 -22.795 -13.679  0.00  0.00    +0.031 C 
ATOM      5  C   UNL     1      30.756 -23.944 -15.713  0.00  0.00    +0.094 C 
ATOM      6  C   UNL     1      30.230 -23.745 -14.301  0.00  0.00    +0.024 C 
ATOM      7  C   UNL     1      33.026 -23.968 -16.704  0.00  0.00    +0.204 C 
ENDROOT
BRANCH   3  10
ATOM      8  O   UNL     1      32.691 -25.477 -13.477  0.00  0.00    -0.273 OA
ATOM      9  N   UNL     1      34.316 -23.946 -12.821  0.00  0.00    -0.299 N 
ATOM     10  C   UNL     1      33.184 -24.352 -13.505  0.00  0.00    +0.241 C 
ATOM     11  H   UNL     1      34.617 -23.013 -12.923  0.00  0.00    +0.150 HD
BRANCH   9  12
ATOM     12  C   UNL     1      35.081 -24.823 -11.963  0.00  0.00    +0.116 C 
BRANCH  12  13
ATOM     13  C   UNL     1      36.379 -25.235 -12.595  0.00  0.00    -0.003 C 
ATOM     14  C   UNL     1      37.573 -25.095 -11.888  0.00  0.00    -0.003 C 
ATOM     15  C   UNL     1      36.391 -25.757 -13.888  0.00  0.00    -0.003 C 
ATOM     16  C   UNL     1      38.780 -25.478 -12.474  0.00  0.00    +0.002 C 
ATOM     17  C   UNL     1      37.597 -26.140 -14.475  0.00  0.00    +0.002 C 
ATOM     18  C   UNL     1      38.791 -26.001 -13.767  0.00  0.00    +0.031 C 
BRANCH  18  21
ATOM     19  N   UNL     1      41.015 -27.101 -13.659  0.00  0.00    -0.343 N 
ATOM     20  N   UNL     1      40.294 -26.097 -15.641  0.00  0.00    -0.285 NA
ATOM     21  C   UNL     1      40.049 -26.401 -14.379  0.00  0.00    +0.117 C 
ATOM     22  H   UNL     1      41.859 -27.362 -14.093  0.00  0.00    +0.144 HD
ATOM     23  H   UNL     1      40.853 -27.334 -12.716  0.00  0.00    +0.144 HD
ATOM     24  H   UNL     1      41.144 -26.366 -16.057  0.00  0.00    +0.188 HD
ENDBRANCH  18  21
ENDBRANCH  12  13
ENDBRANCH   9  12
ENDBRANCH   3  10
BRANCH   7  25
ATOM     25  C   UNL     1      34.500 -23.758 -16.468  0.00  0.00    +0.006 C 
BRANCH  25  26
ATOM     26  N   UNL     1      34.828 -22.435 -16.974  0.00  0.00    +0.391 N 
ATOM     27  H   UNL     1      33.968 -21.896 -17.082  0.00  0.00    -0.084 HD
ATOM     28  H   UNL     1      35.452 -21.975 -16.312  0.00  0.00    -0.084 HD
BRANCH  26  29
ATOM     29  C   UNL     1      35.502 -22.533 -18.272  0.00  0.00    -0.061 C 
ATOM     30  C   UNL     1      34.474 -22.708 -19.398  0.00  0.00    -0.021 C 
ATOM     31  C   UNL     1      36.486 -21.361 -18.410  0.00  0.00    -0.021 C 
ATOM     32  C   UNL     1      37.117 -21.209 -19.795  0.00  0.00    -0.002 C 
ATOM     33  C   UNL     1      33.472 -21.576 -19.624  0.00  0.00    -0.002 C 
ATOM     34  C   UNL     1      36.529 -20.076 -20.639  0.00  0.00    -0.000 C 
ATOM     35  C   UNL     1      34.026 -20.217 -20.051  0.00  0.00    -0.000 C 
ATOM     36  C   UNL     1      35.095 -20.263 -21.143  0.00  0.00    -0.000 C 
ENDBRANCH  26  29
ENDBRANCH  25  26
ENDBRANCH   7  25
TORSDOF 7
ENDMDL
MODEL 9
REMARK VINA RESULT:      -9.0      2.449      6.221
REMARK  Name = 46937030
REMARK  7 active torsions:
REMARK  status: ('A' for Active; 'I' for Inactive)
REMARK    1  A    between atoms: C_3  and  C_10
REMARK    2  A    between atoms: C_7  and  C_25
REMARK    3  A    between atoms: N_9  and  C_12
REMARK    4  A    between atoms: C_12  and  C_13
REMARK    5  A    between atoms: C_18  and  C_21
REMARK    6  A    between atoms: C_25  and  N_26
REMARK    7  A    between atoms: N_26  and  C_29
REMARK                            x       y       z     vdW  Elec       q    Type
REMARK                         _______ _______ _______ _____ _____    ______ ____
ROOT
ATOM      1  O   UNL     1      39.596 -24.325 -14.540  0.00  0.00    -0.277 OA
ATOM      2  N   UNL     1      37.682 -25.620 -14.566  0.00  0.00    -0.275 N 
ATOM      3  C   UNL     1      36.282 -25.874 -14.898  0.00  0.00    +0.152 C 
ATOM      4  C   UNL     1      36.183 -27.393 -15.001  0.00  0.00    +0.031 C 
ATOM      5  C   UNL     1      38.363 -26.852 -14.188  0.00  0.00    +0.094 C 
ATOM      6  C   UNL     1      37.257 -27.884 -14.033  0.00  0.00    +0.024 C 
ATOM      7  C   UNL     1      38.380 -24.431 -14.713  0.00  0.00    +0.204 C 
ENDROOT
BRANCH   3  10
ATOM      8  O   UNL     1      35.919 -25.100 -12.669  0.00  0.00    -0.273 OA
ATOM      9  N   UNL     1      34.104 -25.258 -14.118  0.00  0.00    -0.299 N 
ATOM     10  C   UNL     1      35.439 -25.363 -13.768  0.00  0.00    +0.241 C 
ATOM     11  H   UNL     1      33.838 -25.499 -15.035  0.00  0.00    +0.150 HD
BRANCH   9  12
ATOM     12  C   UNL     1      33.079 -24.812 -13.201  0.00  0.00    +0.116 C 
BRANCH  12  13
ATOM     13  C   UNL     1      31.788 -24.508 -13.907  0.00  0.00    -0.003 C 
ATOM     14  C   UNL     1      31.681 -23.366 -14.701  0.00  0.00    -0.003 C 
ATOM     15  C   UNL     1      30.698 -25.366 -13.766  0.00  0.00    -0.003 C 
ATOM     16  C   UNL     1      30.482 -23.083 -15.356  0.00  0.00    +0.002 C 
ATOM     17  C   UNL     1      29.499 -25.083 -14.422  0.00  0.00    +0.002 C 
ATOM     18  C   UNL     1      29.392 -23.942 -15.217  0.00  0.00    +0.031 C 
BRANCH  18  21
ATOM     19  N   UNL     1      27.216 -22.756 -15.365  0.00  0.00    -0.343 N 
ATOM     20  N   UNL     1      27.866 -24.237 -17.051  0.00  0.00    -0.285 NA
ATOM     21  C   UNL     1      28.142 -23.648 -15.900  0.00  0.00    +0.117 C 
ATOM     22  H   UNL     1      26.376 -22.571 -15.845  0.00  0.00    +0.144 HD
ATOM     23  H   UNL     1      27.401 -22.309 -14.507  0.00  0.00    +0.144 HD
ATOM     24  H   UNL     1      27.021 -24.039 -17.515  0.00  0.00    +0.188 HD
ENDBRANCH  18  21
ENDBRANCH  12  13
ENDBRANCH   9  12
ENDBRANCH   3  10
BRANCH   7  25
ATOM     25  C   UNL     1      37.563 -23.228 -15.109  0.00  0.00    +0.006 C 
BRANCH  25  26
ATOM     26  N   UNL     1      36.860 -23.575 -16.333  0.00  0.00    +0.391 N 
ATOM     27  H   UNL     1      37.510 -23.524 -17.119  0.00  0.00    -0.084 HD
ATOM     28  H   UNL     1      36.490 -24.521 -16.244  0.00  0.00    -0.084 HD
BRANCH  26  29
ATOM     29  C   UNL     1      35.747 -22.651 -16.569  0.00  0.00    -0.061 C 
ATOM     30  C   UNL     1      36.248 -21.372 -17.252  0.00  0.00    -0.021 C 
ATOM     31  C   UNL     1      34.610 -23.411 -17.270  0.00  0.00    -0.021 C 
ATOM     32  C   UNL     1      33.460 -22.533 -17.765  0.00  0.00    -0.002 C 
ATOM     33  C   UNL     1      36.870 -21.509 -18.643  0.00  0.00    -0.002 C 
ATOM     34  C   UNL     1      33.460 -22.280 -19.275  0.00  0.00    -0.000 C 
ATOM     35  C   UNL     1      35.973 -22.017 -19.771  0.00  0.00    -0.000 C 
ATOM     36  C   UNL     1      34.579 -21.392 -19.826  0.00  0.00    -0.000 C 
ENDBRANCH  26  29
ENDBRANCH  25  26
ENDBRANCH   7  25
TORSDOF 7
ENDMDL
