MODEL 1
REMARK VINA RESULT:     -12.5      0.000      0.000
REMARK  Name = 25243853
REMARK  6 active torsions:
REMARK  status: ('A' for Active; 'I' for Inactive)
REMARK    1  A    between atoms: N_1  and  C_6
REMARK    2  A    between atoms: N_1  and  C_21
REMARK    3  A    between atoms: C_3  and  C_16
REMARK    4  A    between atoms: C_11  and  C_18
REMARK    5  A    between atoms: C_18  and  O_19
REMARK    6  A    between atoms: C_21  and  C_28
REMARK                            x       y       z     vdW  Elec       q    Type
REMARK                         _______ _______ _______ _____ _____    ______ ____
ROOT
ATOM      1  N   UNL     1      35.477 -19.568 -21.812  0.00  0.00    -0.327 N 
ATOM      2  H   UNL     1      35.698 -19.975 -22.680  0.00  0.00    +0.147 HD
ENDROOT
BRANCH   1   6
ATOM      3  C   UNL     1      34.079 -22.053 -18.727  0.00  0.00    +0.054 C 
ATOM      4  C   UNL     1      33.178 -21.285 -19.466  0.00  0.00    +0.006 C 
ATOM      5  C   UNL     1      35.443 -21.995 -19.013  0.00  0.00    +0.006 C 
ATOM      6  C   UNL     1      35.007 -20.403 -20.776  0.00  0.00    +0.045 C 
ATOM      7  C   UNL     1      33.643 -20.461 -20.491  0.00  0.00    +0.014 C 
ATOM      8  C   UNL     1      35.907 -21.170 -20.037  0.00  0.00    +0.014 C 
BRANCH   3  16
ATOM      9  O   UNL     1      32.383 -23.155 -17.645  0.00  0.00    -0.270 OA
ATOM     10  N   UNL     1      34.519 -23.410 -16.726  0.00  0.00    -0.276 N 
ATOM     11  C   UNL     1      35.912 -23.271 -14.182  0.00  0.00    +0.102 C 
ATOM     12  C   UNL     1      34.427 -23.639 -14.278  0.00  0.00    +0.033 C 
ATOM     13  C   UNL     1      36.393 -22.493 -15.410  0.00  0.00    +0.033 C 
ATOM     14  C   UNL     1      34.066 -24.258 -15.626  0.00  0.00    +0.094 C 
ATOM     15  C   UNL     1      35.959 -23.130 -16.732  0.00  0.00    +0.094 C 
ATOM     16  C   UNL     1      33.590 -22.921 -17.649  0.00  0.00    +0.249 C 
BRANCH  11  18
ATOM     17  O   UNL     1      36.278 -25.591 -13.642  0.00  0.00    -0.250 OA
ATOM     18  C   UNL     1      36.740 -24.504 -13.961  0.00  0.00    +0.317 C 
BRANCH  18  19
ATOM     19  O   UNL     1      38.055 -24.212 -14.171  0.00  0.00    -0.444 OA
ATOM     20  C   UNL     1      38.923 -25.343 -14.295  0.00  0.00    +0.256 C 
ENDBRANCH  18  19
ENDBRANCH  11  18
ENDBRANCH   3  16
ENDBRANCH   1   6
BRANCH   1  21
ATOM     21  C   UNL     1      35.647 -18.157 -21.655  0.00  0.00    +0.145 C 
BRANCH  21  28
ATOM     22  N   UNL     1      34.872 -16.107 -22.724  0.00  0.00    -0.392 NA
ATOM     23  N   UNL     1      34.350 -17.435 -25.096  0.00  0.00    -0.200 NA
ATOM     24  N   UNL     1      33.625 -15.458 -26.059  0.00  0.00    -0.271 NA
ATOM     25  N   UNL     1      33.622 -13.408 -24.815  0.00  0.00    -0.310 NA
ATOM     26  N   UNL     1      34.367 -13.401 -22.574  0.00  0.00    -0.329 N 
ATOM     27  N   UNL     1      32.889 -13.456 -27.039  0.00  0.00    -0.283 N 
ATOM     28  C   UNL     1      35.100 -17.423 -22.847  0.00  0.00    +0.133 C 
ATOM     29  C   UNL     1      34.842 -18.079 -24.020  0.00  0.00    +0.193 C 
ATOM     30  C   UNL     1      34.381 -15.464 -23.800  0.00  0.00    +0.248 C 
ATOM     31  C   UNL     1      34.113 -16.120 -25.004  0.00  0.00    +0.131 C 
ATOM     32  C   UNL     1      34.113 -14.109 -23.777  0.00  0.00    +0.231 C 
ATOM     33  C   UNL     1      33.404 -14.138 -25.915  0.00  0.00    +0.207 C 
ATOM     34  H   UNL     1      34.187 -12.435 -22.523  0.00  0.00    +0.145 HD
ATOM     35  H   UNL     1      34.724 -13.876 -21.789  0.00  0.00    +0.145 HD
ATOM     36  H   UNL     1      32.710 -13.947 -27.873  0.00  0.00    +0.156 HD
ATOM     37  H   UNL     1      32.709 -12.490 -26.989  0.00  0.00    +0.156 HD
ENDBRANCH  21  28
ENDBRANCH   1  21
TORSDOF 6
ENDMDL
MODEL 2
REMARK VINA RESULT:     -12.0      0.874      1.479
REMARK  Name = 25243853
REMARK  6 active torsions:
REMARK  status: ('A' for Active; 'I' for Inactive)
REMARK    1  A    between atoms: N_1  and  C_6
REMARK    2  A    between atoms: N_1  and  C_21
REMARK    3  A    between atoms: C_3  and  C_16
REMARK    4  A    between atoms: C_11  and  C_18
REMARK    5  A    between atoms: C_18  and  O_19
REMARK    6  A    between atoms: C_21  and  C_28
REMARK                            x       y       z     vdW  Elec       q    Type
REMARK                         _______ _______ _______ _____ _____    ______ ____
ROOT
ATOM      1  N   UNL     1      35.635 -19.288 -21.956  0.00  0.00    -0.327 N 
ATOM      2  H   UNL     1      36.380 -18.684 -21.734  0.00  0.00    +0.147 HD
ENDROOT
BRANCH   1   6
ATOM      3  C   UNL     1      34.171 -21.850 -18.967  0.00  0.00    +0.054 C 
ATOM      4  C   UNL     1      35.543 -21.768 -19.204  0.00  0.00    +0.006 C 
ATOM      5  C   UNL     1      33.285 -21.081 -19.721  0.00  0.00    +0.006 C 
ATOM      6  C   UNL     1      35.143 -20.148 -20.951  0.00  0.00    +0.045 C 
ATOM      7  C   UNL     1      36.029 -20.916 -20.196  0.00  0.00    +0.014 C 
ATOM      8  C   UNL     1      33.771 -20.230 -20.714  0.00  0.00    +0.014 C 
BRANCH   3  16
ATOM      9  O   UNL     1      32.451 -22.979 -17.952  0.00  0.00    -0.270 OA
ATOM     10  N   UNL     1      34.566 -23.259 -16.992  0.00  0.00    -0.276 N 
ATOM     11  C   UNL     1      35.901 -23.186 -14.414  0.00  0.00    +0.102 C 
ATOM     12  C   UNL     1      34.419 -23.551 -14.553  0.00  0.00    +0.033 C 
ATOM     13  C   UNL     1      36.410 -22.378 -15.611  0.00  0.00    +0.033 C 
ATOM     14  C   UNL     1      34.089 -24.135 -15.925  0.00  0.00    +0.094 C 
ATOM     15  C   UNL     1      36.006 -22.979 -16.958  0.00  0.00    +0.094 C 
ATOM     16  C   UNL     1      33.659 -22.746 -17.922  0.00  0.00    +0.249 C 
BRANCH  11  18
ATOM     17  O   UNL     1      36.265 -25.500 -13.849  0.00  0.00    -0.250 OA
ATOM     18  C   UNL     1      36.725 -24.425 -14.207  0.00  0.00    +0.317 C 
BRANCH  18  19
ATOM     19  O   UNL     1      38.033 -24.152 -14.478  0.00  0.00    -0.444 OA
ATOM     20  C   UNL     1      38.944 -25.233 -14.253  0.00  0.00    +0.256 C 
ENDBRANCH  18  19
ENDBRANCH  11  18
ENDBRANCH   3  16
ENDBRANCH   1   6
BRANCH   1  21
ATOM     21  C   UNL     1      35.097 -19.254 -23.280  0.00  0.00    +0.145 C 
BRANCH  21  28
ATOM     22  N   UNL     1      34.728 -16.909 -22.719  0.00  0.00    -0.392 NA
ATOM     23  N   UNL     1      34.250 -16.258 -25.367  0.00  0.00    -0.200 NA
ATOM     24  N   UNL     1      33.911 -14.046 -24.776  0.00  0.00    -0.271 NA
ATOM     25  N   UNL     1      34.082 -13.338 -22.491  0.00  0.00    -0.310 NA
ATOM     26  N   UNL     1      34.604 -14.920 -20.815  0.00  0.00    -0.329 N 
ATOM     27  N   UNL     1      33.565 -11.802 -24.180  0.00  0.00    -0.283 N 
ATOM     28  C   UNL     1      34.776 -17.842 -23.683  0.00  0.00    +0.133 C 
ATOM     29  C   UNL     1      34.540 -17.519 -24.992  0.00  0.00    +0.193 C 
ATOM     30  C   UNL     1      34.439 -15.649 -23.096  0.00  0.00    +0.248 C 
ATOM     31  C   UNL     1      34.196 -15.306 -24.428  0.00  0.00    +0.131 C 
ATOM     32  C   UNL     1      34.366 -14.616 -22.181  0.00  0.00    +0.231 C 
ATOM     33  C   UNL     1      33.868 -13.125 -23.794  0.00  0.00    +0.207 C 
ATOM     34  H   UNL     1      34.559 -14.208 -20.137  0.00  0.00    +0.145 HD
ATOM     35  H   UNL     1      34.812 -15.843 -20.545  0.00  0.00    +0.145 HD
ATOM     36  H   UNL     1      33.398 -11.591 -25.127  0.00  0.00    +0.156 HD
ATOM     37  H   UNL     1      33.521 -11.089 -23.503  0.00  0.00    +0.156 HD
ENDBRANCH  21  28
ENDBRANCH   1  21
TORSDOF 6
ENDMDL
MODEL 3
REMARK VINA RESULT:     -11.8      1.688      2.515
REMARK  Name = 25243853
REMARK  6 active torsions:
REMARK  status: ('A' for Active; 'I' for Inactive)
REMARK    1  A    between atoms: N_1  and  C_6
REMARK    2  A    between atoms: N_1  and  C_21
REMARK    3  A    between atoms: C_3  and  C_16
REMARK    4  A    between atoms: C_11  and  C_18
REMARK    5  A    between atoms: C_18  and  O_19
REMARK    6  A    between atoms: C_21  and  C_28
REMARK                            x       y       z     vdW  Elec       q    Type
REMARK                         _______ _______ _______ _____ _____    ______ ____
ROOT
ATOM      1  N   UNL     1      34.751 -19.054 -22.126  0.00  0.00    -0.327 N 
ATOM      2  H   UNL     1      34.249 -19.151 -22.967  0.00  0.00    +0.147 HD
ENDROOT
BRANCH   1   6
ATOM      3  C   UNL     1      34.017 -21.794 -19.028  0.00  0.00    +0.054 C 
ATOM      4  C   UNL     1      35.321 -21.578 -19.473  0.00  0.00    +0.006 C 
ATOM      5  C   UNL     1      32.957 -21.100 -19.611  0.00  0.00    +0.006 C 
ATOM      6  C   UNL     1      34.504 -19.974 -21.085  0.00  0.00    +0.045 C 
ATOM      7  C   UNL     1      35.565 -20.668 -20.502  0.00  0.00    +0.014 C 
ATOM      8  C   UNL     1      33.200 -20.190 -20.640  0.00  0.00    +0.014 C 
BRANCH   3  16
ATOM      9  O   UNL     1      32.602 -23.152 -17.839  0.00  0.00    -0.270 OA
ATOM     10  N   UNL     1      34.833 -23.133 -17.136  0.00  0.00    -0.276 N 
ATOM     11  C   UNL     1      36.438 -22.873 -14.729  0.00  0.00    +0.102 C 
ATOM     12  C   UNL     1      35.015 -23.441 -14.701  0.00  0.00    +0.033 C 
ATOM     13  C   UNL     1      36.686 -22.002 -15.964  0.00  0.00    +0.033 C 
ATOM     14  C   UNL     1      34.610 -24.067 -16.034  0.00  0.00    +0.094 C 
ATOM     15  C   UNL     1      36.214 -22.655 -17.265  0.00  0.00    +0.094 C 
ATOM     16  C   UNL     1      33.760 -22.752 -17.946  0.00  0.00    +0.249 C 
BRANCH  11  18
ATOM     17  O   UNL     1      38.575 -23.922 -15.100  0.00  0.00    -0.250 OA
ATOM     18  C   UNL     1      37.444 -23.985 -14.639  0.00  0.00    +0.317 C 
BRANCH  18  19
ATOM     19  O   UNL     1      36.896 -25.042 -13.975  0.00  0.00    -0.444 OA
ATOM     20  C   UNL     1      37.340 -26.333 -14.405  0.00  0.00    +0.256 C 
ENDBRANCH  18  19
ENDBRANCH  11  18
ENDBRANCH   3  16
ENDBRANCH   1   6
BRANCH   1  21
ATOM     21  C   UNL     1      35.697 -17.989 -22.013  0.00  0.00    +0.145 C 
BRANCH  21  28
ATOM     22  N   UNL     1      34.139 -16.269 -21.264  0.00  0.00    -0.392 NA
ATOM     23  N   UNL     1      34.693 -14.682 -23.463  0.00  0.00    -0.200 NA
ATOM     24  N   UNL     1      33.200 -13.083 -22.704  0.00  0.00    -0.271 NA
ATOM     25  N   UNL     1      31.985 -13.402 -20.661  0.00  0.00    -0.310 NA
ATOM     26  N   UNL     1      32.311 -15.375 -19.404  0.00  0.00    -0.329 N 
ATOM     27  N   UNL     1      31.688 -11.461 -21.936  0.00  0.00    -0.283 N 
ATOM     28  C   UNL     1      35.020 -16.659 -22.198  0.00  0.00    +0.133 C 
ATOM     29  C   UNL     1      35.293 -15.874 -23.285  0.00  0.00    +0.193 C 
ATOM     30  C   UNL     1      33.539 -15.076 -21.444  0.00  0.00    +0.248 C 
ATOM     31  C   UNL     1      33.809 -14.265 -22.548  0.00  0.00    +0.131 C 
ATOM     32  C   UNL     1      32.618 -14.583 -20.540  0.00  0.00    +0.231 C 
ATOM     33  C   UNL     1      32.320 -12.710 -21.756  0.00  0.00    +0.207 C 
ATOM     34  H   UNL     1      31.658 -15.054 -18.741  0.00  0.00    +0.145 HD
ATOM     35  H   UNL     1      32.750 -16.247 -19.278  0.00  0.00    +0.145 HD
ATOM     36  H   UNL     1      31.899 -10.912 -22.726  0.00  0.00    +0.156 HD
ATOM     37  H   UNL     1      31.035 -11.139 -21.274  0.00  0.00    +0.156 HD
ENDBRANCH  21  28
ENDBRANCH   1  21
TORSDOF 6
ENDMDL
MODEL 4
REMARK VINA RESULT:     -11.6      1.586      2.529
REMARK  Name = 25243853
REMARK  6 active torsions:
REMARK  status: ('A' for Active; 'I' for Inactive)
REMARK    1  A    between atoms: N_1  and  C_6
REMARK    2  A    between atoms: N_1  and  C_21
REMARK    3  A    between atoms: C_3  and  C_16
REMARK    4  A    between atoms: C_11  and  C_18
REMARK    5  A    between atoms: C_18  and  O_19
REMARK    6  A    between atoms: C_21  and  C_28
REMARK                            x       y       z     vdW  Elec       q    Type
REMARK                         _______ _______ _______ _____ _____    ______ ____
ROOT
ATOM      1  N   UNL     1      34.942 -19.015 -22.381  0.00  0.00    -0.327 N 
ATOM      2  H   UNL     1      34.557 -19.211 -23.265  0.00  0.00    +0.147 HD
ENDROOT
BRANCH   1   6
ATOM      3  C   UNL     1      34.147 -21.660 -19.216  0.00  0.00    +0.054 C 
ATOM      4  C   UNL     1      33.096 -21.004 -19.857  0.00  0.00    +0.006 C 
ATOM      5  C   UNL     1      35.461 -21.438 -19.627  0.00  0.00    +0.006 C 
ATOM      6  C   UNL     1      34.674 -19.904 -21.318  0.00  0.00    +0.045 C 
ATOM      7  C   UNL     1      33.360 -20.126 -20.908  0.00  0.00    +0.014 C 
ATOM      8  C   UNL     1      35.725 -20.560 -20.677  0.00  0.00    +0.014 C 
BRANCH   3  16
ATOM      9  O   UNL     1      32.703 -22.956 -17.993  0.00  0.00    -0.270 OA
ATOM     10  N   UNL     1      34.934 -22.967 -17.290  0.00  0.00    -0.276 N 
ATOM     11  C   UNL     1      36.544 -22.680 -14.890  0.00  0.00    +0.102 C 
ATOM     12  C   UNL     1      35.110 -23.217 -14.848  0.00  0.00    +0.033 C 
ATOM     13  C   UNL     1      36.811 -21.846 -16.146  0.00  0.00    +0.033 C 
ATOM     14  C   UNL     1      34.691 -23.867 -16.165  0.00  0.00    +0.094 C 
ATOM     15  C   UNL     1      36.325 -22.522 -17.430  0.00  0.00    +0.094 C 
ATOM     16  C   UNL     1      33.870 -22.584 -18.110  0.00  0.00    +0.249 C 
BRANCH  11  18
ATOM     17  O   UNL     1      38.623 -23.823 -15.312  0.00  0.00    -0.250 OA
ATOM     18  C   UNL     1      37.526 -23.810 -14.771  0.00  0.00    +0.317 C 
BRANCH  18  19
ATOM     19  O   UNL     1      37.001 -24.788 -13.980  0.00  0.00    -0.444 OA
ATOM     20  C   UNL     1      37.216 -26.128 -14.436  0.00  0.00    +0.256 C 
ENDBRANCH  18  19
ENDBRANCH  11  18
ENDBRANCH   3  16
ENDBRANCH   1   6
BRANCH   1  21
ATOM     21  C   UNL     1      35.748 -17.844 -22.229  0.00  0.00    +0.145 C 
BRANCH  21  28
ATOM     22  N   UNL     1      34.487 -15.822 -22.750  0.00  0.00    -0.392 NA
ATOM     23  N   UNL     1      33.821 -15.444 -20.090  0.00  0.00    -0.200 NA
ATOM     24  N   UNL     1      32.638 -13.533 -20.643  0.00  0.00    -0.271 NA
ATOM     25  N   UNL     1      32.497 -12.783 -22.917  0.00  0.00    -0.310 NA
ATOM     26  N   UNL     1      33.581 -14.011 -24.620  0.00  0.00    -0.329 N 
ATOM     27  N   UNL     1      31.438 -11.593 -21.200  0.00  0.00    -0.283 N 
ATOM     28  C   UNL     1      34.904 -16.675 -21.802  0.00  0.00    +0.133 C 
ATOM     29  C   UNL     1      34.574 -16.488 -20.487  0.00  0.00    +0.193 C 
ATOM     30  C   UNL     1      33.733 -14.779 -22.351  0.00  0.00    +0.248 C 
ATOM     31  C   UNL     1      33.389 -14.577 -21.013  0.00  0.00    +0.131 C 
ATOM     32  C   UNL     1      33.253 -13.845 -23.249  0.00  0.00    +0.231 C 
ATOM     33  C   UNL     1      32.229 -12.689 -21.609  0.00  0.00    +0.207 C 
ATOM     34  H   UNL     1      33.255 -13.363 -25.285  0.00  0.00    +0.145 HD
ATOM     35  H   UNL     1      34.134 -14.773 -24.905  0.00  0.00    +0.145 HD
ATOM     36  H   UNL     1      31.213 -11.477 -20.249  0.00  0.00    +0.156 HD
ATOM     37  H   UNL     1      31.112 -10.945 -21.865  0.00  0.00    +0.156 HD
ENDBRANCH  21  28
ENDBRANCH   1  21
TORSDOF 6
ENDMDL
MODEL 5
REMARK VINA RESULT:     -11.6      1.576      2.274
REMARK  Name = 25243853
REMARK  6 active torsions:
REMARK  status: ('A' for Active; 'I' for Inactive)
REMARK    1  A    between atoms: N_1  and  C_6
REMARK    2  A    between atoms: N_1  and  C_21
REMARK    3  A    between atoms: C_3  and  C_16
REMARK    4  A    between atoms: C_11  and  C_18
REMARK    5  A    between atoms: C_18  and  O_19
REMARK    6  A    between atoms: C_21  and  C_28
REMARK                            x       y       z     vdW  Elec       q    Type
REMARK                         _______ _______ _______ _____ _____    ______ ____
ROOT
ATOM      1  N   UNL     1      35.463 -21.074 -20.334  0.00  0.00    -0.327 N 
ATOM      2  H   UNL     1      35.130 -21.418 -21.194  0.00  0.00    +0.147 HD
ENDROOT
BRANCH   1   6
ATOM      3  C   UNL     1      34.482 -23.162 -16.824  0.00  0.00    +0.054 C 
ATOM      4  C   UNL     1      33.507 -22.933 -17.794  0.00  0.00    +0.006 C 
ATOM      5  C   UNL     1      35.783 -22.698 -17.019  0.00  0.00    +0.006 C 
ATOM      6  C   UNL     1      35.133 -21.776 -19.155  0.00  0.00    +0.045 C 
ATOM      7  C   UNL     1      33.833 -22.240 -18.960  0.00  0.00    +0.014 C 
ATOM      8  C   UNL     1      36.109 -22.005 -18.184  0.00  0.00    +0.014 C 
BRANCH   3  16
ATOM      9  O   UNL     1      32.943 -24.103 -15.408  0.00  0.00    -0.270 OA
ATOM     10  N   UNL     1      35.181 -24.287 -14.753  0.00  0.00    -0.276 N 
ATOM     11  C   UNL     1      36.899 -23.878 -12.447  0.00  0.00    +0.102 C 
ATOM     12  C   UNL     1      35.414 -24.230 -12.304  0.00  0.00    +0.033 C 
ATOM     13  C   UNL     1      37.214 -23.256 -13.811  0.00  0.00    +0.033 C 
ATOM     14  C   UNL     1      34.877 -24.994 -13.512  0.00  0.00    +0.094 C 
ATOM     15  C   UNL     1      36.609 -24.033 -14.981  0.00  0.00    +0.094 C 
ATOM     16  C   UNL     1      34.140 -23.892 -15.597  0.00  0.00    +0.249 C 
BRANCH  11  18
ATOM     17  O   UNL     1      37.354 -26.092 -11.612  0.00  0.00    -0.250 OA
ATOM     18  C   UNL     1      37.747 -25.091 -12.195  0.00  0.00    +0.317 C 
BRANCH  18  19
ATOM     19  O   UNL     1      38.993 -24.890 -12.711  0.00  0.00    -0.444 OA
ATOM     20  C   UNL     1      39.533 -25.987 -13.455  0.00  0.00    +0.256 C 
ENDBRANCH  18  19
ENDBRANCH  11  18
ENDBRANCH   3  16
ENDBRANCH   1   6
BRANCH   1  21
ATOM     21  C   UNL     1      36.259 -19.886 -20.333  0.00  0.00    +0.145 C 
BRANCH  21  28
ATOM     22  N   UNL     1      35.329 -17.713 -20.934  0.00  0.00    -0.392 NA
ATOM     23  N   UNL     1      35.279 -18.378 -23.620  0.00  0.00    -0.200 NA
ATOM     24  N   UNL     1      34.397 -16.299 -24.132  0.00  0.00    -0.271 NA
ATOM     25  N   UNL     1      33.959 -14.687 -22.412  0.00  0.00    -0.310 NA
ATOM     26  N   UNL     1      34.431 -15.225 -20.160  0.00  0.00    -0.329 N 
ATOM     27  N   UNL     1      33.502 -14.193 -24.654  0.00  0.00    -0.283 N 
ATOM     28  C   UNL     1      35.755 -18.912 -21.361  0.00  0.00    +0.133 C 
ATOM     29  C   UNL     1      35.730 -19.240 -22.690  0.00  0.00    +0.193 C 
ATOM     30  C   UNL     1      34.879 -16.852 -21.866  0.00  0.00    +0.248 C 
ATOM     31  C   UNL     1      34.849 -17.173 -23.225  0.00  0.00    +0.131 C 
ATOM     32  C   UNL     1      34.421 -15.593 -21.531  0.00  0.00    +0.231 C 
ATOM     33  C   UNL     1      33.975 -15.101 -23.684  0.00  0.00    +0.207 C 
ATOM     34  H   UNL     1      34.111 -14.335 -19.887  0.00  0.00    +0.145 HD
ATOM     35  H   UNL     1      34.759 -15.859 -19.483  0.00  0.00    +0.145 HD
ATOM     36  H   UNL     1      33.492 -14.449 -25.605  0.00  0.00    +0.156 HD
ATOM     37  H   UNL     1      33.181 -13.303 -24.382  0.00  0.00    +0.156 HD
ENDBRANCH  21  28
ENDBRANCH   1  21
TORSDOF 6
ENDMDL
MODEL 6
REMARK VINA RESULT:     -11.6      4.050     11.372
REMARK  Name = 25243853
REMARK  6 active torsions:
REMARK  status: ('A' for Active; 'I' for Inactive)
REMARK    1  A    between atoms: N_1  and  C_6
REMARK    2  A    between atoms: N_1  and  C_21
REMARK    3  A    between atoms: C_3  and  C_16
REMARK    4  A    between atoms: C_11  and  C_18
REMARK    5  A    between atoms: C_18  and  O_19
REMARK    6  A    between atoms: C_21  and  C_28
REMARK                            x       y       z     vdW  Elec       q    Type
REMARK                         _______ _______ _______ _____ _____    ______ ____
ROOT
ATOM      1  N   UNL     1      36.257 -21.923 -18.943  0.00  0.00    -0.327 N 
ATOM      2  H   UNL     1      37.153 -22.330 -18.941  0.00  0.00    +0.147 HD
ENDROOT
BRANCH   1   6
ATOM      3  C   UNL     1      35.441 -18.880 -21.722  0.00  0.00    +0.054 C 
ATOM      4  C   UNL     1      36.715 -18.992 -21.164  0.00  0.00    +0.006 C 
ATOM      5  C   UNL     1      34.439 -19.780 -21.358  0.00  0.00    +0.006 C 
ATOM      6  C   UNL     1      35.983 -20.901 -19.877  0.00  0.00    +0.045 C 
ATOM      7  C   UNL     1      36.985 -20.003 -20.241  0.00  0.00    +0.014 C 
ATOM      8  C   UNL     1      34.709 -20.790 -20.435  0.00  0.00    +0.014 C 
BRANCH   3  16
ATOM      9  O   UNL     1      35.617 -17.975 -23.822  0.00  0.00    -0.270 OA
ATOM     10  N   UNL     1      34.391 -16.727 -22.269  0.00  0.00    -0.276 N 
ATOM     11  C   UNL     1      34.147 -14.023 -21.237  0.00  0.00    +0.102 C 
ATOM     12  C   UNL     1      34.632 -14.309 -22.662  0.00  0.00    +0.033 C 
ATOM     13  C   UNL     1      34.338 -15.227 -20.311  0.00  0.00    +0.033 C 
ATOM     14  C   UNL     1      34.107 -15.638 -23.201  0.00  0.00    +0.094 C 
ATOM     15  C   UNL     1      33.842 -16.539 -20.921  0.00  0.00    +0.094 C 
ATOM     16  C   UNL     1      35.155 -17.817 -22.693  0.00  0.00    +0.249 C 
BRANCH  11  18
ATOM     17  O   UNL     1      32.080 -13.350 -22.277  0.00  0.00    -0.250 OA
ATOM     18  C   UNL     1      32.714 -13.575 -21.255  0.00  0.00    +0.317 C 
BRANCH  18  19
ATOM     19  O   UNL     1      32.255 -13.464 -19.976  0.00  0.00    -0.444 OA
ATOM     20  C   UNL     1      31.555 -12.252 -19.678  0.00  0.00    +0.256 C 
ENDBRANCH  18  19
ENDBRANCH  11  18
ENDBRANCH   3  16
ENDBRANCH   1   6
BRANCH   1  21
ATOM     21  C   UNL     1      35.289 -22.394 -18.002  0.00  0.00    +0.145 C 
BRANCH  21  28
ATOM     22  N   UNL     1      35.252 -23.460 -15.809  0.00  0.00    -0.392 NA
ATOM     23  N   UNL     1      37.811 -22.574 -15.236  0.00  0.00    -0.200 NA
ATOM     24  N   UNL     1      37.720 -23.606 -13.166  0.00  0.00    -0.271 NA
ATOM     25  N   UNL     1      35.770 -24.820 -12.476  0.00  0.00    -0.310 NA
ATOM     26  N   UNL     1      33.912 -24.965 -13.928  0.00  0.00    -0.329 N 
ATOM     27  N   UNL     1      37.631 -24.651 -11.066  0.00  0.00    -0.283 N 
ATOM     28  C   UNL     1      35.946 -22.724 -16.691  0.00  0.00    +0.133 C 
ATOM     29  C   UNL     1      37.211 -22.287 -16.407  0.00  0.00    +0.193 C 
ATOM     30  C   UNL     1      35.854 -23.747 -14.638  0.00  0.00    +0.248 C 
ATOM     31  C   UNL     1      37.145 -23.307 -14.336  0.00  0.00    +0.131 C 
ATOM     32  C   UNL     1      35.226 -24.499 -13.664  0.00  0.00    +0.231 C 
ATOM     33  C   UNL     1      37.008 -24.346 -12.295  0.00  0.00    +0.207 C 
ATOM     34  H   UNL     1      33.436 -25.503 -13.255  0.00  0.00    +0.145 HD
ATOM     35  H   UNL     1      33.476 -24.750 -14.784  0.00  0.00    +0.145 HD
ATOM     36  H   UNL     1      38.542 -24.326 -10.881  0.00  0.00    +0.156 HD
ATOM     37  H   UNL     1      37.155 -25.189 -10.392  0.00  0.00    +0.156 HD
ENDBRANCH  21  28
ENDBRANCH   1  21
TORSDOF 6
ENDMDL
MODEL 7
REMARK VINA RESULT:     -11.1      3.862     11.490
REMARK  Name = 25243853
REMARK  6 active torsions:
REMARK  status: ('A' for Active; 'I' for Inactive)
REMARK    1  A    between atoms: N_1  and  C_6
REMARK    2  A    between atoms: N_1  and  C_21
REMARK    3  A    between atoms: C_3  and  C_16
REMARK    4  A    between atoms: C_11  and  C_18
REMARK    5  A    between atoms: C_18  and  O_19
REMARK    6  A    between atoms: C_21  and  C_28
REMARK                            x       y       z     vdW  Elec       q    Type
REMARK                         _______ _______ _______ _____ _____    ______ ____
ROOT
ATOM      1  N   UNL     1      34.776 -22.986 -17.761  0.00  0.00    -0.327 N 
ATOM      2  H   UNL     1      34.504 -23.910 -17.966  0.00  0.00    +0.147 HD
ENDROOT
BRANCH   1   6
ATOM      3  C   UNL     1      35.139 -20.251 -20.929  0.00  0.00    +0.054 C 
ATOM      4  C   UNL     1      36.281 -20.733 -20.289  0.00  0.00    +0.006 C 
ATOM      5  C   UNL     1      33.877 -20.679 -20.517  0.00  0.00    +0.006 C 
ATOM      6  C   UNL     1      34.898 -22.068 -18.825  0.00  0.00    +0.045 C 
ATOM      7  C   UNL     1      36.161 -21.642 -19.237  0.00  0.00    +0.014 C 
ATOM      8  C   UNL     1      33.756 -21.586 -19.465  0.00  0.00    +0.014 C 
BRANCH   3  16
ATOM      9  O   UNL     1      35.966 -19.651 -22.982  0.00  0.00    -0.270 OA
ATOM     10  N   UNL     1      34.590 -18.077 -21.933  0.00  0.00    -0.276 N 
ATOM     11  C   UNL     1      34.499 -15.253 -21.260  0.00  0.00    +0.102 C 
ATOM     12  C   UNL     1      35.276 -15.776 -22.473  0.00  0.00    +0.033 C 
ATOM     13  C   UNL     1      34.272 -16.342 -20.208  0.00  0.00    +0.033 C 
ATOM     14  C   UNL     1      34.712 -17.091 -23.005  0.00  0.00    +0.094 C 
ATOM     15  C   UNL     1      33.756 -17.654 -20.802  0.00  0.00    +0.094 C 
ATOM     16  C   UNL     1      35.266 -19.295 -22.035  0.00  0.00    +0.249 C 
BRANCH  11  18
ATOM     17  O   UNL     1      32.168 -14.682 -21.040  0.00  0.00    -0.250 OA
ATOM     18  C   UNL     1      33.198 -14.644 -21.699  0.00  0.00    +0.317 C 
BRANCH  18  19
ATOM     19  O   UNL     1      33.358 -14.060 -22.921  0.00  0.00    -0.444 OA
ATOM     20  C   UNL     1      33.244 -12.634 -22.939  0.00  0.00    +0.256 C 
ENDBRANCH  18  19
ENDBRANCH  11  18
ENDBRANCH   3  16
ENDBRANCH   1   6
BRANCH   1  21
ATOM     21  C   UNL     1      35.028 -22.633 -16.399  0.00  0.00    +0.145 C 
BRANCH  21  28
ATOM     22  N   UNL     1      36.185 -24.551 -15.435  0.00  0.00    -0.392 NA
ATOM     23  N   UNL     1      38.616 -23.227 -15.494  0.00  0.00    -0.200 NA
ATOM     24  N   UNL     1      39.662 -25.078 -14.577  0.00  0.00    -0.271 NA
ATOM     25  N   UNL     1      38.420 -27.058 -14.039  0.00  0.00    -0.310 NA
ATOM     26  N   UNL     1      36.094 -27.123 -14.447  0.00  0.00    -0.329 N 
ATOM     27  N   UNL     1      40.726 -26.952 -13.647  0.00  0.00    -0.283 N 
ATOM     28  C   UNL     1      36.283 -23.298 -15.905  0.00  0.00    +0.133 C 
ATOM     29  C   UNL     1      37.485 -22.644 -15.935  0.00  0.00    +0.193 C 
ATOM     30  C   UNL     1      37.318 -25.133 -14.995  0.00  0.00    +0.248 C 
ATOM     31  C   UNL     1      38.551 -24.478 -15.020  0.00  0.00    +0.131 C 
ATOM     32  C   UNL     1      37.326 -26.420 -14.493  0.00  0.00    +0.231 C 
ATOM     33  C   UNL     1      39.544 -26.335 -14.110  0.00  0.00    +0.207 C 
ATOM     34  H   UNL     1      36.064 -28.041 -14.094  0.00  0.00    +0.145 HD
ATOM     35  H   UNL     1      35.269 -26.692 -14.767  0.00  0.00    +0.145 HD
ATOM     36  H   UNL     1      41.580 -26.464 -13.677  0.00  0.00    +0.156 HD
ATOM     37  H   UNL     1      40.697 -27.871 -13.295  0.00  0.00    +0.156 HD
ENDBRANCH  21  28
ENDBRANCH   1  21
TORSDOF 6
ENDMDL
MODEL 8
REMARK VINA RESULT:     -11.1      3.900     11.372
REMARK  Name = 25243853
REMARK  6 active torsions:
REMARK  status: ('A' for Active; 'I' for Inactive)
REMARK    1  A    between atoms: N_1  and  C_6
REMARK    2  A    between atoms: N_1  and  C_21
REMARK    3  A    between atoms: C_3  and  C_16
REMARK    4  A    between atoms: C_11  and  C_18
REMARK    5  A    between atoms: C_18  and  O_19
REMARK    6  A    between atoms: C_21  and  C_28
REMARK                            x       y       z     vdW  Elec       q    Type
REMARK                         _______ _______ _______ _____ _____    ______ ____
ROOT
ATOM      1  N   UNL     1      34.922 -22.681 -18.002  0.00  0.00    -0.327 N 
ATOM      2  H   UNL     1      35.760 -22.996 -17.593  0.00  0.00    +0.147 HD
ENDROOT
BRANCH   1   6
ATOM      3  C   UNL     1      35.149 -19.947 -21.183  0.00  0.00    +0.054 C 
ATOM      4  C   UNL     1      36.313 -20.358 -20.533  0.00  0.00    +0.006 C 
ATOM      5  C   UNL     1      33.911 -20.444 -20.777  0.00  0.00    +0.006 C 
ATOM      6  C   UNL     1      34.999 -21.763 -19.071  0.00  0.00    +0.045 C 
ATOM      7  C   UNL     1      36.237 -21.267 -19.477  0.00  0.00    +0.014 C 
ATOM      8  C   UNL     1      33.835 -21.351 -19.721  0.00  0.00    +0.014 C 
BRANCH   3  16
ATOM      9  O   UNL     1      35.884 -19.349 -23.272  0.00  0.00    -0.270 OA
ATOM     10  N   UNL     1      34.560 -17.771 -22.163  0.00  0.00    -0.276 N 
ATOM     11  C   UNL     1      34.505 -14.947 -21.487  0.00  0.00    +0.102 C 
ATOM     12  C   UNL     1      35.226 -15.472 -22.733  0.00  0.00    +0.033 C 
ATOM     13  C   UNL     1      34.323 -16.036 -20.425  0.00  0.00    +0.033 C 
ATOM     14  C   UNL     1      34.635 -16.786 -23.238  0.00  0.00    +0.094 C 
ATOM     15  C   UNL     1      33.778 -17.346 -20.996  0.00  0.00    +0.094 C 
ATOM     16  C   UNL     1      35.228 -18.991 -22.295  0.00  0.00    +0.249 C 
BRANCH  11  18
ATOM     17  O   UNL     1      32.917 -13.937 -22.992  0.00  0.00    -0.250 OA
ATOM     18  C   UNL     1      33.188 -14.335 -21.867  0.00  0.00    +0.317 C 
BRANCH  18  19
ATOM     19  O   UNL     1      32.370 -14.301 -20.777  0.00  0.00    -0.444 OA
ATOM     20  C   UNL     1      31.887 -13.004 -20.412  0.00  0.00    +0.256 C 
ENDBRANCH  18  19
ENDBRANCH  11  18
ENDBRANCH   3  16
ENDBRANCH   1   6
BRANCH   1  21
ATOM     21  C   UNL     1      33.682 -23.173 -17.489  0.00  0.00    +0.145 C 
BRANCH  21  28
ATOM     22  N   UNL     1      35.056 -23.542 -15.509  0.00  0.00    -0.392 NA
ATOM     23  N   UNL     1      32.849 -24.267 -14.003  0.00  0.00    -0.200 NA
ATOM     24  N   UNL     1      34.203 -24.602 -12.154  0.00  0.00    -0.271 NA
ATOM     25  N   UNL     1      36.571 -24.244 -12.278  0.00  0.00    -0.310 NA
ATOM     26  N   UNL     1      37.541 -23.542 -14.315  0.00  0.00    -0.329 N 
ATOM     27  N   UNL     1      35.572 -24.943 -10.279  0.00  0.00    -0.283 N 
ATOM     28  C   UNL     1      33.825 -23.559 -16.043  0.00  0.00    +0.133 C 
ATOM     29  C   UNL     1      32.735 -23.917 -15.298  0.00  0.00    +0.193 C 
ATOM     30  C   UNL     1      35.169 -23.892 -14.212  0.00  0.00    +0.248 C 
ATOM     31  C   UNL     1      34.064 -24.259 -13.440  0.00  0.00    +0.131 C 
ATOM     32  C   UNL     1      36.390 -23.906 -13.568  0.00  0.00    +0.231 C 
ATOM     33  C   UNL     1      35.445 -24.578 -11.636  0.00  0.00    +0.207 C 
ATOM     34  H   UNL     1      38.427 -23.542 -13.886  0.00  0.00    +0.145 HD
ATOM     35  H   UNL     1      37.453 -23.290 -15.262  0.00  0.00    +0.145 HD
ATOM     36  H   UNL     1      34.775 -25.198  -9.761  0.00  0.00    +0.156 HD
ATOM     37  H   UNL     1      36.458 -24.943  -9.849  0.00  0.00    +0.156 HD
ENDBRANCH  21  28
ENDBRANCH   1  21
TORSDOF 6
ENDMDL
MODEL 9
REMARK VINA RESULT:     -11.0      9.220     15.440
REMARK  Name = 25243853
REMARK  6 active torsions:
REMARK  status: ('A' for Active; 'I' for Inactive)
REMARK    1  A    between atoms: N_1  and  C_6
REMARK    2  A    between atoms: N_1  and  C_21
REMARK    3  A    between atoms: C_3  and  C_16
REMARK    4  A    between atoms: C_11  and  C_18
REMARK    5  A    between atoms: C_18  and  O_19
REMARK    6  A    between atoms: C_21  and  C_28
REMARK                            x       y       z     vdW  Elec       q    Type
REMARK                         _______ _______ _______ _____ _____    ______ ____
ROOT
ATOM      1  N   UNL     1      31.907 -10.396 -20.861  0.00  0.00    -0.327 N 
ATOM      2  H   UNL     1      32.561 -10.533 -20.138  0.00  0.00    +0.147 HD
ENDROOT
BRANCH   1   6
ATOM      3  C   UNL     1      31.397  -6.517 -22.390  0.00  0.00    +0.054 C 
ATOM      4  C   UNL     1      31.010  -7.622 -23.148  0.00  0.00    +0.006 C 
ATOM      5  C   UNL     1      31.953  -6.700 -21.124  0.00  0.00    +0.006 C 
ATOM      6  C   UNL     1      31.735  -9.093 -21.374  0.00  0.00    +0.045 C 
ATOM      7  C   UNL     1      31.179  -8.910 -22.640  0.00  0.00    +0.014 C 
ATOM      8  C   UNL     1      32.123  -7.988 -20.616  0.00  0.00    +0.014 C 
BRANCH   3  16
ATOM      9  O   UNL     1      30.236  -4.543 -22.519  0.00  0.00    -0.270 OA
ATOM     10  N   UNL     1      32.167  -4.682 -23.833  0.00  0.00    -0.276 N 
ATOM     11  C   UNL     1      33.092  -4.195 -26.542  0.00  0.00    +0.102 C 
ATOM     12  C   UNL     1      31.928  -3.411 -25.926  0.00  0.00    +0.033 C 
ATOM     13  C   UNL     1      33.318  -5.537 -25.840  0.00  0.00    +0.033 C 
ATOM     14  C   UNL     1      32.010  -3.346 -24.403  0.00  0.00    +0.094 C 
ATOM     15  C   UNL     1      33.339  -5.421 -24.315  0.00  0.00    +0.094 C 
ATOM     16  C   UNL     1      31.219  -5.161 -22.924  0.00  0.00    +0.249 C 
BRANCH  11  18
ATOM     17  O   UNL     1      34.352  -2.144 -26.409  0.00  0.00    -0.250 OA
ATOM     18  C   UNL     1      34.341  -3.361 -26.535  0.00  0.00    +0.317 C 
BRANCH  18  19
ATOM     19  O   UNL     1      35.428  -4.170 -26.688  0.00  0.00    -0.444 OA
ATOM     20  C   UNL     1      36.013  -4.171 -27.995  0.00  0.00    +0.256 C 
ENDBRANCH  18  19
ENDBRANCH  11  18
ENDBRANCH   3  16
ENDBRANCH   1   6
BRANCH   1  21
ATOM     21  C   UNL     1      31.175 -11.524 -21.345  0.00  0.00    +0.145 C 
BRANCH  21  28
ATOM     22  N   UNL     1      32.495 -13.114 -22.640  0.00  0.00    -0.392 NA
ATOM     23  N   UNL     1      33.215 -14.510 -20.361  0.00  0.00    -0.200 NA
ATOM     24  N   UNL     1      34.453 -15.989 -21.641  0.00  0.00    -0.271 NA
ATOM     25  N   UNL     1      34.584 -15.750 -24.024  0.00  0.00    -0.310 NA
ATOM     26  N   UNL     1      33.433 -13.980 -25.084  0.00  0.00    -0.329 N 
ATOM     27  N   UNL     1      35.708 -17.492 -22.936  0.00  0.00    -0.283 N 
ATOM     28  C   UNL     1      32.064 -12.734 -21.428  0.00  0.00    +0.133 C 
ATOM     29  C   UNL     1      32.421 -13.424 -20.301  0.00  0.00    +0.193 C 
ATOM     30  C   UNL     1      33.290 -14.200 -22.698  0.00  0.00    +0.248 C 
ATOM     31  C   UNL     1      33.662 -14.914 -21.556  0.00  0.00    +0.131 C 
ATOM     32  C   UNL     1      33.787 -14.673 -23.897  0.00  0.00    +0.231 C 
ATOM     33  C   UNL     1      34.875 -16.355 -22.866  0.00  0.00    +0.207 C 
ATOM     34  H   UNL     1      33.769 -14.291 -25.955  0.00  0.00    +0.145 HD
ATOM     35  H   UNL     1      32.850 -13.188 -25.036  0.00  0.00    +0.145 HD
ATOM     36  H   UNL     1      35.952 -17.974 -22.113  0.00  0.00    +0.156 HD
ATOM     37  H   UNL     1      36.046 -17.803 -23.807  0.00  0.00    +0.156 HD
ENDBRANCH  21  28
ENDBRANCH   1  21
TORSDOF 6
ENDMDL
