MODEL 1
REMARK VINA RESULT:     -12.2      0.000      0.000
REMARK  Name = 22479942
REMARK  4 active torsions:
REMARK  status: ('A' for Active; 'I' for Inactive)
REMARK    1  A    between atoms: C_4  and  C_17
REMARK    2  A    between atoms: C_7  and  C_14
REMARK    3  A    between atoms: C_20  and  N_24
REMARK    4  A    between atoms: C_25  and  C_28
REMARK                            x       y       z     vdW  Elec       q    Type
REMARK                         _______ _______ _______ _____ _____    ______ ____
ROOT
ATOM      1  N   UNL     1      31.169 -23.360 -16.685  0.00  0.00    -0.276 N 
ATOM      2  N   UNL     1      31.951 -22.820 -17.635  0.00  0.00    -0.173 NA
ATOM      3  C   UNL     1      33.186 -23.508 -15.836  0.00  0.00    +0.036 A 
ATOM      4  C   UNL     1      33.177 -22.912 -17.115  0.00  0.00    +0.102 A 
ATOM      5  C   UNL     1      31.850 -23.792 -15.578  0.00  0.00    +0.075 A 
ATOM      6  C   UNL     1      34.158 -23.836 -14.875  0.00  0.00    +0.006 C 
ATOM      7  C   UNL     1      33.741 -24.443 -13.683  0.00  0.00    +0.033 C 
ATOM      8  C   UNL     1      31.413 -24.396 -14.397  0.00  0.00    +0.019 C 
ATOM      9  C   UNL     1      32.392 -24.717 -13.450  0.00  0.00    +0.004 C 
ATOM     10  H   UNL     1      30.193 -23.438 -16.776  0.00  0.00    +0.189 HD
ENDROOT
BRANCH   7  14
ATOM     11  N   UNL     1      35.685 -25.728 -12.879  0.00  0.00    -0.218 N 
ATOM     12  N   UNL     1      34.841 -24.279 -11.477  0.00  0.00    -0.206 NA
ATOM     13  N   UNL     1      36.466 -25.858 -11.796  0.00  0.00    -0.157 NA
ATOM     14  C   UNL     1      34.722 -24.787 -12.682  0.00  0.00    +0.149 C 
ATOM     15  C   UNL     1      35.914 -24.960 -10.977  0.00  0.00    +0.218 C 
ATOM     16  H   UNL     1      35.795 -26.246 -13.710  0.00  0.00    +0.176 HD
ENDBRANCH   7  14
BRANCH   4  17
ATOM     17  C   UNL     1      34.315 -22.430 -17.857  0.00  0.00    +0.021 C 
ATOM     18  C   UNL     1      34.123 -21.710 -19.037  0.00  0.00    +0.016 C 
ATOM     19  C   UNL     1      35.605 -22.681 -17.395  0.00  0.00    +0.002 C 
ATOM     20  C   UNL     1      35.224 -21.242 -19.754  0.00  0.00    +0.051 C 
ATOM     21  C   UNL     1      36.707 -22.213 -18.113  0.00  0.00    +0.001 C 
ATOM     22  C   UNL     1      36.516 -21.494 -19.292  0.00  0.00    +0.015 C 
BRANCH  20  24
ATOM     23  O   UNL     1      36.243 -18.571 -20.534  0.00  0.00    -0.266 OA
ATOM     24  N   UNL     1      35.034 -20.521 -20.934  0.00  0.00    -0.278 N 
ATOM     25  C   UNL     1      35.535 -19.249 -21.274  0.00  0.00    +0.284 C 
ATOM     26  H   UNL     1      34.478 -20.960 -21.618  0.00  0.00    +0.155 HD
BRANCH  25  28
ATOM     27  O   UNL     1      35.257 -17.415 -22.839  0.00  0.00    -0.446 OA
ATOM     28  C   UNL     1      35.115 -18.744 -22.592  0.00  0.00    +0.199 C 
ATOM     29  C   UNL     1      34.578 -19.382 -23.686  0.00  0.00    +0.045 C 
ATOM     30  C   UNL     1      34.377 -18.382 -24.667  0.00  0.00    +0.044 C 
ATOM     31  C   UNL     1      34.807 -17.203 -24.103  0.00  0.00    +0.180 C 
ENDBRANCH  25  28
ENDBRANCH  20  24
ENDBRANCH   4  17
TORSDOF 4
ENDMDL
MODEL 2
REMARK VINA RESULT:     -11.8      2.181      3.322
REMARK  Name = 22479942
REMARK  4 active torsions:
REMARK  status: ('A' for Active; 'I' for Inactive)
REMARK    1  A    between atoms: C_4  and  C_17
REMARK    2  A    between atoms: C_7  and  C_14
REMARK    3  A    between atoms: C_20  and  N_24
REMARK    4  A    between atoms: C_25  and  C_28
REMARK                            x       y       z     vdW  Elec       q    Type
REMARK                         _______ _______ _______ _____ _____    ______ ____
ROOT
ATOM      1  N   UNL     1      32.376 -22.363 -19.018  0.00  0.00    -0.276 N 
ATOM      2  N   UNL     1      32.931 -21.515 -19.901  0.00  0.00    -0.173 NA
ATOM      3  C   UNL     1      34.448 -22.179 -18.321  0.00  0.00    +0.036 A 
ATOM      4  C   UNL     1      34.191 -21.406 -19.473  0.00  0.00    +0.102 A 
ATOM      5  C   UNL     1      33.235 -22.798 -18.043  0.00  0.00    +0.075 A 
ATOM      6  C   UNL     1      35.552 -22.424 -17.488  0.00  0.00    +0.006 C 
ATOM      7  C   UNL     1      35.389 -23.292 -16.400  0.00  0.00    +0.033 C 
ATOM      8  C   UNL     1      33.051 -23.666 -16.964  0.00  0.00    +0.019 C 
ATOM      9  C   UNL     1      34.159 -23.900 -16.145  0.00  0.00    +0.004 C 
ATOM     10  H   UNL     1      31.436 -22.647 -19.068  0.00  0.00    +0.189 HD
ENDROOT
BRANCH   7  14
ATOM     11  N   UNL     1      37.797 -23.597 -15.969  0.00  0.00    -0.218 N 
ATOM     12  N   UNL     1      36.477 -23.794 -14.239  0.00  0.00    -0.206 NA
ATOM     13  N   UNL     1      38.646 -23.863 -14.965  0.00  0.00    -0.157 NA
ATOM     14  C   UNL     1      36.510 -23.557 -15.530  0.00  0.00    +0.149 C 
ATOM     15  C   UNL     1      37.797 -23.973 -13.940  0.00  0.00    +0.218 C 
ATOM     16  H   UNL     1      38.071 -23.449 -16.904  0.00  0.00    +0.176 HD
ENDBRANCH   7  14
BRANCH   4  17
ATOM     17  C   UNL     1      35.123 -20.564 -20.180  0.00  0.00    +0.021 C 
ATOM     18  C   UNL     1      34.659 -19.661 -21.137  0.00  0.00    +0.016 C 
ATOM     19  C   UNL     1      36.487 -20.652 -19.907  0.00  0.00    +0.002 C 
ATOM     20  C   UNL     1      35.561 -18.846 -21.821  0.00  0.00    +0.051 C 
ATOM     21  C   UNL     1      37.390 -19.837 -20.592  0.00  0.00    +0.001 C 
ATOM     22  C   UNL     1      36.927 -18.934 -21.548  0.00  0.00    +0.015 C 
BRANCH  20  24
ATOM     23  O   UNL     1      34.892 -15.971 -21.552  0.00  0.00    -0.266 OA
ATOM     24  N   UNL     1      35.100 -17.941 -22.778  0.00  0.00    -0.278 N 
ATOM     25  C   UNL     1      34.790 -16.576 -22.617  0.00  0.00    +0.284 C 
ATOM     26  H   UNL     1      34.975 -18.305 -23.684  0.00  0.00    +0.155 HD
BRANCH  25  28
ATOM     27  O   UNL     1      33.730 -14.670 -23.681  0.00  0.00    -0.446 OA
ATOM     28  C   UNL     1      34.282 -15.903 -23.825  0.00  0.00    +0.199 C 
ATOM     29  C   UNL     1      34.254 -16.294 -25.143  0.00  0.00    +0.045 C 
ATOM     30  C   UNL     1      33.645 -15.233 -25.855  0.00  0.00    +0.044 C 
ATOM     31  C   UNL     1      33.345 -14.269 -24.920  0.00  0.00    +0.180 C 
ENDBRANCH  25  28
ENDBRANCH  20  24
ENDBRANCH   4  17
TORSDOF 4
ENDMDL
MODEL 3
REMARK VINA RESULT:     -11.0      5.916      9.621
REMARK  Name = 22479942
REMARK  4 active torsions:
REMARK  status: ('A' for Active; 'I' for Inactive)
REMARK    1  A    between atoms: C_4  and  C_17
REMARK    2  A    between atoms: C_7  and  C_14
REMARK    3  A    between atoms: C_20  and  N_24
REMARK    4  A    between atoms: C_25  and  C_28
REMARK                            x       y       z     vdW  Elec       q    Type
REMARK                         _______ _______ _______ _____ _____    ______ ____
ROOT
ATOM      1  N   UNL     1      35.696 -16.409 -23.733  0.00  0.00    -0.276 N 
ATOM      2  N   UNL     1      35.026 -15.330 -23.293  0.00  0.00    -0.173 NA
ATOM      3  C   UNL     1      34.574 -17.170 -22.009  0.00  0.00    +0.036 A 
ATOM      4  C   UNL     1      34.345 -15.797 -22.245  0.00  0.00    +0.102 A 
ATOM      5  C   UNL     1      35.468 -17.546 -23.006  0.00  0.00    +0.075 A 
ATOM      6  C   UNL     1      34.135 -18.128 -21.081  0.00  0.00    +0.006 C 
ATOM      7  C   UNL     1      34.619 -19.439 -21.193  0.00  0.00    +0.033 C 
ATOM      8  C   UNL     1      35.962 -18.846 -23.136  0.00  0.00    +0.019 C 
ATOM      9  C   UNL     1      35.516 -19.789 -22.204  0.00  0.00    +0.004 C 
ATOM     10  H   UNL     1      36.299 -16.383 -24.511  0.00  0.00    +0.189 HD
ENDROOT
BRANCH   7  14
ATOM     11  N   UNL     1      32.871 -20.658 -19.955  0.00  0.00    -0.218 N 
ATOM     12  N   UNL     1      34.932 -21.262 -19.556  0.00  0.00    -0.206 NA
ATOM     13  N   UNL     1      32.733 -21.639 -19.051  0.00  0.00    -0.157 NA
ATOM     14  C   UNL     1      34.180 -20.440 -20.251  0.00  0.00    +0.149 C 
ATOM     15  C   UNL     1      34.009 -21.972 -18.843  0.00  0.00    +0.218 C 
ATOM     16  H   UNL     1      32.120 -20.160 -20.354  0.00  0.00    +0.176 HD
ENDBRANCH   7  14
BRANCH   4  17
ATOM     17  C   UNL     1      33.490 -14.917 -21.488  0.00  0.00    +0.021 C 
ATOM     18  C   UNL     1      33.235 -13.626 -21.951  0.00  0.00    +0.016 C 
ATOM     19  C   UNL     1      32.918 -15.357 -20.296  0.00  0.00    +0.002 C 
ATOM     20  C   UNL     1      32.407 -12.775 -21.219  0.00  0.00    +0.051 C 
ATOM     21  C   UNL     1      32.090 -14.505 -19.563  0.00  0.00    +0.001 C 
ATOM     22  C   UNL     1      31.835 -13.214 -20.025  0.00  0.00    +0.015 C 
BRANCH  20  24
ATOM     23  O   UNL     1      31.945 -10.271 -19.702  0.00  0.00    -0.266 OA
ATOM     24  N   UNL     1      32.150 -11.483 -21.681  0.00  0.00    -0.278 N 
ATOM     25  C   UNL     1      31.934 -10.310 -20.930  0.00  0.00    +0.284 C 
ATOM     26  H   UNL     1      32.116 -11.378 -22.659  0.00  0.00    +0.155 HD
BRANCH  25  28
ATOM     27  O   UNL     1      31.572  -7.915 -21.071  0.00  0.00    -0.446 OA
ATOM     28  C   UNL     1      31.646  -9.104 -21.724  0.00  0.00    +0.199 C 
ATOM     29  C   UNL     1      31.424  -8.929 -23.071  0.00  0.00    +0.045 C 
ATOM     30  C   UNL     1      31.200  -7.544 -23.256  0.00  0.00    +0.044 C 
ATOM     31  C   UNL     1      31.301  -6.970 -22.009  0.00  0.00    +0.180 C 
ENDBRANCH  25  28
ENDBRANCH  20  24
ENDBRANCH   4  17
TORSDOF 4
ENDMDL
MODEL 4
REMARK VINA RESULT:     -11.0      3.815      8.120
REMARK  Name = 22479942
REMARK  4 active torsions:
REMARK  status: ('A' for Active; 'I' for Inactive)
REMARK    1  A    between atoms: C_4  and  C_17
REMARK    2  A    between atoms: C_7  and  C_14
REMARK    3  A    between atoms: C_20  and  N_24
REMARK    4  A    between atoms: C_25  and  C_28
REMARK                            x       y       z     vdW  Elec       q    Type
REMARK                         _______ _______ _______ _____ _____    ______ ____
ROOT
ATOM      1  N   UNL     1      36.661 -23.837 -14.827  0.00  0.00    -0.276 N 
ATOM      2  N   UNL     1      35.618 -24.321 -14.130  0.00  0.00    -0.173 NA
ATOM      3  C   UNL     1      34.923 -23.260 -16.035  0.00  0.00    +0.036 A 
ATOM      4  C   UNL     1      34.564 -23.968 -14.868  0.00  0.00    +0.102 A 
ATOM      5  C   UNL     1      36.311 -23.188 -15.981  0.00  0.00    +0.075 A 
ATOM      6  C   UNL     1      34.245 -22.676 -17.118  0.00  0.00    +0.006 C 
ATOM      7  C   UNL     1      34.999 -22.039 -18.113  0.00  0.00    +0.033 C 
ATOM      8  C   UNL     1      37.080 -22.558 -16.961  0.00  0.00    +0.019 C 
ATOM      9  C   UNL     1      36.392 -21.983 -18.033  0.00  0.00    +0.004 C 
ATOM     10  H   UNL     1      37.594 -23.941 -14.533  0.00  0.00    +0.189 HD
ENDROOT
BRANCH   7  14
ATOM     11  N   UNL     1      32.981 -21.527 -19.433  0.00  0.00    -0.218 N 
ATOM     12  N   UNL     1      34.863 -20.726 -20.201  0.00  0.00    -0.206 NA
ATOM     13  N   UNL     1      32.606 -20.877 -20.545  0.00  0.00    -0.157 NA
ATOM     14  C   UNL     1      34.323 -21.432 -19.235  0.00  0.00    +0.149 C 
ATOM     15  C   UNL     1      33.782 -20.410 -20.973  0.00  0.00    +0.218 C 
ATOM     16  H   UNL     1      32.363 -22.009 -18.836  0.00  0.00    +0.176 HD
ENDBRANCH   7  14
BRANCH   4  17
ATOM     17  C   UNL     1      33.233 -24.319 -14.441  0.00  0.00    +0.021 C 
ATOM     18  C   UNL     1      32.126 -23.732 -15.055  0.00  0.00    +0.016 C 
ATOM     19  C   UNL     1      33.051 -25.245 -13.415  0.00  0.00    +0.002 C 
ATOM     20  C   UNL     1      30.838 -24.071 -14.642  0.00  0.00    +0.051 C 
ATOM     21  C   UNL     1      31.763 -25.584 -13.001  0.00  0.00    +0.001 C 
ATOM     22  C   UNL     1      30.656 -24.998 -13.615  0.00  0.00    +0.015 C 
BRANCH  20  24
ATOM     23  O   UNL     1      28.644 -25.321 -16.194  0.00  0.00    -0.266 OA
ATOM     24  N   UNL     1      29.730 -23.486 -15.256  0.00  0.00    -0.278 N 
ATOM     25  C   UNL     1      28.701 -24.111 -15.989  0.00  0.00    +0.284 C 
ATOM     26  H   UNL     1      29.658 -22.509 -15.164  0.00  0.00    +0.155 HD
BRANCH  25  28
ATOM     27  O   UNL     1      27.459 -23.247 -17.885  0.00  0.00    -0.446 OA
ATOM     28  C   UNL     1      27.688 -23.199 -16.547  0.00  0.00    +0.199 C 
ATOM     29  C   UNL     1      26.882 -22.257 -15.952  0.00  0.00    +0.045 C 
ATOM     30  C   UNL     1      26.108 -21.688 -16.992  0.00  0.00    +0.044 C 
ATOM     31  C   UNL     1      26.496 -22.325 -18.149  0.00  0.00    +0.180 C 
ENDBRANCH  25  28
ENDBRANCH  20  24
ENDBRANCH   4  17
TORSDOF 4
ENDMDL
MODEL 5
REMARK VINA RESULT:     -10.8      6.913     11.245
REMARK  Name = 22479942
REMARK  4 active torsions:
REMARK  status: ('A' for Active; 'I' for Inactive)
REMARK    1  A    between atoms: C_4  and  C_17
REMARK    2  A    between atoms: C_7  and  C_14
REMARK    3  A    between atoms: C_20  and  N_24
REMARK    4  A    between atoms: C_25  and  C_28
REMARK                            x       y       z     vdW  Elec       q    Type
REMARK                         _______ _______ _______ _____ _____    ______ ____
ROOT
ATOM      1  N   UNL     1      33.345 -14.847 -25.315  0.00  0.00    -0.276 N 
ATOM      2  N   UNL     1      32.791 -13.925 -24.511  0.00  0.00    -0.173 NA
ATOM      3  C   UNL     1      33.860 -15.545 -23.301  0.00  0.00    +0.036 A 
ATOM      4  C   UNL     1      33.106 -14.353 -23.287  0.00  0.00    +0.102 A 
ATOM      5  C   UNL     1      34.002 -15.848 -24.650  0.00  0.00    +0.075 A 
ATOM      6  C   UNL     1      34.433 -16.396 -22.340  0.00  0.00    +0.006 C 
ATOM      7  C   UNL     1      35.133 -17.527 -22.781  0.00  0.00    +0.033 C 
ATOM      8  C   UNL     1      34.695 -16.970 -25.111  0.00  0.00    +0.019 C 
ATOM      9  C   UNL     1      35.260 -17.807 -24.144  0.00  0.00    +0.004 C 
ATOM     10  H   UNL     1      33.285 -14.807 -26.296  0.00  0.00    +0.189 HD
ENDROOT
BRANCH   7  14
ATOM     11  N   UNL     1      34.997 -19.185 -20.963  0.00  0.00    -0.218 N 
ATOM     12  N   UNL     1      37.009 -18.615 -21.598  0.00  0.00    -0.206 NA
ATOM     13  N   UNL     1      35.789 -19.917 -20.165  0.00  0.00    -0.157 NA
ATOM     14  C   UNL     1      35.729 -18.415 -21.812  0.00  0.00    +0.149 C 
ATOM     15  C   UNL     1      36.997 -19.535 -20.589  0.00  0.00    +0.218 C 
ATOM     16  H   UNL     1      34.013 -19.205 -20.938  0.00  0.00    +0.176 HD
ENDBRANCH   7  14
BRANCH   4  17
ATOM     17  C   UNL     1      32.680 -13.608 -22.129  0.00  0.00    +0.021 C 
ATOM     18  C   UNL     1      32.328 -12.263 -22.256  0.00  0.00    +0.016 C 
ATOM     19  C   UNL     1      32.619 -14.230 -20.884  0.00  0.00    +0.002 C 
ATOM     20  C   UNL     1      31.916 -11.543 -21.135  0.00  0.00    +0.051 C 
ATOM     21  C   UNL     1      32.206 -13.509 -19.763  0.00  0.00    +0.001 C 
ATOM     22  C   UNL     1      31.854 -12.166 -19.888  0.00  0.00    +0.015 C 
BRANCH  20  24
ATOM     23  O   UNL     1      33.183  -9.383 -22.722  0.00  0.00    -0.266 OA
ATOM     24  N   UNL     1      31.562 -10.198 -21.260  0.00  0.00    -0.278 N 
ATOM     25  C   UNL     1      32.188  -9.194 -22.026  0.00  0.00    +0.284 C 
ATOM     26  H   UNL     1      30.771  -9.916 -20.746  0.00  0.00    +0.155 HD
BRANCH  25  28
ATOM     27  O   UNL     1      31.662  -7.227 -20.706  0.00  0.00    -0.446 OA
ATOM     28  C   UNL     1      31.589  -7.854 -21.909  0.00  0.00    +0.199 C 
ATOM     29  C   UNL     1      30.932  -7.065 -22.825  0.00  0.00    +0.045 C 
ATOM     30  C   UNL     1      30.580  -5.877 -22.141  0.00  0.00    +0.044 C 
ATOM     31  C   UNL     1      31.047  -6.025 -20.855  0.00  0.00    +0.180 C 
ENDBRANCH  25  28
ENDBRANCH  20  24
ENDBRANCH   4  17
TORSDOF 4
ENDMDL
MODEL 6
REMARK VINA RESULT:     -10.8      4.850      6.897
REMARK  Name = 22479942
REMARK  4 active torsions:
REMARK  status: ('A' for Active; 'I' for Inactive)
REMARK    1  A    between atoms: C_4  and  C_17
REMARK    2  A    between atoms: C_7  and  C_14
REMARK    3  A    between atoms: C_20  and  N_24
REMARK    4  A    between atoms: C_25  and  C_28
REMARK                            x       y       z     vdW  Elec       q    Type
REMARK                         _______ _______ _______ _____ _____    ______ ____
ROOT
ATOM      1  N   UNL     1      34.127 -24.448 -11.423  0.00  0.00    -0.276 N 
ATOM      2  N   UNL     1      33.329 -24.066 -12.435  0.00  0.00    -0.173 NA
ATOM      3  C   UNL     1      35.412 -24.636 -13.191  0.00  0.00    +0.036 A 
ATOM      4  C   UNL     1      34.114 -24.182 -13.507  0.00  0.00    +0.102 A 
ATOM      5  C   UNL     1      35.392 -24.803 -11.811  0.00  0.00    +0.075 A 
ATOM      6  C   UNL     1      36.590 -24.922 -13.902  0.00  0.00    +0.006 C 
ATOM      7  C   UNL     1      37.710 -25.369 -13.188  0.00  0.00    +0.033 C 
ATOM      8  C   UNL     1      36.497 -25.247 -11.080  0.00  0.00    +0.019 C 
ATOM      9  C   UNL     1      37.661 -25.528 -11.802  0.00  0.00    +0.004 C 
ATOM     10  H   UNL     1      33.829 -24.472 -10.486  0.00  0.00    +0.189 HD
ENDROOT
BRANCH   7  14
ATOM     11  N   UNL     1      39.531 -26.888 -13.861  0.00  0.00    -0.218 N 
ATOM     12  N   UNL     1      39.628 -24.855 -14.657  0.00  0.00    -0.206 NA
ATOM     13  N   UNL     1      40.649 -26.902 -14.603  0.00  0.00    -0.157 NA
ATOM     14  C   UNL     1      38.930 -25.668 -13.898  0.00  0.00    +0.149 C 
ATOM     15  C   UNL     1      40.662 -25.649 -15.063  0.00  0.00    +0.218 C 
ATOM     16  H   UNL     1      39.190 -27.661 -13.355  0.00  0.00    +0.176 HD
ENDBRANCH   7  14
BRANCH   4  17
ATOM     17  C   UNL     1      33.603 -23.857 -14.815  0.00  0.00    +0.021 C 
ATOM     18  C   UNL     1      32.258 -23.518 -14.974  0.00  0.00    +0.016 C 
ATOM     19  C   UNL     1      34.451 -23.881 -15.921  0.00  0.00    +0.002 C 
ATOM     20  C   UNL     1      31.764 -23.203 -16.239  0.00  0.00    +0.051 C 
ATOM     21  C   UNL     1      33.956 -23.566 -17.187  0.00  0.00    +0.001 C 
ATOM     22  C   UNL     1      32.612 -23.227 -17.346  0.00  0.00    +0.015 C 
BRANCH  20  24
ATOM     23  O   UNL     1      29.326 -24.837 -15.825  0.00  0.00    -0.266 OA
ATOM     24  N   UNL     1      30.420 -22.862 -16.399  0.00  0.00    -0.278 N 
ATOM     25  C   UNL     1      29.280 -23.666 -16.193  0.00  0.00    +0.284 C 
ATOM     26  H   UNL     1      30.246 -21.939 -16.694  0.00  0.00    +0.155 HD
BRANCH  25  28
ATOM     27  O   UNL     1      27.630 -22.895 -17.795  0.00  0.00    -0.446 OA
ATOM     28  C   UNL     1      27.994 -23.015 -16.492  0.00  0.00    +0.199 C 
ATOM     29  C   UNL     1      27.032 -22.473 -15.670  0.00  0.00    +0.045 C 
ATOM     30  C   UNL     1      26.012 -21.990 -16.524  0.00  0.00    +0.044 C 
ATOM     31  C   UNL     1      26.423 -22.271 -17.807  0.00  0.00    +0.180 C 
ENDBRANCH  25  28
ENDBRANCH  20  24
ENDBRANCH   4  17
TORSDOF 4
ENDMDL
MODEL 7
REMARK VINA RESULT:      -9.9     12.221     18.291
REMARK  Name = 22479942
REMARK  4 active torsions:
REMARK  status: ('A' for Active; 'I' for Inactive)
REMARK    1  A    between atoms: C_4  and  C_17
REMARK    2  A    between atoms: C_7  and  C_14
REMARK    3  A    between atoms: C_20  and  N_24
REMARK    4  A    between atoms: C_25  and  C_28
REMARK                            x       y       z     vdW  Elec       q    Type
REMARK                         _______ _______ _______ _____ _____    ______ ____
ROOT
ATOM      1  N   UNL     1      30.317  -3.653 -23.454  0.00  0.00    -0.276 N 
ATOM      2  N   UNL     1      30.392  -4.620 -22.524  0.00  0.00    -0.173 NA
ATOM      3  C   UNL     1      32.116  -4.771 -24.021  0.00  0.00    +0.036 A 
ATOM      4  C   UNL     1      31.487  -5.298 -22.872  0.00  0.00    +0.102 A 
ATOM      5  C   UNL     1      31.323  -3.688 -24.382  0.00  0.00    +0.075 A 
ATOM      6  C   UNL     1      33.251  -5.081 -24.789  0.00  0.00    +0.006 C 
ATOM      7  C   UNL     1      33.545  -4.279 -25.900  0.00  0.00    +0.033 C 
ATOM      8  C   UNL     1      31.598  -2.877 -25.485  0.00  0.00    +0.019 C 
ATOM      9  C   UNL     1      32.730  -3.197 -26.240  0.00  0.00    +0.004 C 
ATOM     10  H   UNL     1      29.602  -2.977 -23.466  0.00  0.00    +0.189 HD
ENDROOT
BRANCH   7  14
ATOM     11  N   UNL     1      34.761  -4.345 -28.043  0.00  0.00    -0.218 N 
ATOM     12  N   UNL     1      35.840  -5.102 -26.300  0.00  0.00    -0.206 NA
ATOM     13  N   UNL     1      35.947  -4.713 -28.552  0.00  0.00    -0.157 NA
ATOM     14  C   UNL     1      34.705  -4.579 -26.704  0.00  0.00    +0.149 C 
ATOM     15  C   UNL     1      36.563  -5.164 -27.456  0.00  0.00    +0.218 C 
ATOM     16  H   UNL     1      34.027  -3.955 -28.571  0.00  0.00    +0.176 HD
ENDBRANCH   7  14
BRANCH   4  17
ATOM     17  C   UNL     1      31.910  -6.436 -22.095  0.00  0.00    +0.021 C 
ATOM     18  C   UNL     1      32.094  -7.673 -22.714  0.00  0.00    +0.016 C 
ATOM     19  C   UNL     1      32.136  -6.300 -20.727  0.00  0.00    +0.002 C 
ATOM     20  C   UNL     1      32.504  -8.774 -21.962  0.00  0.00    +0.051 C 
ATOM     21  C   UNL     1      32.545  -7.402 -19.974  0.00  0.00    +0.001 C 
ATOM     22  C   UNL     1      32.729  -8.639 -20.592  0.00  0.00    +0.015 C 
BRANCH  20  24
ATOM     23  O   UNL     1      34.750  -9.747 -23.633  0.00  0.00    -0.266 OA
ATOM     24  N   UNL     1      32.690 -10.012 -22.580  0.00  0.00    -0.278 N 
ATOM     25  C   UNL     1      33.773 -10.444 -23.370  0.00  0.00    +0.284 C 
ATOM     26  H   UNL     1      31.969 -10.669 -22.444  0.00  0.00    +0.155 HD
BRANCH  25  28
ATOM     27  O   UNL     1      33.276 -12.799 -23.063  0.00  0.00    -0.446 OA
ATOM     28  C   UNL     1      33.646 -11.807 -23.914  0.00  0.00    +0.199 C 
ATOM     29  C   UNL     1      33.837 -12.305 -25.182  0.00  0.00    +0.045 C 
ATOM     30  C   UNL     1      33.567 -13.692 -25.104  0.00  0.00    +0.044 C 
ATOM     31  C   UNL     1      33.229 -13.943 -23.794  0.00  0.00    +0.180 C 
ENDBRANCH  25  28
ENDBRANCH  20  24
ENDBRANCH   4  17
TORSDOF 4
ENDMDL
MODEL 8
REMARK VINA RESULT:      -9.7      2.072      4.707
REMARK  Name = 22479942
REMARK  4 active torsions:
REMARK  status: ('A' for Active; 'I' for Inactive)
REMARK    1  A    between atoms: C_4  and  C_17
REMARK    2  A    between atoms: C_7  and  C_14
REMARK    3  A    between atoms: C_20  and  N_24
REMARK    4  A    between atoms: C_25  and  C_28
REMARK                            x       y       z     vdW  Elec       q    Type
REMARK                         _______ _______ _______ _____ _____    ______ ____
ROOT
ATOM      1  N   UNL     1      34.356 -25.416 -12.278  0.00  0.00    -0.276 N 
ATOM      2  N   UNL     1      35.446 -24.955 -12.913  0.00  0.00    -0.173 NA
ATOM      3  C   UNL     1      33.539 -24.475 -14.083  0.00  0.00    +0.036 A 
ATOM      4  C   UNL     1      34.945 -24.383 -14.010  0.00  0.00    +0.102 A 
ATOM      5  C   UNL     1      33.178 -25.161 -12.929  0.00  0.00    +0.075 A 
ATOM      6  C   UNL     1      32.539 -24.064 -14.980  0.00  0.00    +0.006 C 
ATOM      7  C   UNL     1      31.204 -24.361 -14.676  0.00  0.00    +0.033 C 
ATOM      8  C   UNL     1      31.854 -25.468 -12.606  0.00  0.00    +0.019 C 
ATOM      9  C   UNL     1      30.870 -25.052 -13.509  0.00  0.00    +0.004 C 
ATOM     10  H   UNL     1      34.400 -25.895 -11.420  0.00  0.00    +0.189 HD
ENDROOT
BRANCH   7  14
ATOM     11  N   UNL     1      30.094 -22.701 -16.120  0.00  0.00    -0.218 N 
ATOM     12  N   UNL     1      29.154 -24.671 -16.019  0.00  0.00    -0.206 NA
ATOM     13  N   UNL     1      29.031 -22.575 -16.929  0.00  0.00    -0.157 NA
ATOM     14  C   UNL     1      30.161 -23.949 -15.584  0.00  0.00    +0.149 C 
ATOM     15  C   UNL     1      28.496 -23.795 -16.834  0.00  0.00    +0.218 C 
ATOM     16  H   UNL     1      30.743 -21.982 -15.940  0.00  0.00    +0.176 HD
ENDBRANCH   7  14
BRANCH   4  17
ATOM     17  C   UNL     1      35.825 -23.758 -14.965  0.00  0.00    +0.021 C 
ATOM     18  C   UNL     1      35.294 -23.046 -16.041  0.00  0.00    +0.016 C 
ATOM     19  C   UNL     1      37.207 -23.864 -14.813  0.00  0.00    +0.002 C 
ATOM     20  C   UNL     1      36.145 -22.441 -16.965  0.00  0.00    +0.051 C 
ATOM     21  C   UNL     1      38.059 -23.259 -15.738  0.00  0.00    +0.001 C 
ATOM     22  C   UNL     1      37.528 -22.547 -16.814  0.00  0.00    +0.015 C 
BRANCH  20  24
ATOM     23  O   UNL     1      34.056 -23.221 -18.918  0.00  0.00    -0.266 OA
ATOM     24  N   UNL     1      35.615 -21.729 -18.042  0.00  0.00    -0.278 N 
ATOM     25  C   UNL     1      34.619 -22.129 -18.954  0.00  0.00    +0.284 C 
ATOM     26  H   UNL     1      35.986 -20.827 -18.180  0.00  0.00    +0.155 HD
BRANCH  25  28
ATOM     27  O   UNL     1      35.339 -20.677 -20.759  0.00  0.00    -0.446 OA
ATOM     28  C   UNL     1      34.309 -21.152 -20.011  0.00  0.00    +0.199 C 
ATOM     29  C   UNL     1      33.120 -20.592 -20.416  0.00  0.00    +0.045 C 
ATOM     30  C   UNL     1      33.440 -19.716 -21.481  0.00  0.00    +0.044 C 
ATOM     31  C   UNL     1      34.803 -19.805 -21.652  0.00  0.00    +0.180 C 
ENDBRANCH  25  28
ENDBRANCH  20  24
ENDBRANCH   4  17
TORSDOF 4
ENDMDL
MODEL 9
REMARK VINA RESULT:      -9.5      3.889      9.747
REMARK  Name = 22479942
REMARK  4 active torsions:
REMARK  status: ('A' for Active; 'I' for Inactive)
REMARK    1  A    between atoms: C_4  and  C_17
REMARK    2  A    between atoms: C_7  and  C_14
REMARK    3  A    between atoms: C_20  and  N_24
REMARK    4  A    between atoms: C_25  and  C_28
REMARK                            x       y       z     vdW  Elec       q    Type
REMARK                         _______ _______ _______ _____ _____    ______ ____
ROOT
ATOM      1  N   UNL     1      36.425 -19.134 -22.874  0.00  0.00    -0.276 N 
ATOM      2  N   UNL     1      36.117 -20.195 -22.109  0.00  0.00    -0.173 NA
ATOM      3  C   UNL     1      34.900 -18.354 -21.504  0.00  0.00    +0.036 A 
ATOM      4  C   UNL     1      35.189 -19.717 -21.278  0.00  0.00    +0.102 A 
ATOM      5  C   UNL     1      35.729 -17.996 -22.561  0.00  0.00    +0.075 A 
ATOM      6  C   UNL     1      34.043 -17.391 -20.945  0.00  0.00    +0.006 C 
ATOM      7  C   UNL     1      34.056 -16.095 -21.478  0.00  0.00    +0.033 C 
ATOM      8  C   UNL     1      35.758 -16.711 -23.106  0.00  0.00    +0.019 C 
ATOM      9  C   UNL     1      34.900 -15.764 -22.540  0.00  0.00    +0.004 C 
ATOM     10  H   UNL     1      37.093 -19.171 -23.596  0.00  0.00    +0.189 HD
ENDROOT
BRANCH   7  14
ATOM     11  N   UNL     1      32.847 -13.950 -21.578  0.00  0.00    -0.218 N 
ATOM     12  N   UNL     1      32.606 -15.106 -19.739  0.00  0.00    -0.206 NA
ATOM     13  N   UNL     1      32.029 -13.185 -20.839  0.00  0.00    -0.157 NA
ATOM     14  C   UNL     1      33.185 -15.090 -20.918  0.00  0.00    +0.149 C 
ATOM     15  C   UNL     1      31.914 -13.929 -19.736  0.00  0.00    +0.218 C 
ATOM     16  H   UNL     1      33.160 -13.716 -22.482  0.00  0.00    +0.176 HD
ENDBRANCH   7  14
BRANCH   4  17
ATOM     17  C   UNL     1      34.596 -20.577 -20.285  0.00  0.00    +0.021 C 
ATOM     18  C   UNL     1      35.411 -21.279 -19.395  0.00  0.00    +0.016 C 
ATOM     19  C   UNL     1      33.211 -20.707 -20.212  0.00  0.00    +0.002 C 
ATOM     20  C   UNL     1      34.838 -22.111 -18.434  0.00  0.00    +0.051 C 
ATOM     21  C   UNL     1      32.637 -21.539 -19.250  0.00  0.00    +0.001 C 
ATOM     22  C   UNL     1      33.450 -22.242 -18.361  0.00  0.00    +0.015 C 
BRANCH  20  24
ATOM     23  O   UNL     1      34.360 -22.852 -15.604  0.00  0.00    -0.266 OA
ATOM     24  N   UNL     1      35.651 -22.814 -17.543  0.00  0.00    -0.278 N 
ATOM     25  C   UNL     1      35.393 -23.151 -16.200  0.00  0.00    +0.284 C 
ATOM     26  H   UNL     1      36.517 -23.113 -17.902  0.00  0.00    +0.155 HD
BRANCH  25  28
ATOM     27  O   UNL     1      36.226 -25.119 -15.051  0.00  0.00    -0.446 OA
ATOM     28  C   UNL     1      36.482 -23.868 -15.515  0.00  0.00    +0.199 C 
ATOM     29  C   UNL     1      37.779 -23.505 -15.236  0.00  0.00    +0.045 C 
ATOM     30  C   UNL     1      38.357 -24.604 -14.556  0.00  0.00    +0.044 C 
ATOM     31  C   UNL     1      37.371 -25.561 -14.469  0.00  0.00    +0.180 C 
ENDBRANCH  25  28
ENDBRANCH  20  24
ENDBRANCH   4  17
TORSDOF 4
ENDMDL
