MODEL 1
REMARK VINA RESULT:     -12.5      0.000      0.000
REMARK  Name = 17748441
REMARK  5 active torsions:
REMARK  status: ('A' for Active; 'I' for Inactive)
REMARK    1  A    between atoms: C_2  and  N_10
REMARK    2  A    between atoms: C_3  and  O_24
REMARK    3  A    between atoms: C_12  and  C_16
REMARK    4  A    between atoms: C_16  and  C_18
REMARK    5  A    between atoms: O_24  and  C_27
REMARK                            x       y       z     vdW  Elec       q    Type
REMARK                         _______ _______ _______ _____ _____    ______ ____
ROOT
ATOM      1  F   UNL     1      31.216 -12.338 -19.262  0.00  0.00    -0.201 F 
ATOM      2  C   UNL     1      33.478 -14.586 -21.011  0.00  0.00    +0.054 C 
ATOM      3  C   UNL     1      32.006 -12.267 -21.498  0.00  0.00    +0.173 C 
ATOM      4  C   UNL     1      32.698 -14.029 -19.998  0.00  0.00    +0.047 C 
ATOM      5  C   UNL     1      33.521 -13.983 -22.268  0.00  0.00    +0.018 C 
ATOM      6  C   UNL     1      31.962 -12.869 -20.241  0.00  0.00    +0.176 C 
ATOM      7  C   UNL     1      32.784 -12.824 -22.512  0.00  0.00    +0.041 C 
ENDROOT
BRANCH   2  10
ATOM      8  O   UNL     1      36.097 -18.970 -22.885  0.00  0.00    -0.274 OA
ATOM      9  O   UNL     1      34.622 -16.598 -22.924  0.00  0.00    -0.252 OA
ATOM     10  N   UNL     1      34.224 -15.762 -20.765  0.00  0.00    -0.268 N 
ATOM     11  N   UNL     1      35.419 -17.707 -21.045  0.00  0.00    -0.239 N 
ATOM     12  C   UNL     1      36.051 -18.784 -21.672  0.00  0.00    +0.234 C 
ATOM     13  C   UNL     1      34.734 -16.666 -21.702  0.00  0.00    +0.310 C 
ATOM     14  H   UNL     1      34.406 -15.969 -19.819  0.00  0.00    +0.156 HD
ATOM     15  H   UNL     1      35.454 -17.674 -20.061  0.00  0.00    +0.159 HD
BRANCH  12  16
ATOM     16  C   UNL     1      36.688 -19.715 -20.658  0.00  0.00    +0.112 C 
BRANCH  16  18
ATOM     17  F   UNL     1      33.001 -23.210 -18.218  0.00  0.00    -0.204 F 
ATOM     18  C   UNL     1      35.703 -20.650 -20.006  0.00  0.00    -0.013 C 
ATOM     19  C   UNL     1      34.341 -20.532 -20.284  0.00  0.00    -0.001 C 
ATOM     20  C   UNL     1      36.151 -21.633 -19.124  0.00  0.00    -0.001 C 
ATOM     21  C   UNL     1      33.428 -21.397 -19.680  0.00  0.00    +0.029 C 
ATOM     22  C   UNL     1      35.239 -22.497 -18.519  0.00  0.00    +0.029 C 
ATOM     23  C   UNL     1      33.877 -22.380 -18.797  0.00  0.00    +0.140 C 
ENDBRANCH  16  18
ENDBRANCH  12  16
ENDBRANCH   2  10
BRANCH   3  24
ATOM     24  O   UNL     1      31.286 -11.136 -21.737  0.00  0.00    -0.451 OA
BRANCH  24  27
ATOM     25  N   UNL     1      33.328  -7.490 -21.695  0.00  0.00    -0.229 NA
ATOM     26  N   UNL     1      33.116  -7.416 -19.322  0.00  0.00    -0.343 N 
ATOM     27  C   UNL     1      31.962  -9.928 -21.723  0.00  0.00    +0.150 C 
ATOM     28  C   UNL     1      32.200  -9.275 -20.518  0.00  0.00    +0.071 C 
ATOM     29  C   UNL     1      32.406  -9.363 -22.912  0.00  0.00    +0.058 C 
ATOM     30  C   UNL     1      32.882  -8.069 -20.558  0.00  0.00    +0.128 C 
ATOM     31  C   UNL     1      33.079  -8.153 -22.846  0.00  0.00    +0.103 C 
ATOM     32  H   UNL     1      33.597  -6.557 -19.303  0.00  0.00    +0.144 HD
ATOM     33  H   UNL     1      32.799  -7.821 -18.483  0.00  0.00    +0.144 HD
ENDBRANCH  24  27
ENDBRANCH   3  24
TORSDOF 5
ENDMDL
MODEL 2
REMARK VINA RESULT:     -12.1      0.630      1.567
REMARK  Name = 17748441
REMARK  5 active torsions:
REMARK  status: ('A' for Active; 'I' for Inactive)
REMARK    1  A    between atoms: C_2  and  N_10
REMARK    2  A    between atoms: C_3  and  O_24
REMARK    3  A    between atoms: C_12  and  C_16
REMARK    4  A    between atoms: C_16  and  C_18
REMARK    5  A    between atoms: O_24  and  C_27
REMARK                            x       y       z     vdW  Elec       q    Type
REMARK                         _______ _______ _______ _____ _____    ______ ____
ROOT
ATOM      1  F   UNL     1      30.807 -12.252 -19.755  0.00  0.00    -0.201 F 
ATOM      2  C   UNL     1      33.465 -14.190 -21.306  0.00  0.00    +0.054 C 
ATOM      3  C   UNL     1      32.035 -11.835 -21.742  0.00  0.00    +0.173 C 
ATOM      4  C   UNL     1      32.473 -13.799 -20.407  0.00  0.00    +0.047 C 
ATOM      5  C   UNL     1      33.741 -13.402 -22.424  0.00  0.00    +0.018 C 
ATOM      6  C   UNL     1      31.758 -12.622 -20.625  0.00  0.00    +0.176 C 
ATOM      7  C   UNL     1      33.026 -12.225 -22.642  0.00  0.00    +0.041 C 
ENDROOT
BRANCH   2  10
ATOM      8  O   UNL     1      35.722 -18.745 -23.243  0.00  0.00    -0.274 OA
ATOM      9  O   UNL     1      34.336 -16.320 -23.235  0.00  0.00    -0.252 OA
ATOM     10  N   UNL     1      34.190 -15.384 -21.086  0.00  0.00    -0.268 N 
ATOM     11  N   UNL     1      35.280 -17.385 -21.400  0.00  0.00    -0.239 N 
ATOM     12  C   UNL     1      35.807 -18.510 -22.041  0.00  0.00    +0.234 C 
ATOM     13  C   UNL     1      34.569 -16.344 -22.030  0.00  0.00    +0.310 C 
ATOM     14  H   UNL     1      34.460 -15.561 -20.155  0.00  0.00    +0.156 HD
ATOM     15  H   UNL     1      35.417 -17.315 -20.427  0.00  0.00    +0.159 HD
BRANCH  12  16
ATOM     16  C   UNL     1      36.510 -19.425 -21.056  0.00  0.00    +0.112 C 
BRANCH  16  18
ATOM     17  F   UNL     1      33.009 -22.953 -18.400  0.00  0.00    -0.204 F 
ATOM     18  C   UNL     1      35.574 -20.368 -20.346  0.00  0.00    -0.013 C 
ATOM     19  C   UNL     1      36.085 -21.351 -19.500  0.00  0.00    -0.001 C 
ATOM     20  C   UNL     1      34.196 -20.258 -20.535  0.00  0.00    -0.001 C 
ATOM     21  C   UNL     1      35.218 -22.225 -18.842  0.00  0.00    +0.029 C 
ATOM     22  C   UNL     1      33.330 -21.131 -19.878  0.00  0.00    +0.029 C 
ATOM     23  C   UNL     1      33.841 -22.115 -19.031  0.00  0.00    +0.140 C 
ENDBRANCH  16  18
ENDBRANCH  12  16
ENDBRANCH   2  10
BRANCH   3  24
ATOM     24  O   UNL     1      31.336 -10.687 -21.956  0.00  0.00    -0.451 OA
BRANCH  24  27
ATOM     25  N   UNL     1      33.291  -7.061 -21.248  0.00  0.00    -0.229 NA
ATOM     26  N   UNL     1      33.501  -6.732 -23.599  0.00  0.00    -0.343 N 
ATOM     27  C   UNL     1      31.984  -9.485 -21.722  0.00  0.00    +0.150 C 
ATOM     28  C   UNL     1      32.420  -8.707 -22.789  0.00  0.00    +0.071 C 
ATOM     29  C   UNL     1      32.201  -9.052 -20.419  0.00  0.00    +0.058 C 
ATOM     30  C   UNL     1      33.062  -7.514 -22.501  0.00  0.00    +0.128 C 
ATOM     31  C   UNL     1      32.853  -7.843 -20.237  0.00  0.00    +0.103 C 
ATOM     32  H   UNL     1      33.962  -5.877 -23.441  0.00  0.00    +0.144 HD
ATOM     33  H   UNL     1      33.344  -7.045 -24.519  0.00  0.00    +0.144 HD
ENDBRANCH  24  27
ENDBRANCH   3  24
TORSDOF 5
ENDMDL
MODEL 3
REMARK VINA RESULT:     -11.9      2.893     10.977
REMARK  Name = 17748441
REMARK  5 active torsions:
REMARK  status: ('A' for Active; 'I' for Inactive)
REMARK    1  A    between atoms: C_2  and  N_10
REMARK    2  A    between atoms: C_3  and  O_24
REMARK    3  A    between atoms: C_12  and  C_16
REMARK    4  A    between atoms: C_16  and  C_18
REMARK    5  A    between atoms: O_24  and  C_27
REMARK                            x       y       z     vdW  Elec       q    Type
REMARK                         _______ _______ _______ _____ _____    ______ ____
ROOT
ATOM      1  F   UNL     1      34.956 -18.882 -24.340  0.00  0.00    -0.201 F 
ATOM      2  C   UNL     1      34.661 -15.762 -22.494  0.00  0.00    +0.054 C 
ATOM      3  C   UNL     1      35.231 -18.451 -22.023  0.00  0.00    +0.173 C 
ATOM      4  C   UNL     1      34.665 -16.670 -23.553  0.00  0.00    +0.047 C 
ATOM      5  C   UNL     1      34.940 -16.199 -21.200  0.00  0.00    +0.018 C 
ATOM      6  C   UNL     1      34.951 -18.015 -23.317  0.00  0.00    +0.176 C 
ATOM      7  C   UNL     1      35.225 -17.544 -20.964  0.00  0.00    +0.041 C 
ENDROOT
BRANCH   2  10
ATOM      8  O   UNL     1      31.468 -11.427 -21.712  0.00  0.00    -0.274 OA
ATOM      9  O   UNL     1      32.399 -14.053 -21.503  0.00  0.00    -0.252 OA
ATOM     10  N   UNL     1      34.371 -14.398 -22.733  0.00  0.00    -0.268 N 
ATOM     11  N   UNL     1      33.371 -12.326 -22.715  0.00  0.00    -0.239 N 
ATOM     12  C   UNL     1      32.460 -11.307 -22.424  0.00  0.00    +0.234 C 
ATOM     13  C   UNL     1      33.296 -13.651 -22.241  0.00  0.00    +0.310 C 
ATOM     14  H   UNL     1      35.002 -13.917 -23.317  0.00  0.00    +0.156 HD
ATOM     15  H   UNL     1      34.129 -12.100 -23.303  0.00  0.00    +0.159 HD
BRANCH  12  16
ATOM     16  C   UNL     1      32.851 -10.009 -23.105  0.00  0.00    +0.112 C 
BRANCH  16  18
ATOM     17  F   UNL     1      30.517  -5.459 -20.738  0.00  0.00    -0.204 F 
ATOM     18  C   UNL     1      32.227  -8.793 -22.473  0.00  0.00    -0.013 C 
ATOM     19  C   UNL     1      32.641  -8.375 -21.209  0.00  0.00    -0.001 C 
ATOM     20  C   UNL     1      31.235  -8.084 -23.151  0.00  0.00    -0.001 C 
ATOM     21  C   UNL     1      32.063  -7.249 -20.622  0.00  0.00    +0.029 C 
ATOM     22  C   UNL     1      30.657  -6.959 -22.565  0.00  0.00    +0.029 C 
ATOM     23  C   UNL     1      31.071  -6.540 -21.301  0.00  0.00    +0.140 C 
ENDBRANCH  16  18
ENDBRANCH  12  16
ENDBRANCH   2  10
BRANCH   3  24
ATOM     24  O   UNL     1      35.507 -19.764 -21.792  0.00  0.00    -0.451 OA
BRANCH  24  27
ATOM     25  N   UNL     1      33.229 -21.749 -18.904  0.00  0.00    -0.229 NA
ATOM     26  N   UNL     1      35.206 -22.800 -18.088  0.00  0.00    -0.343 N 
ATOM     27  C   UNL     1      34.753 -20.422 -20.835  0.00  0.00    +0.150 C 
ATOM     28  C   UNL     1      35.366 -21.288 -19.936  0.00  0.00    +0.071 C 
ATOM     29  C   UNL     1      33.379 -20.219 -20.769  0.00  0.00    +0.058 C 
ATOM     30  C   UNL     1      34.566 -21.921 -18.998  0.00  0.00    +0.128 C 
ATOM     31  C   UNL     1      32.668 -20.900 -19.794  0.00  0.00    +0.103 C 
ATOM     32  H   UNL     1      34.677 -23.271 -17.405  0.00  0.00    +0.144 HD
ATOM     33  H   UNL     1      36.180 -22.939 -18.140  0.00  0.00    +0.144 HD
ENDBRANCH  24  27
ENDBRANCH   3  24
TORSDOF 5
ENDMDL
MODEL 4
REMARK VINA RESULT:     -11.9      5.347     12.412
REMARK  Name = 17748441
REMARK  5 active torsions:
REMARK  status: ('A' for Active; 'I' for Inactive)
REMARK    1  A    between atoms: C_2  and  N_10
REMARK    2  A    between atoms: C_3  and  O_24
REMARK    3  A    between atoms: C_12  and  C_16
REMARK    4  A    between atoms: C_16  and  C_18
REMARK    5  A    between atoms: O_24  and  C_27
REMARK                            x       y       z     vdW  Elec       q    Type
REMARK                         _______ _______ _______ _____ _____    ______ ____
ROOT
ATOM      1  F   UNL     1      33.960 -24.111 -15.604  0.00  0.00    -0.201 F 
ATOM      2  C   UNL     1      35.663 -22.043 -18.064  0.00  0.00    +0.054 C 
ATOM      3  C   UNL     1      36.176 -23.263 -15.608  0.00  0.00    +0.173 C 
ATOM      4  C   UNL     1      34.666 -22.786 -17.432  0.00  0.00    +0.047 C 
ATOM      5  C   UNL     1      36.916 -21.910 -17.467  0.00  0.00    +0.018 C 
ATOM      6  C   UNL     1      34.923 -23.397 -16.205  0.00  0.00    +0.176 C 
ATOM      7  C   UNL     1      37.173 -22.519 -16.239  0.00  0.00    +0.041 C 
ENDROOT
BRANCH   2  10
ATOM      8  O   UNL     1      37.221 -18.714 -22.074  0.00  0.00    -0.274 OA
ATOM      9  O   UNL     1      37.331 -20.131 -19.670  0.00  0.00    -0.252 OA
ATOM     10  N   UNL     1      35.403 -21.423 -19.309  0.00  0.00    -0.268 N 
ATOM     11  N   UNL     1      35.595 -20.148 -21.213  0.00  0.00    -0.239 N 
ATOM     12  C   UNL     1      36.128 -19.269 -22.160  0.00  0.00    +0.234 C 
ATOM     13  C   UNL     1      36.223 -20.536 -20.013  0.00  0.00    +0.310 C 
ATOM     14  H   UNL     1      34.540 -21.644 -19.730  0.00  0.00    +0.156 HD
ATOM     15  H   UNL     1      34.705 -20.527 -21.400  0.00  0.00    +0.159 HD
BRANCH  12  16
ATOM     16  C   UNL     1      35.180 -19.077 -23.328  0.00  0.00    +0.112 C 
BRANCH  16  18
ATOM     17  F   UNL     1      33.847 -13.682 -24.258  0.00  0.00    -0.204 F 
ATOM     18  C   UNL     1      34.824 -17.635 -23.577  0.00  0.00    -0.013 C 
ATOM     19  C   UNL     1      34.891 -16.711 -22.535  0.00  0.00    -0.001 C 
ATOM     20  C   UNL     1      34.427 -17.223 -24.849  0.00  0.00    -0.001 C 
ATOM     21  C   UNL     1      34.561 -15.375 -22.765  0.00  0.00    +0.029 C 
ATOM     22  C   UNL     1      34.096 -15.889 -25.079  0.00  0.00    +0.029 C 
ATOM     23  C   UNL     1      34.164 -14.963 -24.038  0.00  0.00    +0.140 C 
ENDBRANCH  16  18
ENDBRANCH  12  16
ENDBRANCH   2  10
BRANCH   3  24
ATOM     24  O   UNL     1      36.426 -23.857 -14.409  0.00  0.00    -0.451 OA
BRANCH  24  27
ATOM     25  N   UNL     1      38.386 -27.548 -14.440  0.00  0.00    -0.229 NA
ATOM     26  N   UNL     1      40.423 -26.454 -13.861  0.00  0.00    -0.343 N 
ATOM     27  C   UNL     1      37.076 -25.079 -14.420  0.00  0.00    +0.150 C 
ATOM     28  C   UNL     1      38.435 -25.151 -14.133  0.00  0.00    +0.071 C 
ATOM     29  C   UNL     1      36.372 -26.241 -14.716  0.00  0.00    +0.058 C 
ATOM     30  C   UNL     1      39.038 -26.398 -14.156  0.00  0.00    +0.128 C 
ATOM     31  C   UNL     1      37.067 -27.440 -14.713  0.00  0.00    +0.103 C 
ATOM     32  H   UNL     1      40.892 -27.319 -13.866  0.00  0.00    +0.144 HD
ATOM     33  H   UNL     1      40.915 -25.628 -13.652  0.00  0.00    +0.144 HD
ENDBRANCH  24  27
ENDBRANCH   3  24
TORSDOF 5
ENDMDL
MODEL 5
REMARK VINA RESULT:     -11.7      5.273      8.766
REMARK  Name = 17748441
REMARK  5 active torsions:
REMARK  status: ('A' for Active; 'I' for Inactive)
REMARK    1  A    between atoms: C_2  and  N_10
REMARK    2  A    between atoms: C_3  and  O_24
REMARK    3  A    between atoms: C_12  and  C_16
REMARK    4  A    between atoms: C_16  and  C_18
REMARK    5  A    between atoms: O_24  and  C_27
REMARK                            x       y       z     vdW  Elec       q    Type
REMARK                         _______ _______ _______ _____ _____    ______ ____
ROOT
ATOM      1  F   UNL     1      37.058 -21.472 -19.861  0.00  0.00    -0.201 F 
ATOM      2  C   UNL     1      33.563 -21.884 -18.941  0.00  0.00    +0.054 C 
ATOM      3  C   UNL     1      35.120 -20.413 -20.728  0.00  0.00    +0.173 C 
ATOM      4  C   UNL     1      34.949 -22.046 -18.957  0.00  0.00    +0.047 C 
ATOM      5  C   UNL     1      32.957 -20.986 -19.820  0.00  0.00    +0.018 C 
ATOM      6  C   UNL     1      35.727 -21.310 -19.850  0.00  0.00    +0.176 C 
ATOM      7  C   UNL     1      33.735 -20.250 -20.713  0.00  0.00    +0.041 C 
ENDROOT
BRANCH   2  10
ATOM      8  O   UNL     1      33.087 -24.600 -14.252  0.00  0.00    -0.274 OA
ATOM      9  O   UNL     1      34.274 -23.106 -16.292  0.00  0.00    -0.252 OA
ATOM     10  N   UNL     1      32.773 -22.629 -18.035  0.00  0.00    -0.268 N 
ATOM     11  N   UNL     1      32.074 -23.846 -16.213  0.00  0.00    -0.239 N 
ATOM     12  C   UNL     1      32.105 -24.510 -14.983  0.00  0.00    +0.234 C 
ATOM     13  C   UNL     1      33.161 -23.177 -16.808  0.00  0.00    +0.310 C 
ATOM     14  H   UNL     1      31.837 -22.781 -18.301  0.00  0.00    +0.156 HD
ATOM     15  H   UNL     1      31.220 -23.847 -16.705  0.00  0.00    +0.159 HD
BRANCH  12  16
ATOM     16  C   UNL     1      30.755 -25.119 -14.653  0.00  0.00    +0.112 C 
BRANCH  16  18
ATOM     17  F   UNL     1      26.415 -22.164 -16.698  0.00  0.00    -0.204 F 
ATOM     18  C   UNL     1      29.595 -24.330 -15.199  0.00  0.00    -0.013 C 
ATOM     19  C   UNL     1      28.899 -24.794 -16.314  0.00  0.00    -0.001 C 
ATOM     20  C   UNL     1      29.217 -23.132 -14.590  0.00  0.00    -0.001 C 
ATOM     21  C   UNL     1      27.824 -24.063 -16.820  0.00  0.00    +0.029 C 
ATOM     22  C   UNL     1      28.144 -22.401 -15.097  0.00  0.00    +0.029 C 
ATOM     23  C   UNL     1      27.446 -22.866 -16.212  0.00  0.00    +0.140 C 
ENDBRANCH  16  18
ENDBRANCH  12  16
ENDBRANCH   2  10
BRANCH   3  24
ATOM     24  O   UNL     1      35.880 -19.694 -21.600  0.00  0.00    -0.451 OA
BRANCH  24  27
ATOM     25  N   UNL     1      34.531 -15.883 -22.661  0.00  0.00    -0.229 NA
ATOM     26  N   UNL     1      34.624 -16.507 -24.959  0.00  0.00    -0.343 N 
ATOM     27  C   UNL     1      35.433 -18.431 -21.952  0.00  0.00    +0.150 C 
ATOM     28  C   UNL     1      35.252 -18.102 -23.291  0.00  0.00    +0.071 C 
ATOM     29  C   UNL     1      35.164 -17.487 -20.968  0.00  0.00    +0.058 C 
ATOM     30  C   UNL     1      34.804 -16.826 -23.590  0.00  0.00    +0.128 C 
ATOM     31  C   UNL     1      34.719 -16.238 -21.371  0.00  0.00    +0.103 C 
ATOM     32  H   UNL     1      34.307 -15.612 -25.218  0.00  0.00    +0.144 HD
ATOM     33  H   UNL     1      34.817 -17.180 -25.651  0.00  0.00    +0.144 HD
ENDBRANCH  24  27
ENDBRANCH   3  24
TORSDOF 5
ENDMDL
MODEL 6
REMARK VINA RESULT:     -11.7      4.852      7.860
REMARK  Name = 17748441
REMARK  5 active torsions:
REMARK  status: ('A' for Active; 'I' for Inactive)
REMARK    1  A    between atoms: C_2  and  N_10
REMARK    2  A    between atoms: C_3  and  O_24
REMARK    3  A    between atoms: C_12  and  C_16
REMARK    4  A    between atoms: C_16  and  C_18
REMARK    5  A    between atoms: O_24  and  C_27
REMARK                            x       y       z     vdW  Elec       q    Type
REMARK                         _______ _______ _______ _____ _____    ______ ____
ROOT
ATOM      1  F   UNL     1      37.882 -18.703 -21.615  0.00  0.00    -0.201 F 
ATOM      2  C   UNL     1      35.866 -21.051 -19.704  0.00  0.00    +0.054 C 
ATOM      3  C   UNL     1      35.547 -19.119 -21.690  0.00  0.00    +0.173 C 
ATOM      4  C   UNL     1      36.973 -20.344 -20.173  0.00  0.00    +0.047 C 
ATOM      5  C   UNL     1      34.600 -20.791 -20.228  0.00  0.00    +0.018 C 
ATOM      6  C   UNL     1      36.813 -19.378 -21.167  0.00  0.00    +0.176 C 
ATOM      7  C   UNL     1      34.440 -19.824 -21.221  0.00  0.00    +0.041 C 
ENDROOT
BRANCH   2  10
ATOM      8  O   UNL     1      37.872 -22.539 -14.871  0.00  0.00    -0.274 OA
ATOM      9  O   UNL     1      37.316 -20.919 -17.078  0.00  0.00    -0.252 OA
ATOM     10  N   UNL     1      36.027 -22.031 -18.696  0.00  0.00    -0.268 N 
ATOM     11  N   UNL     1      36.639 -23.118 -16.764  0.00  0.00    -0.239 N 
ATOM     12  C   UNL     1      37.216 -23.354 -15.513  0.00  0.00    +0.234 C 
ATOM     13  C   UNL     1      36.717 -21.911 -17.486  0.00  0.00    +0.310 C 
ATOM     14  H   UNL     1      35.601 -22.902 -18.868  0.00  0.00    +0.156 HD
ATOM     15  H   UNL     1      36.135 -23.858 -17.175  0.00  0.00    +0.159 HD
BRANCH  12  16
ATOM     16  C   UNL     1      36.932 -24.765 -15.034  0.00  0.00    +0.112 C 
BRANCH  16  18
ATOM     17  F   UNL     1      35.396 -25.015  -9.618  0.00  0.00    -0.204 F 
ATOM     18  C   UNL     1      36.521 -24.831 -13.586  0.00  0.00    -0.013 C 
ATOM     19  C   UNL     1      37.460 -25.162 -12.610  0.00  0.00    -0.001 C 
ATOM     20  C   UNL     1      35.202 -24.562 -13.221  0.00  0.00    -0.001 C 
ATOM     21  C   UNL     1      37.080 -25.224 -11.269  0.00  0.00    +0.029 C 
ATOM     22  C   UNL     1      34.822 -24.625 -11.881  0.00  0.00    +0.029 C 
ATOM     23  C   UNL     1      35.761 -24.955 -10.904  0.00  0.00    +0.140 C 
ENDBRANCH  16  18
ENDBRANCH  12  16
ENDBRANCH   2  10
BRANCH   3  24
ATOM     24  O   UNL     1      35.391 -18.174 -22.659  0.00  0.00    -0.451 OA
BRANCH  24  27
ATOM     25  N   UNL     1      34.144 -14.366 -21.472  0.00  0.00    -0.229 NA
ATOM     26  N   UNL     1      34.248 -13.642 -23.740  0.00  0.00    -0.343 N 
ATOM     27  C   UNL     1      34.979 -16.912 -22.266  0.00  0.00    +0.150 C 
ATOM     28  C   UNL     1      34.820 -15.904 -23.210  0.00  0.00    +0.071 C 
ATOM     29  C   UNL     1      34.720 -16.648 -20.926  0.00  0.00    +0.058 C 
ATOM     30  C   UNL     1      34.404 -14.659 -22.765  0.00  0.00    +0.128 C 
ATOM     31  C   UNL     1      34.309 -15.370 -20.583  0.00  0.00    +0.103 C 
ATOM     32  H   UNL     1      33.954 -12.742 -23.469  0.00  0.00    +0.144 HD
ATOM     33  H   UNL     1      34.432 -13.835 -24.688  0.00  0.00    +0.144 HD
ENDBRANCH  24  27
ENDBRANCH   3  24
TORSDOF 5
ENDMDL
MODEL 7
REMARK VINA RESULT:     -11.3      3.047     10.971
REMARK  Name = 17748441
REMARK  5 active torsions:
REMARK  status: ('A' for Active; 'I' for Inactive)
REMARK    1  A    between atoms: C_2  and  N_10
REMARK    2  A    between atoms: C_3  and  O_24
REMARK    3  A    between atoms: C_12  and  C_16
REMARK    4  A    between atoms: C_16  and  C_18
REMARK    5  A    between atoms: O_24  and  C_27
REMARK                            x       y       z     vdW  Elec       q    Type
REMARK                         _______ _______ _______ _____ _____    ______ ____
ROOT
ATOM      1  F   UNL     1      34.420 -18.146 -25.319  0.00  0.00    -0.201 F 
ATOM      2  C   UNL     1      34.600 -15.250 -23.126  0.00  0.00    +0.054 C 
ATOM      3  C   UNL     1      34.981 -18.011 -23.017  0.00  0.00    +0.173 C 
ATOM      4  C   UNL     1      34.411 -16.026 -24.270  0.00  0.00    +0.047 C 
ATOM      5  C   UNL     1      34.979 -15.856 -21.928  0.00  0.00    +0.018 C 
ATOM      6  C   UNL     1      34.602 -17.407 -24.215  0.00  0.00    +0.176 C 
ATOM      7  C   UNL     1      35.169 -17.237 -21.874  0.00  0.00    +0.041 C 
ENDROOT
BRANCH   2  10
ATOM      8  O   UNL     1      31.556 -10.879 -22.023  0.00  0.00    -0.274 OA
ATOM      9  O   UNL     1      32.328 -13.561 -22.125  0.00  0.00    -0.252 OA
ATOM     10  N   UNL     1      34.407 -13.850 -23.180  0.00  0.00    -0.268 N 
ATOM     11  N   UNL     1      33.515 -11.742 -22.948  0.00  0.00    -0.239 N 
ATOM     12  C   UNL     1      32.628 -10.720 -22.600  0.00  0.00    +0.234 C 
ATOM     13  C   UNL     1      33.321 -13.115 -22.694  0.00  0.00    +0.310 C 
ATOM     14  H   UNL     1      35.124 -13.331 -23.613  0.00  0.00    +0.156 HD
ATOM     15  H   UNL     1      34.345 -11.482 -23.411  0.00  0.00    +0.159 HD
BRANCH  12  16
ATOM     16  C   UNL     1      33.157  -9.364 -23.028  0.00  0.00    +0.112 C 
BRANCH  16  18
ATOM     17  F   UNL     1      30.171  -5.051 -20.970  0.00  0.00    -0.204 F 
ATOM     18  C   UNL     1      32.359  -8.212 -22.478  0.00  0.00    -0.013 C 
ATOM     19  C   UNL     1      31.280  -7.703 -23.200  0.00  0.00    -0.001 C 
ATOM     20  C   UNL     1      32.699  -7.652 -21.246  0.00  0.00    -0.001 C 
ATOM     21  C   UNL     1      30.540  -6.636 -22.690  0.00  0.00    +0.029 C 
ATOM     22  C   UNL     1      31.961  -6.584 -20.737  0.00  0.00    +0.029 C 
ATOM     23  C   UNL     1      30.880  -6.076 -21.458  0.00  0.00    +0.140 C 
ENDBRANCH  16  18
ENDBRANCH  12  16
ENDBRANCH   2  10
BRANCH   3  24
ATOM     24  O   UNL     1      35.165 -19.359 -22.964  0.00  0.00    -0.451 OA
BRANCH  24  27
ATOM     25  N   UNL     1      34.974 -21.199 -19.216  0.00  0.00    -0.229 NA
ATOM     26  N   UNL     1      32.594 -21.178 -19.343  0.00  0.00    -0.343 N 
ATOM     27  C   UNL     1      35.101 -19.969 -21.722  0.00  0.00    +0.150 C 
ATOM     28  C   UNL     1      33.868 -20.269 -21.153  0.00  0.00    +0.071 C 
ATOM     29  C   UNL     1      36.270 -20.283 -21.038  0.00  0.00    +0.058 C 
ATOM     30  C   UNL     1      33.859 -20.879 -19.909  0.00  0.00    +0.128 C 
ATOM     31  C   UNL     1      36.154 -20.893 -19.799  0.00  0.00    +0.103 C 
ATOM     32  H   UNL     1      32.540 -21.611 -18.461  0.00  0.00    +0.144 HD
ATOM     33  H   UNL     1      31.770 -20.952 -19.833  0.00  0.00    +0.144 HD
ENDBRANCH  24  27
ENDBRANCH   3  24
TORSDOF 5
ENDMDL
MODEL 8
REMARK VINA RESULT:     -11.3      4.611      7.239
REMARK  Name = 17748441
REMARK  5 active torsions:
REMARK  status: ('A' for Active; 'I' for Inactive)
REMARK    1  A    between atoms: C_2  and  N_10
REMARK    2  A    between atoms: C_3  and  O_24
REMARK    3  A    between atoms: C_12  and  C_16
REMARK    4  A    between atoms: C_16  and  C_18
REMARK    5  A    between atoms: O_24  and  C_27
REMARK                            x       y       z     vdW  Elec       q    Type
REMARK                         _______ _______ _______ _____ _____    ______ ____
ROOT
ATOM      1  F   UNL     1      37.932 -18.677 -21.553  0.00  0.00    -0.201 F 
ATOM      2  C   UNL     1      35.276 -20.777 -20.224  0.00  0.00    +0.054 C 
ATOM      3  C   UNL     1      35.700 -18.968 -22.304  0.00  0.00    +0.173 C 
ATOM      4  C   UNL     1      36.521 -20.165 -20.373  0.00  0.00    +0.047 C 
ATOM      5  C   UNL     1      34.244 -20.484 -21.115  0.00  0.00    +0.018 C 
ATOM      6  C   UNL     1      36.733 -19.261 -21.414  0.00  0.00    +0.176 C 
ATOM      7  C   UNL     1      34.456 -19.579 -22.154  0.00  0.00    +0.041 C 
ENDROOT
BRANCH   2  10
ATOM      8  O   UNL     1      36.865 -22.979 -15.510  0.00  0.00    -0.274 OA
ATOM      9  O   UNL     1      36.907 -21.329 -17.763  0.00  0.00    -0.252 OA
ATOM     10  N   UNL     1      35.061 -21.694 -19.168  0.00  0.00    -0.268 N 
ATOM     11  N   UNL     1      35.293 -22.912 -17.231  0.00  0.00    -0.239 N 
ATOM     12  C   UNL     1      35.826 -23.380 -16.027  0.00  0.00    +0.234 C 
ATOM     13  C   UNL     1      35.860 -21.908 -18.041  0.00  0.00    +0.310 C 
ATOM     14  H   UNL     1      34.250 -22.250 -19.237  0.00  0.00    +0.156 HD
ATOM     15  H   UNL     1      34.450 -23.318 -17.539  0.00  0.00    +0.159 HD
BRANCH  12  16
ATOM     16  C   UNL     1      34.954 -24.464 -15.423  0.00  0.00    +0.112 C 
BRANCH  16  18
ATOM     17  F   UNL     1      29.680 -22.766 -14.397  0.00  0.00    -0.204 F 
ATOM     18  C   UNL     1      33.544 -24.011 -15.149  0.00  0.00    -0.013 C 
ATOM     19  C   UNL     1      32.701 -23.677 -16.208  0.00  0.00    -0.001 C 
ATOM     20  C   UNL     1      33.082 -23.923 -13.835  0.00  0.00    -0.001 C 
ATOM     21  C   UNL     1      31.395 -23.257 -15.954  0.00  0.00    +0.029 C 
ATOM     22  C   UNL     1      31.777 -23.502 -13.581  0.00  0.00    +0.029 C 
ATOM     23  C   UNL     1      30.933 -23.169 -14.641  0.00  0.00    +0.140 C 
ENDBRANCH  16  18
ENDBRANCH  12  16
ENDBRANCH   2  10
BRANCH   3  24
ATOM     24  O   UNL     1      35.906 -18.084 -23.318  0.00  0.00    -0.451 OA
BRANCH  24  27
ATOM     25  N   UNL     1      33.436 -14.716 -23.488  0.00  0.00    -0.229 NA
ATOM     26  N   UNL     1      32.960 -15.199 -25.773  0.00  0.00    -0.343 N 
ATOM     27  C   UNL     1      35.088 -16.968 -23.375  0.00  0.00    +0.150 C 
ATOM     28  C   UNL     1      34.431 -16.643 -24.557  0.00  0.00    +0.071 C 
ATOM     29  C   UNL     1      34.920 -16.168 -22.251  0.00  0.00    +0.058 C 
ATOM     30  C   UNL     1      33.623 -15.517 -24.561  0.00  0.00    +0.128 C 
ATOM     31  C   UNL     1      34.091 -15.063 -22.358  0.00  0.00    +0.103 C 
ATOM     32  H   UNL     1      32.377 -14.408 -25.821  0.00  0.00    +0.144 HD
ATOM     33  H   UNL     1      33.084 -15.770 -26.565  0.00  0.00    +0.144 HD
ENDBRANCH  24  27
ENDBRANCH   3  24
TORSDOF 5
ENDMDL
MODEL 9
REMARK VINA RESULT:     -11.0      1.841      2.254
REMARK  Name = 17748441
REMARK  5 active torsions:
REMARK  status: ('A' for Active; 'I' for Inactive)
REMARK    1  A    between atoms: C_2  and  N_10
REMARK    2  A    between atoms: C_3  and  O_24
REMARK    3  A    between atoms: C_12  and  C_16
REMARK    4  A    between atoms: C_16  and  C_18
REMARK    5  A    between atoms: O_24  and  C_27
REMARK                            x       y       z     vdW  Elec       q    Type
REMARK                         _______ _______ _______ _____ _____    ______ ____
ROOT
ATOM      1  F   UNL     1      34.531 -10.900 -24.641  0.00  0.00    -0.201 F 
ATOM      2  C   UNL     1      33.331 -13.809 -22.818  0.00  0.00    +0.054 C 
ATOM      3  C   UNL     1      32.777 -11.086 -23.053  0.00  0.00    +0.173 C 
ATOM      4  C   UNL     1      34.083 -13.017 -23.686  0.00  0.00    +0.047 C 
ATOM      5  C   UNL     1      32.303 -13.239 -22.068  0.00  0.00    +0.018 C 
ATOM      6  C   UNL     1      33.806 -11.655 -23.803  0.00  0.00    +0.176 C 
ATOM      7  C   UNL     1      32.026 -11.877 -22.185  0.00  0.00    +0.041 C 
ENDROOT
BRANCH   2  10
ATOM      8  O   UNL     1      35.948 -17.875 -20.325  0.00  0.00    -0.274 OA
ATOM      9  O   UNL     1      35.123 -15.269 -20.901  0.00  0.00    -0.252 OA
ATOM     10  N   UNL     1      33.612 -15.191 -22.698  0.00  0.00    -0.268 N 
ATOM     11  N   UNL     1      34.463 -17.209 -21.995  0.00  0.00    -0.239 N 
ATOM     12  C   UNL     1      35.200 -18.142 -21.261  0.00  0.00    +0.234 C 
ATOM     13  C   UNL     1      34.461 -15.816 -21.779  0.00  0.00    +0.310 C 
ATOM     14  H   UNL     1      33.155 -15.782 -23.339  0.00  0.00    +0.156 HD
ATOM     15  H   UNL     1      33.898 -17.553 -22.725  0.00  0.00    +0.159 HD
BRANCH  12  16
ATOM     16  C   UNL     1      34.962 -19.552 -21.768  0.00  0.00    +0.112 C 
BRANCH  16  18
ATOM     17  F   UNL     1      33.729 -23.216 -17.669  0.00  0.00    -0.204 F 
ATOM     18  C   UNL     1      34.633 -20.532 -20.673  0.00  0.00    -0.013 C 
ATOM     19  C   UNL     1      33.313 -20.684 -20.248  0.00  0.00    -0.001 C 
ATOM     20  C   UNL     1      35.647 -21.287 -20.083  0.00  0.00    -0.001 C 
ATOM     21  C   UNL     1      33.008 -21.591 -19.233  0.00  0.00    +0.029 C 
ATOM     22  C   UNL     1      35.342 -22.193 -19.068  0.00  0.00    +0.029 C 
ATOM     23  C   UNL     1      34.022 -22.346 -18.643  0.00  0.00    +0.140 C 
ENDBRANCH  16  18
ENDBRANCH  12  16
ENDBRANCH   2  10
BRANCH   3  24
ATOM     24  O   UNL     1      32.508  -9.756 -23.166  0.00  0.00    -0.451 OA
BRANCH  24  27
ATOM     25  N   UNL     1      32.901  -7.396 -19.739  0.00  0.00    -0.229 NA
ATOM     26  N   UNL     1      31.645  -9.003 -18.507  0.00  0.00    -0.343 N 
ATOM     27  C   UNL     1      32.638  -8.974 -22.031  0.00  0.00    +0.150 C 
ATOM     28  C   UNL     1      32.070  -9.387 -20.830  0.00  0.00    +0.071 C 
ATOM     29  C   UNL     1      33.337  -7.774 -22.086  0.00  0.00    +0.058 C 
ATOM     30  C   UNL     1      32.229  -8.569 -19.723  0.00  0.00    +0.128 C 
ATOM     31  C   UNL     1      33.439  -7.028 -20.923  0.00  0.00    +0.103 C 
ATOM     32  H   UNL     1      31.733  -8.454 -17.695  0.00  0.00    +0.144 HD
ATOM     33  H   UNL     1      31.152  -9.855 -18.474  0.00  0.00    +0.144 HD
ENDBRANCH  24  27
ENDBRANCH   3  24
TORSDOF 5
ENDMDL
