MODEL 1
REMARK VINA RESULT:     -11.5      0.000      0.000
REMARK  Name = 11978813
REMARK  7 active torsions:
REMARK  status: ('A' for Active; 'I' for Inactive)
REMARK    1  A    between atoms: C_1  and  N_2
REMARK    2  A    between atoms: C_1  and  C_18
REMARK    3  A    between atoms: N_3  and  C_10
REMARK    4  A    between atoms: C_18  and  C_19
REMARK    5  A    between atoms: C_19  and  C_20
REMARK    6  A    between atoms: C_20  and  O_21
REMARK    7  A    between atoms: O_21  and  C_24
REMARK                            x       y       z     vdW  Elec       q    Type
REMARK                         _______ _______ _______ _____ _____    ______ ____
ROOT
ATOM      1  C   UNL     1      36.676 -21.709 -19.341  0.00  0.00    -0.077 C 
ENDROOT
BRANCH   1   2
ATOM      2  N   UNL     1      36.176 -20.426 -19.832  0.00  0.00    +0.389 N 
ATOM      3  N   UNL     1      35.346 -18.532 -21.803  0.00  0.00    -0.312 N 
ATOM      4  C   UNL     1      37.163 -19.791 -20.713  0.00  0.00    -0.055 C 
ATOM      5  C   UNL     1      34.909 -20.608 -20.551  0.00  0.00    -0.055 C 
ATOM      6  C   UNL     1      36.675 -18.420 -21.188  0.00  0.00    +0.068 C 
ATOM      7  C   UNL     1      34.345 -19.265 -21.022  0.00  0.00    +0.068 C 
ATOM      8  H   UNL     1      36.013 -19.819 -19.028  0.00  0.00    -0.080 HD
BRANCH   3  10
ATOM      9  S   UNL     1      33.726 -13.773 -22.363  0.00  0.00    -0.086 S 
ATOM     10  C   UNL     1      34.938 -17.517 -22.676  0.00  0.00    +0.048 C 
ATOM     11  C   UNL     1      34.548 -16.219 -22.211  0.00  0.00    +0.020 C 
ATOM     12  C   UNL     1      34.905 -17.767 -24.065  0.00  0.00    +0.015 C 
ATOM     13  C   UNL     1      34.150 -15.252 -23.140  0.00  0.00    +0.031 C 
ATOM     14  C   UNL     1      34.490 -15.708 -20.872  0.00  0.00    +0.009 C 
ATOM     15  C   UNL     1      34.507 -16.791 -24.968  0.00  0.00    +0.002 C 
ATOM     16  C   UNL     1      34.125 -15.524 -24.522  0.00  0.00    +0.007 C 
ATOM     17  C   UNL     1      34.063 -14.403 -20.816  0.00  0.00    +0.035 C 
ENDBRANCH   3  10
ENDBRANCH   1   2
BRANCH   1  18
ATOM     18  C   UNL     1      36.023 -22.057 -18.004  0.00  0.00    -0.019 C 
BRANCH  18  19
ATOM     19  C   UNL     1      37.075 -22.365 -16.939  0.00  0.00    +0.045 C 
BRANCH  19  20
ATOM     20  C   UNL     1      36.437 -22.652 -15.586  0.00  0.00    +0.205 C 
BRANCH  20  21
ATOM     21  O   UNL     1      35.781 -23.912 -15.621  0.00  0.00    -0.475 OA
BRANCH  21  24
ATOM     22  O   UNL     1      28.879 -22.731 -16.878  0.00  0.00    -0.270 OA
ATOM     23  N   UNL     1      31.117 -23.105 -16.487  0.00  0.00    -0.280 N 
ATOM     24  C   UNL     1      34.475 -23.941 -15.205  0.00  0.00    +0.140 C 
ATOM     25  C   UNL     1      33.472 -23.507 -16.063  0.00  0.00    +0.052 C 
ATOM     26  C   UNL     1      32.144 -23.541 -15.631  0.00  0.00    +0.054 C 
ATOM     27  C   UNL     1      34.171 -24.406 -13.930  0.00  0.00    +0.037 C 
ATOM     28  C   UNL     1      31.822 -24.005 -14.351  0.00  0.00    +0.014 C 
ATOM     29  C   UNL     1      32.842 -24.439 -13.499  0.00  0.00    +0.004 C 
ATOM     30  C   UNL     1      30.421 -24.025 -13.938  0.00  0.00    +0.006 C 
ATOM     31  C   UNL     1      29.782 -23.109 -16.134  0.00  0.00    +0.250 C 
ATOM     32  C   UNL     1      29.459 -23.606 -14.769  0.00  0.00    +0.058 C 
ATOM     33  H   UNL     1      31.362 -22.781 -17.385  0.00  0.00    +0.155 HD
ENDBRANCH  21  24
ENDBRANCH  20  21
ENDBRANCH  19  20
ENDBRANCH  18  19
ENDBRANCH   1  18
TORSDOF 7
ENDMDL
MODEL 2
REMARK VINA RESULT:     -11.3      3.929     10.320
REMARK  Name = 11978813
REMARK  7 active torsions:
REMARK  status: ('A' for Active; 'I' for Inactive)
REMARK    1  A    between atoms: C_1  and  N_2
REMARK    2  A    between atoms: C_1  and  C_18
REMARK    3  A    between atoms: N_3  and  C_10
REMARK    4  A    between atoms: C_18  and  C_19
REMARK    5  A    between atoms: C_19  and  C_20
REMARK    6  A    between atoms: C_20  and  O_21
REMARK    7  A    between atoms: O_21  and  C_24
REMARK                            x       y       z     vdW  Elec       q    Type
REMARK                         _______ _______ _______ _____ _____    ______ ____
ROOT
ATOM      1  C   UNL     1      36.637 -21.855 -18.332  0.00  0.00    -0.077 C 
ENDROOT
BRANCH   1   2
ATOM      2  N   UNL     1      35.782 -22.792 -17.605  0.00  0.00    +0.389 N 
ATOM      3  N   UNL     1      33.620 -23.575 -15.910  0.00  0.00    -0.312 N 
ATOM      4  C   UNL     1      35.836 -22.526 -16.163  0.00  0.00    -0.055 C 
ATOM      5  C   UNL     1      34.396 -22.700 -18.079  0.00  0.00    -0.055 C 
ATOM      6  C   UNL     1      34.990 -23.538 -15.386  0.00  0.00    +0.068 C 
ATOM      7  C   UNL     1      33.501 -23.716 -17.365  0.00  0.00    +0.068 C 
ATOM      8  H   UNL     1      36.127 -23.737 -17.779  0.00  0.00    -0.080 HD
BRANCH   3  10
ATOM      9  S   UNL     1      28.669 -23.893 -14.919  0.00  0.00    -0.086 S 
ATOM     10  C   UNL     1      32.610 -24.075 -15.080  0.00  0.00    +0.048 C 
ATOM     11  C   UNL     1      31.223 -23.808 -15.317  0.00  0.00    +0.020 C 
ATOM     12  C   UNL     1      32.957 -24.871 -13.967  0.00  0.00    +0.015 C 
ATOM     13  C   UNL     1      30.266 -24.339 -14.446  0.00  0.00    +0.031 C 
ATOM     14  C   UNL     1      30.605 -23.040 -16.360  0.00  0.00    +0.009 C 
ATOM     15  C   UNL     1      31.989 -25.388 -13.116  0.00  0.00    +0.002 C 
ATOM     16  C   UNL     1      30.635 -25.131 -13.341  0.00  0.00    +0.007 C 
ATOM     17  C   UNL     1      29.235 -23.007 -16.260  0.00  0.00    +0.035 C 
ENDBRANCH   3  10
ENDBRANCH   1   2
BRANCH   1  18
ATOM     18  C   UNL     1      35.907 -21.314 -19.561  0.00  0.00    -0.019 C 
BRANCH  18  19
ATOM     19  C   UNL     1      36.767 -20.298 -20.311  0.00  0.00    +0.045 C 
BRANCH  19  20
ATOM     20  C   UNL     1      35.919 -19.376 -21.178  0.00  0.00    +0.205 C 
BRANCH  20  21
ATOM     21  O   UNL     1      35.741 -18.128 -20.523  0.00  0.00    -0.475 OA
BRANCH  21  24
ATOM     22  O   UNL     1      33.851 -15.289 -26.767  0.00  0.00    -0.270 OA
ATOM     23  N   UNL     1      34.472 -16.221 -24.755  0.00  0.00    -0.280 N 
ATOM     24  C   UNL     1      35.122 -17.136 -21.239  0.00  0.00    +0.140 C 
ATOM     25  C   UNL     1      35.119 -17.193 -22.628  0.00  0.00    +0.052 C 
ATOM     26  C   UNL     1      34.485 -16.178 -23.349  0.00  0.00    +0.054 C 
ATOM     27  C   UNL     1      34.505 -16.086 -20.567  0.00  0.00    +0.037 C 
ATOM     28  C   UNL     1      33.861 -15.115 -22.688  0.00  0.00    +0.014 C 
ATOM     29  C   UNL     1      33.872 -15.073 -21.290  0.00  0.00    +0.004 C 
ATOM     30  C   UNL     1      33.209 -14.075 -23.479  0.00  0.00    +0.006 C 
ATOM     31  C   UNL     1      33.867 -15.258 -25.538  0.00  0.00    +0.250 C 
ATOM     32  C   UNL     1      33.209 -14.136 -24.816  0.00  0.00    +0.058 C 
ATOM     33  H   UNL     1      34.918 -16.976 -25.204  0.00  0.00    +0.155 HD
ENDBRANCH  21  24
ENDBRANCH  20  21
ENDBRANCH  19  20
ENDBRANCH  18  19
ENDBRANCH   1  18
TORSDOF 7
ENDMDL
MODEL 3
REMARK VINA RESULT:     -11.3      3.197      5.921
REMARK  Name = 11978813
REMARK  7 active torsions:
REMARK  status: ('A' for Active; 'I' for Inactive)
REMARK    1  A    between atoms: C_1  and  N_2
REMARK    2  A    between atoms: C_1  and  C_18
REMARK    3  A    between atoms: N_3  and  C_10
REMARK    4  A    between atoms: C_18  and  C_19
REMARK    5  A    between atoms: C_19  and  C_20
REMARK    6  A    between atoms: C_20  and  O_21
REMARK    7  A    between atoms: O_21  and  C_24
REMARK                            x       y       z     vdW  Elec       q    Type
REMARK                         _______ _______ _______ _____ _____    ______ ____
ROOT
ATOM      1  C   UNL     1      34.983 -16.553 -23.875  0.00  0.00    -0.077 C 
ENDROOT
BRANCH   1   2
ATOM      2  N   UNL     1      34.014 -15.778 -23.102  0.00  0.00    +0.389 N 
ATOM      3  N   UNL     1      32.995 -13.473 -21.756  0.00  0.00    -0.312 N 
ATOM      4  C   UNL     1      34.601 -15.341 -21.829  0.00  0.00    -0.055 C 
ATOM      5  C   UNL     1      33.557 -14.612 -23.867  0.00  0.00    -0.055 C 
ATOM      6  C   UNL     1      33.577 -14.578 -20.985  0.00  0.00    +0.068 C 
ATOM      7  C   UNL     1      32.500 -13.823 -23.091  0.00  0.00    +0.068 C 
ATOM      8  H   UNL     1      33.211 -16.377 -22.906  0.00  0.00    -0.080 HD
BRANCH   3  10
ATOM      9  S   UNL     1      31.780  -8.564 -21.636  0.00  0.00    -0.086 S 
ATOM     10  C   UNL     1      32.404 -12.418 -21.051  0.00  0.00    +0.048 C 
ATOM     11  C   UNL     1      32.345 -11.086 -21.575  0.00  0.00    +0.020 C 
ATOM     12  C   UNL     1      31.844 -12.661 -19.778  0.00  0.00    +0.015 C 
ATOM     13  C   UNL     1      31.739 -10.079 -20.816  0.00  0.00    +0.031 C 
ATOM     14  C   UNL     1      32.830 -10.573 -22.824  0.00  0.00    +0.009 C 
ATOM     15  C   UNL     1      31.249 -11.646 -19.042  0.00  0.00    +0.002 C 
ATOM     16  C   UNL     1      31.187 -10.345 -19.547  0.00  0.00    +0.007 C 
ATOM     17  C   UNL     1      32.589  -9.230 -22.980  0.00  0.00    +0.035 C 
ENDBRANCH   3  10
ENDBRANCH   1   2
BRANCH   1  18
ATOM     18  C   UNL     1      34.736 -18.049 -23.689  0.00  0.00    -0.019 C 
BRANCH  18  19
ATOM     19  C   UNL     1      35.853 -18.696 -22.873  0.00  0.00    +0.045 C 
BRANCH  19  20
ATOM     20  C   UNL     1      35.411 -18.982 -21.444  0.00  0.00    +0.205 C 
BRANCH  20  21
ATOM     21  O   UNL     1      34.599 -20.148 -21.415  0.00  0.00    -0.475 OA
BRANCH  21  24
ATOM     22  O   UNL     1      31.324 -23.740 -16.220  0.00  0.00    -0.270 OA
ATOM     23  N   UNL     1      32.367 -22.572 -17.907  0.00  0.00    -0.280 N 
ATOM     24  C   UNL     1      34.657 -20.915 -20.280  0.00  0.00    +0.140 C 
ATOM     25  C   UNL     1      33.480 -21.345 -19.681  0.00  0.00    +0.052 C 
ATOM     26  C   UNL     1      33.550 -22.127 -18.525  0.00  0.00    +0.054 C 
ATOM     27  C   UNL     1      35.895 -21.252 -19.743  0.00  0.00    +0.037 C 
ATOM     28  C   UNL     1      34.788 -22.475 -17.973  0.00  0.00    +0.014 C 
ATOM     29  C   UNL     1      35.963 -22.034 -18.587  0.00  0.00    +0.004 C 
ATOM     30  C   UNL     1      34.817 -23.294 -16.764  0.00  0.00    +0.006 C 
ATOM     31  C   UNL     1      32.354 -23.347 -16.765  0.00  0.00    +0.250 C 
ATOM     32  C   UNL     1      33.679 -23.706 -16.192  0.00  0.00    +0.058 C 
ATOM     33  H   UNL     1      31.505 -22.317 -18.309  0.00  0.00    +0.155 HD
ENDBRANCH  21  24
ENDBRANCH  20  21
ENDBRANCH  19  20
ENDBRANCH  18  19
ENDBRANCH   1  18
TORSDOF 7
ENDMDL
MODEL 4
REMARK VINA RESULT:     -11.3      7.066     11.266
REMARK  Name = 11978813
REMARK  7 active torsions:
REMARK  status: ('A' for Active; 'I' for Inactive)
REMARK    1  A    between atoms: C_1  and  N_2
REMARK    2  A    between atoms: C_1  and  C_18
REMARK    3  A    between atoms: N_3  and  C_10
REMARK    4  A    between atoms: C_18  and  C_19
REMARK    5  A    between atoms: C_19  and  C_20
REMARK    6  A    between atoms: C_20  and  O_21
REMARK    7  A    between atoms: O_21  and  C_24
REMARK                            x       y       z     vdW  Elec       q    Type
REMARK                         _______ _______ _______ _____ _____    ______ ____
ROOT
ATOM      1  C   UNL     1      31.585 -10.463 -19.593  0.00  0.00    -0.077 C 
ENDROOT
BRANCH   1   2
ATOM      2  N   UNL     1      32.259  -9.654 -20.607  0.00  0.00    +0.389 N 
ATOM      3  N   UNL     1      32.539  -7.501 -22.464  0.00  0.00    -0.312 N 
ATOM      4  C   UNL     1      31.488  -9.646 -21.856  0.00  0.00    -0.055 C 
ATOM      5  C   UNL     1      32.448  -8.280 -20.128  0.00  0.00    -0.055 C 
ATOM      6  C   UNL     1      32.212  -8.850 -22.944  0.00  0.00    +0.068 C 
ATOM      7  C   UNL     1      33.204  -7.437 -21.158  0.00  0.00    +0.068 C 
ATOM      8  H   UNL     1      33.174 -10.069 -20.787  0.00  0.00    -0.080 HD
BRANCH   3  10
ATOM      9  S   UNL     1      31.372  -2.907 -24.231  0.00  0.00    -0.086 S 
ATOM     10  C   UNL     1      32.781  -6.505 -23.416  0.00  0.00    +0.048 C 
ATOM     11  C   UNL     1      32.061  -5.266 -23.426  0.00  0.00    +0.020 C 
ATOM     12  C   UNL     1      33.765  -6.714 -24.406  0.00  0.00    +0.015 C 
ATOM     13  C   UNL     1      32.353  -4.314 -24.408  0.00  0.00    +0.031 C 
ATOM     14  C   UNL     1      31.024  -4.804 -22.548  0.00  0.00    +0.009 C 
ATOM     15  C   UNL     1      34.038  -5.754 -25.371  0.00  0.00    +0.002 C 
ATOM     16  C   UNL     1      33.340  -4.544 -25.387  0.00  0.00    +0.007 C 
ATOM     17  C   UNL     1      30.568  -3.550 -22.873  0.00  0.00    +0.035 C 
ENDBRANCH   3  10
ENDBRANCH   1   2
BRANCH   1  18
ATOM     18  C   UNL     1      30.920 -11.679 -20.238  0.00  0.00    -0.019 C 
BRANCH  18  19
ATOM     19  C   UNL     1      31.864 -12.880 -20.255  0.00  0.00    +0.045 C 
BRANCH  19  20
ATOM     20  C   UNL     1      32.387 -13.163 -21.657  0.00  0.00    +0.205 C 
BRANCH  20  21
ATOM     21  O   UNL     1      33.776 -13.458 -21.603  0.00  0.00    -0.475 OA
BRANCH  21  24
ATOM     22  O   UNL     1      36.025 -20.087 -20.329  0.00  0.00    -0.270 OA
ATOM     23  N   UNL     1      35.299 -17.937 -20.724  0.00  0.00    -0.280 N 
ATOM     24  C   UNL     1      34.165 -14.690 -22.062  0.00  0.00    +0.140 C 
ATOM     25  C   UNL     1      34.532 -15.676 -21.153  0.00  0.00    +0.052 C 
ATOM     26  C   UNL     1      34.925 -16.929 -21.630  0.00  0.00    +0.054 C 
ATOM     27  C   UNL     1      34.188 -14.937 -23.430  0.00  0.00    +0.037 C 
ATOM     28  C   UNL     1      34.954 -17.193 -23.003  0.00  0.00    +0.014 C 
ATOM     29  C   UNL     1      34.582 -16.191 -23.905  0.00  0.00    +0.004 C 
ATOM     30  C   UNL     1      35.371 -18.516 -23.460  0.00  0.00    +0.006 C 
ATOM     31  C   UNL     1      35.698 -19.200 -21.115  0.00  0.00    +0.250 C 
ATOM     32  C   UNL     1      35.722 -19.462 -22.580  0.00  0.00    +0.058 C 
ATOM     33  H   UNL     1      35.274 -17.733 -19.760  0.00  0.00    +0.155 HD
ENDBRANCH  21  24
ENDBRANCH  20  21
ENDBRANCH  19  20
ENDBRANCH  18  19
ENDBRANCH   1  18
TORSDOF 7
ENDMDL
MODEL 5
REMARK VINA RESULT:     -11.2      7.802     12.178
REMARK  Name = 11978813
REMARK  7 active torsions:
REMARK  status: ('A' for Active; 'I' for Inactive)
REMARK    1  A    between atoms: C_1  and  N_2
REMARK    2  A    between atoms: C_1  and  C_18
REMARK    3  A    between atoms: N_3  and  C_10
REMARK    4  A    between atoms: C_18  and  C_19
REMARK    5  A    between atoms: C_19  and  C_20
REMARK    6  A    between atoms: C_20  and  O_21
REMARK    7  A    between atoms: O_21  and  C_24
REMARK                            x       y       z     vdW  Elec       q    Type
REMARK                         _______ _______ _______ _____ _____    ______ ____
ROOT
ATOM      1  C   UNL     1      32.489  -9.789 -19.633  0.00  0.00    -0.077 C 
ENDROOT
BRANCH   1   2
ATOM      2  N   UNL     1      31.937  -8.670 -20.394  0.00  0.00    +0.389 N 
ATOM      3  N   UNL     1      31.987  -6.512 -22.266  0.00  0.00    -0.312 N 
ATOM      4  C   UNL     1      32.654  -7.429 -20.077  0.00  0.00    -0.055 C 
ATOM      5  C   UNL     1      32.016  -8.938 -21.835  0.00  0.00    -0.055 C 
ATOM      6  C   UNL     1      32.048  -6.238 -20.825  0.00  0.00    +0.068 C 
ATOM      7  C   UNL     1      31.390  -7.798 -22.642  0.00  0.00    +0.068 C 
ATOM      8  H   UNL     1      30.957  -8.560 -20.133  0.00  0.00    -0.080 HD
BRANCH   3  10
ATOM      9  S   UNL     1      33.862  -4.102 -26.299  0.00  0.00    -0.086 S 
ATOM     10  C   UNL     1      31.896  -5.423 -23.139  0.00  0.00    +0.048 C 
ATOM     11  C   UNL     1      32.809  -5.237 -24.228  0.00  0.00    +0.020 C 
ATOM     12  C   UNL     1      30.875  -4.466 -22.953  0.00  0.00    +0.015 C 
ATOM     13  C   UNL     1      32.661  -4.125 -25.062  0.00  0.00    +0.031 C 
ATOM     14  C   UNL     1      33.921  -6.047 -24.636  0.00  0.00    +0.009 C 
ATOM     15  C   UNL     1      30.748  -3.369 -23.795  0.00  0.00    +0.002 C 
ATOM     16  C   UNL     1      31.634  -3.182 -24.858  0.00  0.00    +0.007 C 
ATOM     17  C   UNL     1      34.572  -5.547 -25.738  0.00  0.00    +0.035 C 
ENDBRANCH   3  10
ENDBRANCH   1   2
BRANCH   1  18
ATOM     18  C   UNL     1      31.407 -10.420 -18.756  0.00  0.00    -0.019 C 
BRANCH  18  19
ATOM     19  C   UNL     1      30.633 -11.492 -19.521  0.00  0.00    +0.045 C 
BRANCH  19  20
ATOM     20  C   UNL     1      31.512 -12.197 -20.546  0.00  0.00    +0.205 C 
BRANCH  20  21
ATOM     21  O   UNL     1      32.215 -13.265 -19.925  0.00  0.00    -0.475 OA
BRANCH  21  24
ATOM     22  O   UNL     1      33.855 -15.532 -26.466  0.00  0.00    -0.270 OA
ATOM     23  N   UNL     1      33.311 -14.787 -24.357  0.00  0.00    -0.280 N 
ATOM     24  C   UNL     1      32.907 -14.112 -20.751  0.00  0.00    +0.140 C 
ATOM     25  C   UNL     1      32.749 -14.010 -22.127  0.00  0.00    +0.052 C 
ATOM     26  C   UNL     1      33.460 -14.878 -22.961  0.00  0.00    +0.054 C 
ATOM     27  C   UNL     1      33.759 -15.063 -20.199  0.00  0.00    +0.037 C 
ATOM     28  C   UNL     1      34.321 -15.840 -22.422  0.00  0.00    +0.014 C 
ATOM     29  C   UNL     1      34.469 -15.930 -21.034  0.00  0.00    +0.004 C 
ATOM     30  C   UNL     1      35.046 -16.727 -23.328  0.00  0.00    +0.006 C 
ATOM     31  C   UNL     1      33.979 -15.606 -25.246  0.00  0.00    +0.250 C 
ATOM     32  C   UNL     1      34.890 -16.623 -24.653  0.00  0.00    +0.058 C 
ATOM     33  H   UNL     1      32.700 -14.104 -24.719  0.00  0.00    +0.155 HD
ENDBRANCH  21  24
ENDBRANCH  20  21
ENDBRANCH  19  20
ENDBRANCH  18  19
ENDBRANCH   1  18
TORSDOF 7
ENDMDL
MODEL 6
REMARK VINA RESULT:     -11.1      3.948     10.088
REMARK  Name = 11978813
REMARK  7 active torsions:
REMARK  status: ('A' for Active; 'I' for Inactive)
REMARK    1  A    between atoms: C_1  and  N_2
REMARK    2  A    between atoms: C_1  and  C_18
REMARK    3  A    between atoms: N_3  and  C_10
REMARK    4  A    between atoms: C_18  and  C_19
REMARK    5  A    between atoms: C_19  and  C_20
REMARK    6  A    between atoms: C_20  and  O_21
REMARK    7  A    between atoms: O_21  and  C_24
REMARK                            x       y       z     vdW  Elec       q    Type
REMARK                         _______ _______ _______ _____ _____    ______ ____
ROOT
ATOM      1  C   UNL     1      35.990 -21.039 -20.097  0.00  0.00    -0.077 C 
ENDROOT
BRANCH   1   2
ATOM      2  N   UNL     1      35.583 -22.066 -19.140  0.00  0.00    +0.389 N 
ATOM      3  N   UNL     1      34.387 -23.079 -16.752  0.00  0.00    -0.312 N 
ATOM      4  C   UNL     1      36.218 -21.838 -17.837  0.00  0.00    -0.055 C 
ATOM      5  C   UNL     1      34.123 -22.080 -18.988  0.00  0.00    -0.055 C 
ATOM      6  C   UNL     1      35.845 -22.940 -16.843  0.00  0.00    +0.068 C 
ATOM      7  C   UNL     1      33.679 -23.189 -18.032  0.00  0.00    +0.068 C 
ATOM      8  H   UNL     1      35.885 -22.972 -19.499  0.00  0.00    -0.080 HD
BRANCH   3  10
ATOM      9  S   UNL     1      30.260 -24.309 -14.097  0.00  0.00    -0.086 S 
ATOM     10  C   UNL     1      33.854 -23.687 -15.610  0.00  0.00    +0.048 C 
ATOM     11  C   UNL     1      32.444 -23.739 -15.358  0.00  0.00    +0.020 C 
ATOM     12  C   UNL     1      34.724 -24.274 -14.665  0.00  0.00    +0.015 C 
ATOM     13  C   UNL     1      31.980 -24.363 -14.195  0.00  0.00    +0.031 C 
ATOM     14  C   UNL     1      31.357 -23.229 -16.142  0.00  0.00    +0.009 C 
ATOM     15  C   UNL     1      34.239 -24.887 -13.517  0.00  0.00    +0.002 C 
ATOM     16  C   UNL     1      32.867 -24.941 -13.265  0.00  0.00    +0.007 C 
ATOM     17  C   UNL     1      30.129 -23.470 -15.575  0.00  0.00    +0.035 C 
ENDBRANCH   3  10
ENDBRANCH   1   2
BRANCH   1  18
ATOM     18  C   UNL     1      34.764 -20.317 -20.656  0.00  0.00    -0.019 C 
BRANCH  18  19
ATOM     19  C   UNL     1      35.070 -19.678 -22.010  0.00  0.00    +0.045 C 
BRANCH  19  20
ATOM     20  C   UNL     1      35.900 -18.411 -21.858  0.00  0.00    +0.205 C 
BRANCH  20  21
ATOM     21  O   UNL     1      35.328 -17.577 -20.859  0.00  0.00    -0.475 OA
BRANCH  21  24
ATOM     22  O   UNL     1      31.090 -11.999 -19.614  0.00  0.00    -0.270 OA
ATOM     23  N   UNL     1      32.457 -13.811 -20.001  0.00  0.00    -0.280 N 
ATOM     24  C   UNL     1      34.725 -16.422 -21.288  0.00  0.00    +0.140 C 
ATOM     25  C   UNL     1      33.901 -15.715 -20.420  0.00  0.00    +0.052 C 
ATOM     26  C   UNL     1      33.293 -14.539 -20.866  0.00  0.00    +0.054 C 
ATOM     27  C   UNL     1      34.946 -15.975 -22.586  0.00  0.00    +0.037 C 
ATOM     28  C   UNL     1      33.505 -14.076 -22.169  0.00  0.00    +0.014 C 
ATOM     29  C   UNL     1      34.336 -14.799 -23.030  0.00  0.00    +0.004 C 
ATOM     30  C   UNL     1      32.850 -12.842 -22.596  0.00  0.00    +0.006 C 
ATOM     31  C   UNL     1      31.821 -12.641 -20.366  0.00  0.00    +0.250 C 
ATOM     32  C   UNL     1      32.058 -12.164 -21.755  0.00  0.00    +0.058 C 
ATOM     33  H   UNL     1      32.318 -14.153 -19.087  0.00  0.00    +0.155 HD
ENDBRANCH  21  24
ENDBRANCH  20  21
ENDBRANCH  19  20
ENDBRANCH  18  19
ENDBRANCH   1  18
TORSDOF 7
ENDMDL
MODEL 7
REMARK VINA RESULT:     -11.1      4.500     10.808
REMARK  Name = 11978813
REMARK  7 active torsions:
REMARK  status: ('A' for Active; 'I' for Inactive)
REMARK    1  A    between atoms: C_1  and  N_2
REMARK    2  A    between atoms: C_1  and  C_18
REMARK    3  A    between atoms: N_3  and  C_10
REMARK    4  A    between atoms: C_18  and  C_19
REMARK    5  A    between atoms: C_19  and  C_20
REMARK    6  A    between atoms: C_20  and  O_21
REMARK    7  A    between atoms: O_21  and  C_24
REMARK                            x       y       z     vdW  Elec       q    Type
REMARK                         _______ _______ _______ _____ _____    ______ ____
ROOT
ATOM      1  C   UNL     1      34.939 -21.870 -19.427  0.00  0.00    -0.077 C 
ENDROOT
BRANCH   1   2
ATOM      2  N   UNL     1      34.995 -22.089 -17.983  0.00  0.00    +0.389 N 
ATOM      3  N   UNL     1      35.554 -23.535 -15.584  0.00  0.00    -0.312 N 
ATOM      4  C   UNL     1      34.174 -23.245 -17.605  0.00  0.00    -0.055 C 
ATOM      5  C   UNL     1      36.381 -22.296 -17.546  0.00  0.00    -0.055 C 
ATOM      6  C   UNL     1      34.178 -23.449 -16.088  0.00  0.00    +0.068 C 
ATOM      7  C   UNL     1      36.460 -22.470 -16.028  0.00  0.00    +0.068 C 
ATOM      8  H   UNL     1      34.625 -21.257 -17.521  0.00  0.00    -0.080 HD
BRANCH   3  10
ATOM      9  S   UNL     1      38.713 -26.076 -12.558  0.00  0.00    -0.086 S 
ATOM     10  C   UNL     1      35.764 -24.153 -14.346  0.00  0.00    +0.048 C 
ATOM     11  C   UNL     1      37.005 -24.783 -14.006  0.00  0.00    +0.020 C 
ATOM     12  C   UNL     1      34.725 -24.163 -13.389  0.00  0.00    +0.015 C 
ATOM     13  C   UNL     1      37.146 -25.383 -12.751  0.00  0.00    +0.031 C 
ATOM     14  C   UNL     1      38.205 -24.915 -14.781  0.00  0.00    +0.009 C 
ATOM     15  C   UNL     1      34.889 -24.765 -12.149  0.00  0.00    +0.002 C 
ATOM     16  C   UNL     1      36.096 -25.382 -11.812  0.00  0.00    +0.007 C 
ATOM     17  C   UNL     1      39.200 -25.590 -14.117  0.00  0.00    +0.035 C 
ENDBRANCH   3  10
ENDBRANCH   1   2
BRANCH   1  18
ATOM     18  C   UNL     1      33.636 -21.167 -19.808  0.00  0.00    -0.019 C 
BRANCH  18  19
ATOM     19  C   UNL     1      33.891 -20.030 -20.797  0.00  0.00    +0.045 C 
BRANCH  19  20
ATOM     20  C   UNL     1      35.379 -19.821 -21.042  0.00  0.00    +0.205 C 
BRANCH  20  21
ATOM     21  O   UNL     1      35.759 -18.519 -20.618  0.00  0.00    -0.475 OA
BRANCH  21  24
ATOM     22  O   UNL     1      33.877 -15.333 -26.695  0.00  0.00    -0.270 OA
ATOM     23  N   UNL     1      34.495 -16.377 -24.738  0.00  0.00    -0.280 N 
ATOM     24  C   UNL     1      35.187 -17.462 -21.279  0.00  0.00    +0.140 C 
ATOM     25  C   UNL     1      35.139 -17.467 -22.668  0.00  0.00    +0.052 C 
ATOM     26  C   UNL     1      34.553 -16.387 -23.332  0.00  0.00    +0.054 C 
ATOM     27  C   UNL     1      34.664 -16.400 -20.551  0.00  0.00    +0.037 C 
ATOM     28  C   UNL     1      34.022 -15.310 -22.614  0.00  0.00    +0.014 C 
ATOM     29  C   UNL     1      34.078 -15.320 -21.217  0.00  0.00    +0.004 C 
ATOM     30  C   UNL     1      33.418 -14.200 -23.347  0.00  0.00    +0.006 C 
ATOM     31  C   UNL     1      33.933 -15.347 -25.467  0.00  0.00    +0.250 C 
ATOM     32  C   UNL     1      33.373 -14.211 -24.685  0.00  0.00    +0.058 C 
ATOM     33  H   UNL     1      34.875 -17.143 -25.227  0.00  0.00    +0.155 HD
ENDBRANCH  21  24
ENDBRANCH  20  21
ENDBRANCH  19  20
ENDBRANCH  18  19
ENDBRANCH   1  18
TORSDOF 7
ENDMDL
MODEL 8
REMARK VINA RESULT:     -11.0      7.419     11.654
REMARK  Name = 11978813
REMARK  7 active torsions:
REMARK  status: ('A' for Active; 'I' for Inactive)
REMARK    1  A    between atoms: C_1  and  N_2
REMARK    2  A    between atoms: C_1  and  C_18
REMARK    3  A    between atoms: N_3  and  C_10
REMARK    4  A    between atoms: C_18  and  C_19
REMARK    5  A    between atoms: C_19  and  C_20
REMARK    6  A    between atoms: C_20  and  O_21
REMARK    7  A    between atoms: O_21  and  C_24
REMARK                            x       y       z     vdW  Elec       q    Type
REMARK                         _______ _______ _______ _____ _____    ______ ____
ROOT
ATOM      1  C   UNL     1      32.138 -10.252 -20.204  0.00  0.00    -0.077 C 
ENDROOT
BRANCH   1   2
ATOM      2  N   UNL     1      31.666  -9.014 -20.822  0.00  0.00    +0.389 N 
ATOM      3  N   UNL     1      31.821  -6.723 -22.521  0.00  0.00    -0.312 N 
ATOM      4  C   UNL     1      32.554  -7.897 -20.482  0.00  0.00    -0.055 C 
ATOM      5  C   UNL     1      31.587  -9.164 -22.280  0.00  0.00    -0.055 C 
ATOM      6  C   UNL     1      32.038  -6.584 -21.076  0.00  0.00    +0.068 C 
ATOM      7  C   UNL     1      31.040  -7.893 -22.936  0.00  0.00    +0.068 C 
ATOM      8  H   UNL     1      30.732  -8.815 -20.461  0.00  0.00    -0.080 HD
BRANCH   3  10
ATOM      9  S   UNL     1      33.949  -3.989 -26.207  0.00  0.00    -0.086 S 
ATOM     10  C   UNL     1      31.791  -5.559 -23.297  0.00  0.00    +0.048 C 
ATOM     11  C   UNL     1      32.767  -5.290 -24.311  0.00  0.00    +0.020 C 
ATOM     12  C   UNL     1      30.768  -4.608 -23.085  0.00  0.00    +0.015 C 
ATOM     13  C   UNL     1      32.677  -4.105 -25.049  0.00  0.00    +0.031 C 
ATOM     14  C   UNL     1      33.894  -6.075 -24.725  0.00  0.00    +0.009 C 
ATOM     15  C   UNL     1      30.700  -3.439 -23.830  0.00  0.00    +0.002 C 
ATOM     16  C   UNL     1      31.648  -3.170 -24.820  0.00  0.00    +0.007 C 
ATOM     17  C   UNL     1      34.612  -5.488 -25.739  0.00  0.00    +0.035 C 
ENDBRANCH   3  10
ENDBRANCH   1   2
BRANCH   1  18
ATOM     18  C   UNL     1      31.106 -11.364 -20.385  0.00  0.00    -0.019 C 
BRANCH  18  19
ATOM     19  C   UNL     1      31.769 -12.740 -20.375  0.00  0.00    +0.045 C 
BRANCH  19  20
ATOM     20  C   UNL     1      32.223 -13.155 -21.768  0.00  0.00    +0.205 C 
BRANCH  20  21
ATOM     21  O   UNL     1      33.627 -13.375 -21.772  0.00  0.00    -0.475 OA
BRANCH  21  24
ATOM     22  O   UNL     1      35.936 -19.938 -20.286  0.00  0.00    -0.270 OA
ATOM     23  N   UNL     1      35.190 -17.810 -20.749  0.00  0.00    -0.280 N 
ATOM     24  C   UNL     1      34.060 -14.606 -22.191  0.00  0.00    +0.140 C 
ATOM     25  C   UNL     1      34.402 -15.570 -21.251  0.00  0.00    +0.052 C 
ATOM     26  C   UNL     1      34.840 -16.823 -21.688  0.00  0.00    +0.054 C 
ATOM     27  C   UNL     1      34.150 -14.875 -23.553  0.00  0.00    +0.037 C 
ATOM     28  C   UNL     1      34.937 -17.108 -23.054  0.00  0.00    +0.014 C 
ATOM     29  C   UNL     1      34.588 -16.128 -23.988  0.00  0.00    +0.004 C 
ATOM     30  C   UNL     1      35.399 -18.430 -23.469  0.00  0.00    +0.006 C 
ATOM     31  C   UNL     1      35.630 -19.070 -21.101  0.00  0.00    +0.250 C 
ATOM     32  C   UNL     1      35.726 -19.355 -22.558  0.00  0.00    +0.058 C 
ATOM     33  H   UNL     1      35.117 -17.591 -19.791  0.00  0.00    +0.155 HD
ENDBRANCH  21  24
ENDBRANCH  20  21
ENDBRANCH  19  20
ENDBRANCH  18  19
ENDBRANCH   1  18
TORSDOF 7
ENDMDL
MODEL 9
REMARK VINA RESULT:     -10.9      2.283      4.109
REMARK  Name = 11978813
REMARK  7 active torsions:
REMARK  status: ('A' for Active; 'I' for Inactive)
REMARK    1  A    between atoms: C_1  and  N_2
REMARK    2  A    between atoms: C_1  and  C_18
REMARK    3  A    between atoms: N_3  and  C_10
REMARK    4  A    between atoms: C_18  and  C_19
REMARK    5  A    between atoms: C_19  and  C_20
REMARK    6  A    between atoms: C_20  and  O_21
REMARK    7  A    between atoms: O_21  and  C_24
REMARK                            x       y       z     vdW  Elec       q    Type
REMARK                         _______ _______ _______ _____ _____    ______ ____
ROOT
ATOM      1  C   UNL     1      36.300 -21.629 -19.058  0.00  0.00    -0.077 C 
ENDROOT
BRANCH   1   2
ATOM      2  N   UNL     1      36.091 -20.851 -20.278  0.00  0.00    +0.389 N 
ATOM      3  N   UNL     1      35.329 -18.569 -21.817  0.00  0.00    -0.312 N 
ATOM      4  C   UNL     1      34.675 -20.494 -20.424  0.00  0.00    -0.055 C 
ATOM      5  C   UNL     1      36.913 -19.636 -20.262  0.00  0.00    -0.055 C 
ATOM      6  C   UNL     1      34.433 -19.728 -21.727  0.00  0.00    +0.068 C 
ATOM      7  C   UNL     1      36.746 -18.840 -21.559  0.00  0.00    +0.068 C 
ATOM      8  H   UNL     1      36.369 -21.427 -21.073  0.00  0.00    -0.080 HD
BRANCH   3  10
ATOM      9  S   UNL     1      33.839 -13.758 -22.298  0.00  0.00    -0.086 S 
ATOM     10  C   UNL     1      34.968 -17.523 -22.674  0.00  0.00    +0.048 C 
ATOM     11  C   UNL     1      34.597 -16.228 -22.187  0.00  0.00    +0.020 C 
ATOM     12  C   UNL     1      34.964 -17.739 -24.070  0.00  0.00    +0.015 C 
ATOM     13  C   UNL     1      34.246 -15.228 -23.101  0.00  0.00    +0.031 C 
ATOM     14  C   UNL     1      34.518 -15.747 -20.838  0.00  0.00    +0.009 C 
ATOM     15  C   UNL     1      34.612 -16.731 -24.957  0.00  0.00    +0.002 C 
ATOM     16  C   UNL     1      34.250 -15.466 -24.489  0.00  0.00    +0.007 C 
ATOM     17  C   UNL     1      34.121 -14.434 -20.759  0.00  0.00    +0.035 C 
ENDBRANCH   3  10
ENDBRANCH   1   2
BRANCH   1  18
ATOM     18  C   UNL     1      35.136 -22.594 -18.836  0.00  0.00    -0.019 C 
BRANCH  18  19
ATOM     19  C   UNL     1      34.722 -22.632 -17.366  0.00  0.00    +0.045 C 
BRANCH  19  20
ATOM     20  C   UNL     1      33.709 -23.737 -17.096  0.00  0.00    +0.205 C 
BRANCH  20  21
ATOM     21  O   UNL     1      33.324 -23.713 -15.728  0.00  0.00    -0.475 OA
BRANCH  21  24
ATOM     22  O   UNL     1      39.508 -26.937 -14.322  0.00  0.00    -0.270 OA
ATOM     23  N   UNL     1      37.510 -25.896 -14.795  0.00  0.00    -0.280 N 
ATOM     24  C   UNL     1      34.217 -24.229 -14.825  0.00  0.00    +0.140 C 
ATOM     25  C   UNL     1      35.401 -24.797 -15.280  0.00  0.00    +0.052 C 
ATOM     26  C   UNL     1      36.306 -25.319 -14.352  0.00  0.00    +0.054 C 
ATOM     27  C   UNL     1      33.926 -24.178 -13.466  0.00  0.00    +0.037 C 
ATOM     28  C   UNL     1      36.028 -25.275 -12.981  0.00  0.00    +0.014 C 
ATOM     29  C   UNL     1      34.832 -24.700 -12.540  0.00  0.00    +0.004 C 
ATOM     30  C   UNL     1      37.001 -25.831 -12.044  0.00  0.00    +0.006 C 
ATOM     31  C   UNL     1      38.454 -26.432 -13.942  0.00  0.00    +0.250 C 
ATOM     32  C   UNL     1      38.140 -26.376 -12.488  0.00  0.00    +0.058 C 
ATOM     33  H   UNL     1      37.689 -25.919 -15.764  0.00  0.00    +0.155 HD
ENDBRANCH  21  24
ENDBRANCH  20  21
ENDBRANCH  19  20
ENDBRANCH  18  19
ENDBRANCH   1  18
TORSDOF 7
ENDMDL
