MODEL 1
REMARK VINA RESULT:     -12.0      0.000      0.000
REMARK  Name = 204109
REMARK  5 active torsions:
REMARK  status: ('A' for Active; 'I' for Inactive)
REMARK    1  A    between atoms: C_1  and  C_20
REMARK    2  A    between atoms: C_9  and  O_11
REMARK    3  A    between atoms: O_11  and  C_12
REMARK    4  A    between atoms: C_12  and  C_14
REMARK    5  A    between atoms: C_20  and  C_25
REMARK                            x       y       z     vdW  Elec       q    Type
REMARK                         _______ _______ _______ _____ _____    ______ ____
ROOT
ATOM      1  C   UNL     1      33.928 -22.627 -18.403  0.00  0.00    -0.021 C 
ATOM      2  C   UNL     1      35.508 -21.201 -19.583  0.00  0.00    -0.000 C 
ATOM      3  C   UNL     1      35.240 -22.236 -18.672  0.00  0.00    -0.004 C 
ATOM      4  C   UNL     1      34.429 -20.553 -20.229  0.00  0.00    +0.003 C 
ATOM      5  C   UNL     1      32.867 -21.989 -19.039  0.00  0.00    -0.004 C 
ATOM      6  C   UNL     1      33.114 -20.958 -19.948  0.00  0.00    -0.000 C 
ATOM      7  C   UNL     1      34.696 -19.518 -21.140  0.00  0.00    +0.037 C 
ATOM      8  C   UNL     1      36.822 -20.795 -19.865  0.00  0.00    +0.003 C 
ATOM      9  C   UNL     1      36.009 -19.127 -21.409  0.00  0.00    +0.139 C 
ATOM     10  C   UNL     1      37.069 -19.765 -20.773  0.00  0.00    +0.037 C 
ENDROOT
BRANCH   9  11
ATOM     11  O   UNL     1      36.252 -18.122 -22.295  0.00  0.00    -0.471 OA
BRANCH  11  12
ATOM     12  C   UNL     1      35.208 -17.795 -23.209  0.00  0.00    +0.234 C 
BRANCH  12  14
ATOM     13  F   UNL     1      34.374 -16.165 -25.362  0.00  0.00    -0.204 F 
ATOM     14  C   UNL     1      34.727 -16.395 -23.025  0.00  0.00    +0.049 C 
ATOM     15  C   UNL     1      34.329 -15.642 -24.129  0.00  0.00    +0.140 C 
ATOM     16  C   UNL     1      34.677 -15.840 -21.747  0.00  0.00    +0.002 C 
ATOM     17  C   UNL     1      33.879 -14.332 -23.955  0.00  0.00    +0.029 C 
ATOM     18  C   UNL     1      34.228 -14.531 -21.572  0.00  0.00    -0.000 C 
ATOM     19  C   UNL     1      33.828 -13.777 -22.675  0.00  0.00    +0.002 C 
ENDBRANCH  12  14
ENDBRANCH  11  12
ENDBRANCH   9  11
BRANCH   1  20
ATOM     20  C   UNL     1      33.662 -23.728 -17.433  0.00  0.00    +0.047 C 
BRANCH  20  25
ATOM     21  S   UNL     1      34.049 -24.103 -14.725  0.00  0.00    -0.048 S 
ATOM     22  O   UNL     1      30.866 -22.995 -16.606  0.00  0.00    -0.274 OA
ATOM     23  O   UNL     1      32.512 -25.272 -12.941  0.00  0.00    -0.263 OA
ATOM     24  N   UNL     1      31.496 -24.161 -14.711  0.00  0.00    -0.246 N 
ATOM     25  C   UNL     1      33.213 -23.206 -16.070  0.00  0.00    +0.137 C 
ATOM     26  C   UNL     1      31.733 -23.426 -15.854  0.00  0.00    +0.239 C 
ATOM     27  C   UNL     1      32.555 -24.612 -13.969  0.00  0.00    +0.279 C 
ATOM     28  H   UNL     1      30.573 -24.360 -14.432  0.00  0.00    +0.158 HD
ENDBRANCH  20  25
ENDBRANCH   1  20
TORSDOF 5
ENDMDL
MODEL 2
REMARK VINA RESULT:     -11.8      4.672      9.855
REMARK  Name = 204109
REMARK  5 active torsions:
REMARK  status: ('A' for Active; 'I' for Inactive)
REMARK    1  A    between atoms: C_1  and  C_20
REMARK    2  A    between atoms: C_9  and  O_11
REMARK    3  A    between atoms: O_11  and  C_12
REMARK    4  A    between atoms: C_12  and  C_14
REMARK    5  A    between atoms: C_20  and  C_25
REMARK                            x       y       z     vdW  Elec       q    Type
REMARK                         _______ _______ _______ _____ _____    ______ ____
ROOT
ATOM      1  C   UNL     1      35.860 -19.075 -21.407  0.00  0.00    -0.021 C 
ATOM      2  C   UNL     1      34.397 -20.577 -20.172  0.00  0.00    -0.000 C 
ATOM      3  C   UNL     1      34.579 -19.516 -21.074  0.00  0.00    -0.004 C 
ATOM      4  C   UNL     1      35.532 -21.199 -19.599  0.00  0.00    +0.003 C 
ATOM      5  C   UNL     1      36.976 -19.688 -20.843  0.00  0.00    -0.004 C 
ATOM      6  C   UNL     1      36.815 -20.744 -19.945  0.00  0.00    -0.000 C 
ATOM      7  C   UNL     1      35.351 -22.260 -18.697  0.00  0.00    +0.037 C 
ATOM      8  C   UNL     1      33.116 -21.033 -19.825  0.00  0.00    +0.003 C 
ATOM      9  C   UNL     1      34.069 -22.700 -18.364  0.00  0.00    +0.139 C 
ATOM     10  C   UNL     1      32.954 -22.088 -18.927  0.00  0.00    +0.037 C 
ENDROOT
BRANCH   9  11
ATOM     11  O   UNL     1      33.909 -23.731 -17.488  0.00  0.00    -0.471 OA
BRANCH  11  12
ATOM     12  C   UNL     1      34.095 -23.442 -16.104  0.00  0.00    +0.234 C 
BRANCH  12  14
ATOM     13  F   UNL     1      34.180 -25.006 -13.751  0.00  0.00    -0.204 F 
ATOM     14  C   UNL     1      32.880 -23.762 -15.301  0.00  0.00    +0.049 C 
ATOM     15  C   UNL     1      32.988 -24.539 -14.148  0.00  0.00    +0.140 C 
ATOM     16  C   UNL     1      31.634 -23.283 -15.705  0.00  0.00    +0.002 C 
ATOM     17  C   UNL     1      31.849 -24.837 -13.398  0.00  0.00    +0.029 C 
ATOM     18  C   UNL     1      30.495 -23.580 -14.956  0.00  0.00    -0.000 C 
ATOM     19  C   UNL     1      30.603 -24.357 -13.802  0.00  0.00    +0.002 C 
ENDBRANCH  12  14
ENDBRANCH  11  12
ENDBRANCH   9  11
BRANCH   1  20
ATOM     20  C   UNL     1      36.035 -17.947 -22.367  0.00  0.00    +0.047 C 
BRANCH  20  25
ATOM     21  S   UNL     1      34.493 -17.741 -24.648  0.00  0.00    -0.048 S 
ATOM     22  O   UNL     1      34.770 -15.313 -21.661  0.00  0.00    -0.274 OA
ATOM     23  O   UNL     1      34.045 -15.672 -26.207  0.00  0.00    -0.263 OA
ATOM     24  N   UNL     1      34.374 -15.290 -23.938  0.00  0.00    -0.246 N 
ATOM     25  C   UNL     1      34.700 -17.403 -22.872  0.00  0.00    +0.137 C 
ATOM     26  C   UNL     1      34.626 -15.900 -22.727  0.00  0.00    +0.239 C 
ATOM     27  C   UNL     1      34.263 -16.057 -25.068  0.00  0.00    +0.279 C 
ATOM     28  H   UNL     1      34.274 -14.312 -23.991  0.00  0.00    +0.158 HD
ENDBRANCH  20  25
ENDBRANCH   1  20
TORSDOF 5
ENDMDL
MODEL 3
REMARK VINA RESULT:     -11.8      2.514      3.393
REMARK  Name = 204109
REMARK  5 active torsions:
REMARK  status: ('A' for Active; 'I' for Inactive)
REMARK    1  A    between atoms: C_1  and  C_20
REMARK    2  A    between atoms: C_9  and  O_11
REMARK    3  A    between atoms: O_11  and  C_12
REMARK    4  A    between atoms: C_12  and  C_14
REMARK    5  A    between atoms: C_20  and  C_25
REMARK                            x       y       z     vdW  Elec       q    Type
REMARK                         _______ _______ _______ _____ _____    ______ ____
ROOT
ATOM      1  C   UNL     1      34.736 -23.829 -16.138  0.00  0.00    -0.021 C 
ATOM      2  C   UNL     1      35.337 -22.378 -17.996  0.00  0.00    -0.000 C 
ATOM      3  C   UNL     1      35.702 -23.153 -16.884  0.00  0.00    -0.004 C 
ATOM      4  C   UNL     1      33.971 -22.287 -18.357  0.00  0.00    +0.003 C 
ATOM      5  C   UNL     1      33.394 -23.740 -16.493  0.00  0.00    -0.004 C 
ATOM      6  C   UNL     1      33.012 -22.975 -17.596  0.00  0.00    -0.000 C 
ATOM      7  C   UNL     1      33.605 -21.512 -19.469  0.00  0.00    +0.037 C 
ATOM      8  C   UNL     1      36.296 -21.690 -18.757  0.00  0.00    +0.003 C 
ATOM      9  C   UNL     1      34.572 -20.836 -20.215  0.00  0.00    +0.139 C 
ATOM     10  C   UNL     1      35.915 -20.925 -19.859  0.00  0.00    +0.037 C 
ENDROOT
BRANCH   9  11
ATOM     11  O   UNL     1      34.202 -20.089 -21.291  0.00  0.00    -0.471 OA
BRANCH  11  12
ATOM     12  C   UNL     1      35.218 -19.767 -22.239  0.00  0.00    +0.234 C 
BRANCH  12  14
ATOM     13  F   UNL     1      35.408 -17.407 -20.694  0.00  0.00    -0.204 F 
ATOM     14  C   UNL     1      35.030 -18.405 -22.816  0.00  0.00    +0.049 C 
ATOM     15  C   UNL     1      35.136 -17.278 -22.001  0.00  0.00    +0.140 C 
ATOM     16  C   UNL     1      34.746 -18.259 -24.173  0.00  0.00    +0.002 C 
ATOM     17  C   UNL     1      34.960 -16.005 -22.543  0.00  0.00    +0.029 C 
ATOM     18  C   UNL     1      34.569 -16.986 -24.717  0.00  0.00    -0.000 C 
ATOM     19  C   UNL     1      34.676 -15.859 -23.902  0.00  0.00    +0.002 C 
ENDBRANCH  12  14
ENDBRANCH  11  12
ENDBRANCH   9  11
BRANCH   1  20
ATOM     20  C   UNL     1      35.143 -24.648 -14.959  0.00  0.00    +0.047 C 
BRANCH  20  25
ATOM     21  S   UNL     1      37.149 -23.872 -13.229  0.00  0.00    -0.048 S 
ATOM     22  O   UNL     1      33.395 -24.426 -12.524  0.00  0.00    -0.274 OA
ATOM     23  O   UNL     1      37.661 -24.654 -10.772  0.00  0.00    -0.263 OA
ATOM     24  N   UNL     1      35.445 -24.592 -11.467  0.00  0.00    -0.246 N 
ATOM     25  C   UNL     1      35.399 -23.795 -13.719  0.00  0.00    +0.137 C 
ATOM     26  C   UNL     1      34.614 -24.301 -12.529  0.00  0.00    +0.239 C 
ATOM     27  C   UNL     1      36.799 -24.439 -11.610  0.00  0.00    +0.279 C 
ATOM     28  H   UNL     1      35.068 -24.908 -10.615  0.00  0.00    +0.158 HD
ENDBRANCH  20  25
ENDBRANCH   1  20
TORSDOF 5
ENDMDL
MODEL 4
REMARK VINA RESULT:     -11.7      4.668      9.723
REMARK  Name = 204109
REMARK  5 active torsions:
REMARK  status: ('A' for Active; 'I' for Inactive)
REMARK    1  A    between atoms: C_1  and  C_20
REMARK    2  A    between atoms: C_9  and  O_11
REMARK    3  A    between atoms: O_11  and  C_12
REMARK    4  A    between atoms: C_12  and  C_14
REMARK    5  A    between atoms: C_20  and  C_25
REMARK                            x       y       z     vdW  Elec       q    Type
REMARK                         _______ _______ _______ _____ _____    ______ ____
ROOT
ATOM      1  C   UNL     1      35.069 -20.304 -20.772  0.00  0.00    -0.021 C 
ATOM      2  C   UNL     1      35.397 -21.696 -18.804  0.00  0.00    -0.000 C 
ATOM      3  C   UNL     1      35.912 -20.868 -19.815  0.00  0.00    -0.004 C 
ATOM      4  C   UNL     1      34.006 -21.955 -18.765  0.00  0.00    +0.003 C 
ATOM      5  C   UNL     1      33.701 -20.558 -20.733  0.00  0.00    -0.004 C 
ATOM      6  C   UNL     1      33.171 -21.378 -19.735  0.00  0.00    -0.000 C 
ATOM      7  C   UNL     1      33.490 -22.782 -17.754  0.00  0.00    +0.037 C 
ATOM      8  C   UNL     1      36.230 -22.274 -17.833  0.00  0.00    +0.003 C 
ATOM      9  C   UNL     1      34.334 -23.348 -16.797  0.00  0.00    +0.139 C 
ATOM     10  C   UNL     1      35.701 -23.093 -16.836  0.00  0.00    +0.037 C 
ENDROOT
BRANCH   9  11
ATOM     11  O   UNL     1      33.819 -24.148 -15.823  0.00  0.00    -0.471 OA
BRANCH  11  12
ATOM     12  C   UNL     1      33.013 -23.522 -14.826  0.00  0.00    +0.234 C 
BRANCH  12  14
ATOM     13  F   UNL     1      32.090 -25.773 -13.388  0.00  0.00    -0.204 F 
ATOM     14  C   UNL     1      31.599 -23.991 -14.879  0.00  0.00    +0.049 C 
ATOM     15  C   UNL     1      31.205 -25.110 -14.145  0.00  0.00    +0.140 C 
ATOM     16  C   UNL     1      30.670 -23.310 -15.664  0.00  0.00    +0.002 C 
ATOM     17  C   UNL     1      29.881 -25.547 -14.196  0.00  0.00    +0.029 C 
ATOM     18  C   UNL     1      29.346 -23.747 -15.716  0.00  0.00    -0.000 C 
ATOM     19  C   UNL     1      28.951 -24.865 -14.981  0.00  0.00    +0.002 C 
ENDBRANCH  12  14
ENDBRANCH  11  12
ENDBRANCH   9  11
BRANCH   1  20
ATOM     20  C   UNL     1      35.633 -19.427 -21.838  0.00  0.00    +0.047 C 
BRANCH  20  25
ATOM     21  S   UNL     1      34.554 -18.654 -24.259  0.00  0.00    -0.048 S 
ATOM     22  O   UNL     1      35.032 -16.594 -21.031  0.00  0.00    -0.274 OA
ATOM     23  O   UNL     1      34.909 -16.448 -25.644  0.00  0.00    -0.263 OA
ATOM     24  N   UNL     1      34.993 -16.318 -23.326  0.00  0.00    -0.246 N 
ATOM     25  C   UNL     1      34.582 -18.501 -22.447  0.00  0.00    +0.137 C 
ATOM     26  C   UNL     1      34.893 -17.049 -22.161  0.00  0.00    +0.239 C 
ATOM     27  C   UNL     1      34.847 -16.950 -24.532  0.00  0.00    +0.279 C 
ATOM     28  H   UNL     1      35.168 -15.350 -23.291  0.00  0.00    +0.158 HD
ENDBRANCH  20  25
ENDBRANCH   1  20
TORSDOF 5
ENDMDL
MODEL 5
REMARK VINA RESULT:     -11.7      1.337      1.456
REMARK  Name = 204109
REMARK  5 active torsions:
REMARK  status: ('A' for Active; 'I' for Inactive)
REMARK    1  A    between atoms: C_1  and  C_20
REMARK    2  A    between atoms: C_9  and  O_11
REMARK    3  A    between atoms: O_11  and  C_12
REMARK    4  A    between atoms: C_12  and  C_14
REMARK    5  A    between atoms: C_20  and  C_25
REMARK                            x       y       z     vdW  Elec       q    Type
REMARK                         _______ _______ _______ _____ _____    ______ ____
ROOT
ATOM      1  C   UNL     1      34.285 -23.070 -17.471  0.00  0.00    -0.021 C 
ATOM      2  C   UNL     1      35.319 -21.615 -19.125  0.00  0.00    -0.000 C 
ATOM      3  C   UNL     1      35.426 -22.521 -18.058  0.00  0.00    -0.004 C 
ATOM      4  C   UNL     1      34.035 -21.261 -19.604  0.00  0.00    +0.003 C 
ATOM      5  C   UNL     1      33.023 -22.720 -17.943  0.00  0.00    -0.004 C 
ATOM      6  C   UNL     1      32.897 -21.822 -19.004  0.00  0.00    -0.000 C 
ATOM      7  C   UNL     1      33.928 -20.355 -20.672  0.00  0.00    +0.037 C 
ATOM      8  C   UNL     1      36.456 -21.053 -19.727  0.00  0.00    +0.003 C 
ATOM      9  C   UNL     1      35.069 -19.806 -21.259  0.00  0.00    +0.139 C 
ATOM     10  C   UNL     1      36.331 -20.155 -20.787  0.00  0.00    +0.037 C 
ENDROOT
BRANCH   9  11
ATOM     11  O   UNL     1      34.949 -18.930 -22.294  0.00  0.00    -0.471 OA
BRANCH  11  12
ATOM     12  C   UNL     1      35.779 -17.770 -22.263  0.00  0.00    +0.234 C 
BRANCH  12  14
ATOM     13  F   UNL     1      35.176 -16.043 -24.417  0.00  0.00    -0.204 F 
ATOM     14  C   UNL     1      34.982 -16.520 -22.099  0.00  0.00    +0.049 C 
ATOM     15  C   UNL     1      34.718 -15.709 -23.203  0.00  0.00    +0.140 C 
ATOM     16  C   UNL     1      34.500 -16.163 -20.840  0.00  0.00    +0.002 C 
ATOM     17  C   UNL     1      33.972 -14.540 -23.047  0.00  0.00    +0.029 C 
ATOM     18  C   UNL     1      33.755 -14.994 -20.684  0.00  0.00    -0.000 C 
ATOM     19  C   UNL     1      33.490 -14.183 -21.787  0.00  0.00    +0.002 C 
ENDBRANCH  12  14
ENDBRANCH  11  12
ENDBRANCH   9  11
BRANCH   1  20
ATOM     20  C   UNL     1      34.418 -24.030 -16.338  0.00  0.00    +0.047 C 
BRANCH  20  25
ATOM     21  S   UNL     1      35.654 -24.011 -13.869  0.00  0.00    -0.048 S 
ATOM     22  O   UNL     1      31.974 -23.265 -14.764  0.00  0.00    -0.274 OA
ATOM     23  O   UNL     1      34.834 -24.960 -11.559  0.00  0.00    -0.263 OA
ATOM     24  N   UNL     1      33.242 -24.136 -13.037  0.00  0.00    -0.246 N 
ATOM     25  C   UNL     1      34.380 -23.335 -14.979  0.00  0.00    +0.137 C 
ATOM     26  C   UNL     1      33.060 -23.563 -14.279  0.00  0.00    +0.239 C 
ATOM     27  C   UNL     1      34.509 -24.450 -12.620  0.00  0.00    +0.279 C 
ATOM     28  H   UNL     1      32.468 -24.319 -12.457  0.00  0.00    +0.158 HD
ENDBRANCH  20  25
ENDBRANCH   1  20
TORSDOF 5
ENDMDL
MODEL 6
REMARK VINA RESULT:     -11.6      1.421      1.782
REMARK  Name = 204109
REMARK  5 active torsions:
REMARK  status: ('A' for Active; 'I' for Inactive)
REMARK    1  A    between atoms: C_1  and  C_20
REMARK    2  A    between atoms: C_9  and  O_11
REMARK    3  A    between atoms: O_11  and  C_12
REMARK    4  A    between atoms: C_12  and  C_14
REMARK    5  A    between atoms: C_20  and  C_25
REMARK                            x       y       z     vdW  Elec       q    Type
REMARK                         _______ _______ _______ _____ _____    ______ ____
ROOT
ATOM      1  C   UNL     1      34.166 -22.623 -18.405  0.00  0.00    -0.021 C 
ATOM      2  C   UNL     1      35.546 -21.091 -19.697  0.00  0.00    -0.000 C 
ATOM      3  C   UNL     1      35.422 -22.139 -18.770  0.00  0.00    -0.004 C 
ATOM      4  C   UNL     1      34.378 -20.526 -20.262  0.00  0.00    +0.003 C 
ATOM      5  C   UNL     1      33.017 -22.067 -18.961  0.00  0.00    -0.004 C 
ATOM      6  C   UNL     1      33.121 -21.026 -19.884  0.00  0.00    -0.000 C 
ATOM      7  C   UNL     1      34.501 -19.479 -21.189  0.00  0.00    +0.037 C 
ATOM      8  C   UNL     1      36.803 -20.591 -20.076  0.00  0.00    +0.003 C 
ATOM      9  C   UNL     1      35.758 -18.994 -21.554  0.00  0.00    +0.139 C 
ATOM     10  C   UNL     1      36.906 -19.550 -20.998  0.00  0.00    +0.037 C 
ENDROOT
BRANCH   9  11
ATOM     11  O   UNL     1      35.862 -17.979 -22.454  0.00  0.00    -0.471 OA
BRANCH  11  12
ATOM     12  C   UNL     1      35.349 -16.707 -22.062  0.00  0.00    +0.234 C 
BRANCH  12  14
ATOM     13  F   UNL     1      34.063 -14.208 -21.762  0.00  0.00    -0.204 F 
ATOM     14  C   UNL     1      34.618 -16.035 -23.174  0.00  0.00    +0.049 C 
ATOM     15  C   UNL     1      34.004 -14.801 -22.963  0.00  0.00    +0.140 C 
ATOM     16  C   UNL     1      34.550 -16.642 -24.428  0.00  0.00    +0.002 C 
ATOM     17  C   UNL     1      33.322 -14.173 -24.006  0.00  0.00    +0.029 C 
ATOM     18  C   UNL     1      33.867 -16.015 -25.471  0.00  0.00    -0.000 C 
ATOM     19  C   UNL     1      33.254 -14.781 -25.260  0.00  0.00    +0.002 C 
ENDBRANCH  12  14
ENDBRANCH  11  12
ENDBRANCH   9  11
BRANCH   1  20
ATOM     20  C   UNL     1      34.054 -23.736 -17.419  0.00  0.00    +0.047 C 
BRANCH  20  25
ATOM     21  S   UNL     1      35.711 -23.755 -15.211  0.00  0.00    -0.048 S 
ATOM     22  O   UNL     1      31.854 -23.743 -15.370  0.00  0.00    -0.274 OA
ATOM     23  O   UNL     1      35.551 -25.149 -12.987  0.00  0.00    -0.263 OA
ATOM     24  N   UNL     1      33.575 -24.520 -14.036  0.00  0.00    -0.246 N 
ATOM     25  C   UNL     1      34.141 -23.245 -15.976  0.00  0.00    +0.137 C 
ATOM     26  C   UNL     1      33.050 -23.849 -15.121  0.00  0.00    +0.239 C 
ATOM     27  C   UNL     1      34.935 -24.594 -13.885  0.00  0.00    +0.279 C 
ATOM     28  H   UNL     1      32.979 -24.944 -13.377  0.00  0.00    +0.158 HD
ENDBRANCH  20  25
ENDBRANCH   1  20
TORSDOF 5
ENDMDL
MODEL 7
REMARK VINA RESULT:     -11.6      4.696      9.771
REMARK  Name = 204109
REMARK  5 active torsions:
REMARK  status: ('A' for Active; 'I' for Inactive)
REMARK    1  A    between atoms: C_1  and  C_20
REMARK    2  A    between atoms: C_9  and  O_11
REMARK    3  A    between atoms: O_11  and  C_12
REMARK    4  A    between atoms: C_12  and  C_14
REMARK    5  A    between atoms: C_20  and  C_25
REMARK                            x       y       z     vdW  Elec       q    Type
REMARK                         _______ _______ _______ _____ _____    ______ ____
ROOT
ATOM      1  C   UNL     1      35.948 -19.195 -21.464  0.00  0.00    -0.021 C 
ATOM      2  C   UNL     1      34.532 -20.680 -20.156  0.00  0.00    -0.000 C 
ATOM      3  C   UNL     1      34.683 -19.674 -21.124  0.00  0.00    -0.004 C 
ATOM      4  C   UNL     1      35.683 -21.208 -19.523  0.00  0.00    +0.003 C 
ATOM      5  C   UNL     1      37.079 -19.715 -20.841  0.00  0.00    -0.004 C 
ATOM      6  C   UNL     1      36.949 -20.716 -19.878  0.00  0.00    -0.000 C 
ATOM      7  C   UNL     1      35.533 -22.214 -18.556  0.00  0.00    +0.037 C 
ATOM      8  C   UNL     1      33.266 -21.173 -19.801  0.00  0.00    +0.003 C 
ATOM      9  C   UNL     1      34.266 -22.693 -18.215  0.00  0.00    +0.139 C 
ATOM     10  C   UNL     1      33.135 -22.173 -18.838  0.00  0.00    +0.037 C 
ENDROOT
BRANCH   9  11
ATOM     11  O   UNL     1      34.137 -23.669 -17.276  0.00  0.00    -0.471 OA
BRANCH  11  12
ATOM     12  C   UNL     1      34.368 -23.299 -15.918  0.00  0.00    +0.234 C 
BRANCH  12  14
ATOM     13  F   UNL     1      36.932 -22.142 -15.647  0.00  0.00    -0.204 F 
ATOM     14  C   UNL     1      35.528 -24.030 -15.332  0.00  0.00    +0.049 C 
ATOM     15  C   UNL     1      36.769 -23.404 -15.225  0.00  0.00    +0.140 C 
ATOM     16  C   UNL     1      35.369 -25.344 -14.890  0.00  0.00    +0.002 C 
ATOM     17  C   UNL     1      37.853 -24.090 -14.676  0.00  0.00    +0.029 C 
ATOM     18  C   UNL     1      36.453 -26.031 -14.342  0.00  0.00    -0.000 C 
ATOM     19  C   UNL     1      37.694 -25.404 -14.234  0.00  0.00    +0.002 C 
ENDBRANCH  12  14
ENDBRANCH  11  12
ENDBRANCH   9  11
BRANCH   1  20
ATOM     20  C   UNL     1      36.089 -18.126 -22.494  0.00  0.00    +0.047 C 
BRANCH  20  25
ATOM     21  S   UNL     1      34.494 -17.790 -24.722  0.00  0.00    -0.048 S 
ATOM     22  O   UNL     1      34.825 -15.551 -21.596  0.00  0.00    -0.274 OA
ATOM     23  O   UNL     1      33.997 -15.632 -26.138  0.00  0.00    -0.263 OA
ATOM     24  N   UNL     1      34.376 -15.389 -23.858  0.00  0.00    -0.246 N 
ATOM     25  C   UNL     1      34.740 -17.562 -22.934  0.00  0.00    +0.137 C 
ATOM     26  C   UNL     1      34.660 -16.071 -22.694  0.00  0.00    +0.239 C 
ATOM     27  C   UNL     1      34.244 -16.085 -25.031  0.00  0.00    +0.279 C 
ATOM     28  H   UNL     1      34.269 -14.411 -23.848  0.00  0.00    +0.158 HD
ENDBRANCH  20  25
ENDBRANCH   1  20
TORSDOF 5
ENDMDL
MODEL 8
REMARK VINA RESULT:     -11.5      6.367     11.192
REMARK  Name = 204109
REMARK  5 active torsions:
REMARK  status: ('A' for Active; 'I' for Inactive)
REMARK    1  A    between atoms: C_1  and  C_20
REMARK    2  A    between atoms: C_9  and  O_11
REMARK    3  A    between atoms: O_11  and  C_12
REMARK    4  A    between atoms: C_12  and  C_14
REMARK    5  A    between atoms: C_20  and  C_25
REMARK                            x       y       z     vdW  Elec       q    Type
REMARK                         _______ _______ _______ _____ _____    ______ ____
ROOT
ATOM      1  C   UNL     1      32.262 -11.947 -21.718  0.00  0.00    -0.021 C 
ATOM      2  C   UNL     1      33.612 -13.937 -22.087  0.00  0.00    -0.000 C 
ATOM      3  C   UNL     1      33.101 -12.708 -22.533  0.00  0.00    -0.004 C 
ATOM      4  C   UNL     1      33.267 -14.401 -20.795  0.00  0.00    +0.003 C 
ATOM      5  C   UNL     1      31.924 -12.403 -20.448  0.00  0.00    -0.004 C 
ATOM      6  C   UNL     1      32.423 -13.623 -19.987  0.00  0.00    -0.000 C 
ATOM      7  C   UNL     1      33.778 -15.630 -20.348  0.00  0.00    +0.037 C 
ATOM      8  C   UNL     1      34.457 -14.716 -22.894  0.00  0.00    +0.003 C 
ATOM      9  C   UNL     1      34.617 -16.392 -21.164  0.00  0.00    +0.139 C 
ATOM     10  C   UNL     1      34.956 -15.935 -22.434  0.00  0.00    +0.037 C 
ENDROOT
BRANCH   9  11
ATOM     11  O   UNL     1      35.105 -17.582 -20.717  0.00  0.00    -0.471 OA
BRANCH  11  12
ATOM     12  C   UNL     1      34.825 -18.737 -21.505  0.00  0.00    +0.234 C 
BRANCH  12  14
ATOM     13  F   UNL     1      37.056 -20.144 -20.491  0.00  0.00    -0.204 F 
ATOM     14  C   UNL     1      34.695 -19.963 -20.667  0.00  0.00    +0.049 C 
ATOM     15  C   UNL     1      35.835 -20.613 -20.196  0.00  0.00    +0.140 C 
ATOM     16  C   UNL     1      33.430 -20.461 -20.355  0.00  0.00    +0.002 C 
ATOM     17  C   UNL     1      35.711 -21.761 -19.412  0.00  0.00    +0.029 C 
ATOM     18  C   UNL     1      33.305 -21.609 -19.572  0.00  0.00    -0.000 C 
ATOM     19  C   UNL     1      34.445 -22.258 -19.100  0.00  0.00    +0.002 C 
ENDBRANCH  12  14
ENDBRANCH  11  12
ENDBRANCH   9  11
BRANCH   1  20
ATOM     20  C   UNL     1      31.729 -10.643 -22.208  0.00  0.00    +0.047 C 
BRANCH  20  25
ATOM     21  S   UNL     1      31.645  -8.003 -21.405  0.00  0.00    -0.048 S 
ATOM     22  O   UNL     1      34.270  -9.810 -23.582  0.00  0.00    -0.274 OA
ATOM     23  O   UNL     1      32.125  -5.804 -22.763  0.00  0.00    -0.263 OA
ATOM     24  N   UNL     1      33.318  -7.721 -23.315  0.00  0.00    -0.246 N 
ATOM     25  C   UNL     1      32.632  -9.469 -21.837  0.00  0.00    +0.137 C 
ATOM     26  C   UNL     1      33.501  -9.052 -23.002  0.00  0.00    +0.239 C 
ATOM     27  C   UNL     1      32.403  -6.984 -22.609  0.00  0.00    +0.279 C 
ATOM     28  H   UNL     1      33.839  -7.304 -24.039  0.00  0.00    +0.158 HD
ENDBRANCH  20  25
ENDBRANCH   1  20
TORSDOF 5
ENDMDL
MODEL 9
REMARK VINA RESULT:     -11.4      2.290      2.676
REMARK  Name = 204109
REMARK  5 active torsions:
REMARK  status: ('A' for Active; 'I' for Inactive)
REMARK    1  A    between atoms: C_1  and  C_20
REMARK    2  A    between atoms: C_9  and  O_11
REMARK    3  A    between atoms: O_11  and  C_12
REMARK    4  A    between atoms: C_12  and  C_14
REMARK    5  A    between atoms: C_20  and  C_25
REMARK                            x       y       z     vdW  Elec       q    Type
REMARK                         _______ _______ _______ _____ _____    ______ ____
ROOT
ATOM      1  C   UNL     1      34.544 -22.994 -17.486  0.00  0.00    -0.021 C 
ATOM      2  C   UNL     1      35.405 -21.504 -19.207  0.00  0.00    -0.000 C 
ATOM      3  C   UNL     1      35.618 -22.378 -18.128  0.00  0.00    -0.004 C 
ATOM      4  C   UNL     1      34.082 -21.252 -19.641  0.00  0.00    +0.003 C 
ATOM      5  C   UNL     1      33.243 -22.745 -17.914  0.00  0.00    -0.004 C 
ATOM      6  C   UNL     1      33.012 -21.881 -18.985  0.00  0.00    -0.000 C 
ATOM      7  C   UNL     1      33.868 -20.379 -20.720  0.00  0.00    +0.037 C 
ATOM      8  C   UNL     1      36.475 -20.875 -19.864  0.00  0.00    +0.003 C 
ATOM      9  C   UNL     1      34.944 -19.762 -21.361  0.00  0.00    +0.139 C 
ATOM     10  C   UNL     1      36.245 -20.011 -20.934  0.00  0.00    +0.037 C 
ENDROOT
BRANCH   9  11
ATOM     11  O   UNL     1      34.721 -18.919 -22.406  0.00  0.00    -0.471 OA
BRANCH  11  12
ATOM     12  C   UNL     1      35.648 -17.850 -22.587  0.00  0.00    +0.234 C 
BRANCH  12  14
ATOM     13  F   UNL     1      34.835 -16.652 -20.160  0.00  0.00    -0.204 F 
ATOM     14  C   UNL     1      34.981 -16.518 -22.526  0.00  0.00    +0.049 C 
ATOM     15  C   UNL     1      34.603 -15.980 -21.296  0.00  0.00    +0.140 C 
ATOM     16  C   UNL     1      34.734 -15.811 -23.702  0.00  0.00    +0.002 C 
ATOM     17  C   UNL     1      33.978 -14.734 -21.242  0.00  0.00    +0.029 C 
ATOM     18  C   UNL     1      34.109 -14.564 -23.649  0.00  0.00    -0.000 C 
ATOM     19  C   UNL     1      33.732 -14.026 -22.419  0.00  0.00    +0.002 C 
ENDBRANCH  12  14
ENDBRANCH  11  12
ENDBRANCH   9  11
BRANCH   1  20
ATOM     20  C   UNL     1      34.789 -23.918 -16.342  0.00  0.00    +0.047 C 
BRANCH  20  25
ATOM     21  S   UNL     1      37.067 -23.121 -15.001  0.00  0.00    -0.048 S 
ATOM     22  O   UNL     1      33.629 -24.149 -13.578  0.00  0.00    -0.274 OA
ATOM     23  O   UNL     1      38.186 -24.103 -12.835  0.00  0.00    -0.263 OA
ATOM     24  N   UNL     1      35.872 -24.206 -13.021  0.00  0.00    -0.246 N 
ATOM     25  C   UNL     1      35.250 -23.181 -15.087  0.00  0.00    +0.137 C 
ATOM     26  C   UNL     1      34.801 -23.893 -13.832  0.00  0.00    +0.239 C 
ATOM     27  C   UNL     1      37.141 -23.893 -13.432  0.00  0.00    +0.279 C 
ATOM     28  H   UNL     1      35.726 -24.651 -12.155  0.00  0.00    +0.158 HD
ENDBRANCH  20  25
ENDBRANCH   1  20
TORSDOF 5
ENDMDL
