MODEL 1
REMARK VINA RESULT:     -12.3      0.000      0.000
REMARK  Name = 448605
REMARK  6 active torsions:
REMARK  status: ('A' for Active; 'I' for Inactive)
REMARK    1  A    between atoms: C_3  and  N_11
REMARK    2  A    between atoms: C_4  and  C_27
REMARK    3  A    between atoms: C_9  and  C_21
REMARK    4  A    between atoms: N_26  and  C_29
REMARK    5  A    between atoms: C_30  and  C_35
REMARK    6  A    between atoms: C_35  and  N_36
REMARK                            x       y       z     vdW  Elec       q    Type
REMARK                         _______ _______ _______ _____ _____    ______ ____
ROOT
ATOM      1  C   UNL     1      35.119 -23.463 -16.211  0.00  0.00    +0.014 C 
ATOM      2  C   UNL     1      36.101 -22.696 -16.884  0.00  0.00    +0.001 C 
ATOM      3  C   UNL     1      33.804 -23.478 -16.702  0.00  0.00    +0.057 C 
ATOM      4  C   UNL     1      34.426 -21.993 -18.502  0.00  0.00    +0.055 C 
ATOM      5  C   UNL     1      35.738 -21.968 -18.029  0.00  0.00    +0.005 C 
ATOM      6  C   UNL     1      33.461 -22.748 -17.841  0.00  0.00    +0.020 C 
ATOM      7  C   UNL     1      35.482 -24.192 -15.067  0.00  0.00    +0.004 C 
ATOM      8  C   UNL     1      37.416 -22.682 -16.393  0.00  0.00    +0.000 C 
ATOM      9  C   UNL     1      36.795 -24.166 -14.593  0.00  0.00    +0.031 C 
ATOM     10  C   UNL     1      37.760 -23.412 -15.255  0.00  0.00    +0.003 C 
ENDROOT
BRANCH   3  11
ATOM     11  N   UNL     1      32.783 -24.227 -16.068  0.00  0.00    -0.257 N 
ATOM     12  N   UNL     1      30.899 -22.889 -16.470  0.00  0.00    -0.180 NA
ATOM     13  N   UNL     1      30.711 -24.952 -15.239  0.00  0.00    -0.203 NA
ATOM     14  C   UNL     1      31.403 -24.013 -15.919  0.00  0.00    +0.091 C 
ATOM     15  C   UNL     1      29.571 -22.715 -16.308  0.00  0.00    +0.108 C 
ATOM     16  C   UNL     1      29.388 -24.715 -15.114  0.00  0.00    +0.165 C 
ATOM     17  C   UNL     1      28.757 -23.603 -15.634  0.00  0.00    +0.022 C 
ATOM     18  H   UNL     1      33.103 -25.059 -15.650  0.00  0.00    +0.164 HD
ENDBRANCH   3  11
BRANCH   9  21
ATOM     19  N   UNL     1      36.418 -26.041 -13.010  0.00  0.00    -0.343 N 
ATOM     20  N   UNL     1      38.197 -24.561 -12.682  0.00  0.00    -0.285 NA
ATOM     21  C   UNL     1      37.155 -24.927 -13.407  0.00  0.00    +0.117 C 
ATOM     22  H   UNL     1      36.680 -26.541 -12.203  0.00  0.00    +0.144 HD
ATOM     23  H   UNL     1      35.636 -26.328 -13.535  0.00  0.00    +0.144 HD
ATOM     24  H   UNL     1      38.443 -25.075 -11.879  0.00  0.00    +0.188 HD
ENDBRANCH   9  21
BRANCH   4  27
ATOM     25  O   UNL     1      32.921 -21.346 -20.154  0.00  0.00    -0.270 OA
ATOM     26  N   UNL     1      35.067 -20.398 -20.206  0.00  0.00    -0.280 N 
ATOM     27  C   UNL     1      34.066 -21.233 -19.689  0.00  0.00    +0.250 C 
ATOM     28  H   UNL     1      35.928 -20.416 -19.729  0.00  0.00    +0.155 HD
BRANCH  26  29
ATOM     29  C   UNL     1      35.001 -19.531 -21.325  0.00  0.00    +0.051 C 
ATOM     30  C   UNL     1      34.871 -17.838 -23.511  0.00  0.00    -0.044 C 
ATOM     31  C   UNL     1      34.763 -20.065 -22.579  0.00  0.00    +0.014 C 
ATOM     32  C   UNL     1      35.176 -18.171 -21.138  0.00  0.00    +0.014 C 
ATOM     33  C   UNL     1      34.698 -19.211 -23.681  0.00  0.00    -0.005 C 
ATOM     34  C   UNL     1      35.111 -17.318 -22.239  0.00  0.00    -0.005 C 
BRANCH  30  35
ATOM     35  C   UNL     1      34.801 -16.926 -24.688  0.00  0.00    -0.059 C 
BRANCH  35  36
ATOM     36  N   UNL     1      34.043 -15.733 -24.413  0.00  0.00    +0.383 N 
ATOM     37  H   UNL     1      34.632 -14.913 -24.557  0.00  0.00    -0.089 HD
ATOM     38  H   UNL     1      33.717 -15.752 -23.446  0.00  0.00    -0.089 HD
ATOM     39  H   UNL     1      33.240 -15.688 -25.041  0.00  0.00    -0.089 HD
ENDBRANCH  35  36
ENDBRANCH  30  35
ENDBRANCH  26  29
ENDBRANCH   4  27
TORSDOF 6
ENDMDL
