MODEL 1
REMARK VINA RESULT:     -11.6      0.000      0.000
REMARK  Name = 6323454
REMARK  1 active torsions:
REMARK  status: ('A' for Active; 'I' for Inactive)
REMARK    1  A    between atoms: C_18  and  O_22
REMARK                            x       y       z     vdW  Elec       q    Type
REMARK                         _______ _______ _______ _____ _____    ______ ____
ROOT
ATOM      1  O   UNL     1      34.460 -24.914 -13.043  0.00  0.00    -0.350 OA
ATOM      2  O   UNL     1      37.533 -23.194 -13.258  0.00  0.00    -0.445 OA
ATOM      3  O   UNL     1      37.911 -22.755 -15.988  0.00  0.00    -0.287 OA
ATOM      4  O   UNL     1      38.433 -23.097 -11.137  0.00  0.00    -0.250 OA
ATOM      5  O   UNL     1      32.762 -23.857 -16.817  0.00  0.00    -0.287 OA
ATOM      6  C   UNL     1      35.453 -23.964 -12.721  0.00  0.00    +0.171 C 
ATOM      7  C   UNL     1      36.494 -23.992 -13.812  0.00  0.00    +0.221 C 
ATOM      8  C   UNL     1      35.864 -23.541 -15.094  0.00  0.00    +0.060 C 
ATOM      9  C   UNL     1      33.703 -24.498 -14.211  0.00  0.00    +0.141 C 
ATOM     10  C   UNL     1      34.556 -23.805 -15.283  0.00  0.00    +0.046 C 
ATOM     11  C   UNL     1      36.322 -24.250 -11.521  0.00  0.00    +0.143 C 
ATOM     12  C   UNL     1      37.551 -23.455 -11.902  0.00  0.00    +0.320 C 
ATOM     13  C   UNL     1      36.705 -22.904 -16.135  0.00  0.00    +0.195 C 
ATOM     14  C   UNL     1      33.905 -23.483 -16.585  0.00  0.00    +0.197 C 
ATOM     15  C   UNL     1      32.539 -23.631 -13.721  0.00  0.00    +0.037 C 
ATOM     16  C   UNL     1      36.036 -22.452 -17.369  0.00  0.00    +0.045 C 
ATOM     17  C   UNL     1      34.687 -22.732 -17.584  0.00  0.00    +0.075 C 
ATOM     18  C   UNL     1      34.068 -22.306 -18.766  0.00  0.00    +0.137 C 
ATOM     19  C   UNL     1      36.768 -21.749 -18.332  0.00  0.00    +0.003 C 
ATOM     20  C   UNL     1      34.799 -21.603 -19.724  0.00  0.00    +0.037 C 
ATOM     21  C   UNL     1      36.147 -21.325 -19.508  0.00  0.00    +0.003 C 
ENDROOT
BRANCH  18  22
ATOM     22  O   UNL     1      32.752 -22.540 -19.037  0.00  0.00    -0.505 OA
ATOM     23  H   UNL     1      32.472 -22.664 -19.922  0.00  0.00    +0.292 HD
ENDBRANCH  18  22
TORSDOF 1
ENDMDL
MODEL 2
REMARK VINA RESULT:     -10.7      0.966      1.080
REMARK  Name = 6323454
REMARK  1 active torsions:
REMARK  status: ('A' for Active; 'I' for Inactive)
REMARK    1  A    between atoms: C_18  and  O_22
REMARK                            x       y       z     vdW  Elec       q    Type
REMARK                         _______ _______ _______ _____ _____    ______ ____
ROOT
ATOM      1  O   UNL     1      33.967 -24.711 -14.156  0.00  0.00    -0.350 OA
ATOM      2  O   UNL     1      37.185 -23.265 -14.137  0.00  0.00    -0.445 OA
ATOM      3  O   UNL     1      37.677 -22.594 -16.801  0.00  0.00    -0.287 OA
ATOM      4  O   UNL     1      38.030 -23.460 -12.001  0.00  0.00    -0.250 OA
ATOM      5  O   UNL     1      32.476 -23.136 -17.836  0.00  0.00    -0.287 OA
ATOM      6  C   UNL     1      35.031 -23.891 -13.720  0.00  0.00    +0.171 C 
ATOM      7  C   UNL     1      36.095 -23.907 -14.789  0.00  0.00    +0.221 C 
ATOM      8  C   UNL     1      35.544 -23.275 -16.030  0.00  0.00    +0.060 C 
ATOM      9  C   UNL     1      33.283 -24.114 -15.290  0.00  0.00    +0.141 C 
ATOM     10  C   UNL     1      34.223 -23.399 -16.270  0.00  0.00    +0.046 C 
ATOM     11  C   UNL     1      35.837 -24.372 -12.540  0.00  0.00    +0.143 C 
ATOM     12  C   UNL     1      37.141 -23.659 -12.814  0.00  0.00    +0.320 C 
ATOM     13  C   UNL     1      36.467 -22.617 -16.986  0.00  0.00    +0.195 C 
ATOM     14  C   UNL     1      33.641 -22.893 -17.545  0.00  0.00    +0.197 C 
ATOM     15  C   UNL     1      32.187 -23.197 -14.737  0.00  0.00    +0.037 C 
ATOM     16  C   UNL     1      35.876 -21.987 -18.180  0.00  0.00    +0.045 C 
ATOM     17  C   UNL     1      34.514 -22.121 -18.448  0.00  0.00    +0.075 C 
ATOM     18  C   UNL     1      33.969 -21.526 -19.593  0.00  0.00    +0.137 C 
ATOM     19  C   UNL     1      36.694 -21.262 -19.054  0.00  0.00    +0.003 C 
ATOM     20  C   UNL     1      34.786 -20.800 -20.461  0.00  0.00    +0.037 C 
ATOM     21  C   UNL     1      36.146 -20.669 -20.192  0.00  0.00    +0.003 C 
ENDROOT
BRANCH  18  22
ATOM     22  O   UNL     1      32.646 -21.611 -19.911  0.00  0.00    -0.505 OA
ATOM     23  H   UNL     1      31.999 -21.281 -19.318  0.00  0.00    +0.292 HD
ENDBRANCH  18  22
TORSDOF 1
ENDMDL
MODEL 3
REMARK VINA RESULT:     -10.4      1.775      4.506
REMARK  Name = 6323454
REMARK  1 active torsions:
REMARK  status: ('A' for Active; 'I' for Inactive)
REMARK    1  A    between atoms: C_18  and  O_22
REMARK                            x       y       z     vdW  Elec       q    Type
REMARK                         _______ _______ _______ _____ _____    ______ ____
ROOT
ATOM      1  O   UNL     1      33.147 -24.437 -12.712  0.00  0.00    -0.350 OA
ATOM      2  O   UNL     1      30.785 -24.711 -15.317  0.00  0.00    -0.445 OA
ATOM      3  O   UNL     1      31.735 -23.015 -17.319  0.00  0.00    -0.287 OA
ATOM      4  O   UNL     1      29.057 -26.038 -14.562  0.00  0.00    -0.250 OA
ATOM      5  O   UNL     1      36.488 -22.930 -14.906  0.00  0.00    -0.287 OA
ATOM      6  C   UNL     1      32.266 -25.065 -13.619  0.00  0.00    +0.171 C 
ATOM      7  C   UNL     1      31.832 -24.036 -14.631  0.00  0.00    +0.221 C 
ATOM      8  C   UNL     1      33.027 -23.599 -15.421  0.00  0.00    +0.060 C 
ATOM      9  C   UNL     1      34.399 -24.086 -13.361  0.00  0.00    +0.141 C 
ATOM     10  C   UNL     1      34.227 -23.603 -14.808  0.00  0.00    +0.046 C 
ATOM     11  C   UNL     1      30.922 -25.499 -13.090  0.00  0.00    +0.143 C 
ATOM     12  C   UNL     1      30.124 -25.476 -14.375  0.00  0.00    +0.320 C 
ATOM     13  C   UNL     1      32.844 -23.102 -16.806  0.00  0.00    +0.195 C 
ATOM     14  C   UNL     1      35.430 -23.069 -15.508  0.00  0.00    +0.197 C 
ATOM     15  C   UNL     1      35.334 -25.294 -13.242  0.00  0.00    +0.037 C 
ATOM     16  C   UNL     1      34.052 -22.708 -17.554  0.00  0.00    +0.045 C 
ATOM     17  C   UNL     1      35.297 -22.693 -16.927  0.00  0.00    +0.075 C 
ATOM     18  C   UNL     1      36.434 -22.306 -17.647  0.00  0.00    +0.137 C 
ATOM     19  C   UNL     1      33.940 -22.336 -18.899  0.00  0.00    +0.003 C 
ATOM     20  C   UNL     1      36.321 -21.938 -18.989  0.00  0.00    +0.037 C 
ATOM     21  C   UNL     1      35.076 -21.953 -19.613  0.00  0.00    +0.003 C 
ENDROOT
BRANCH  18  22
ATOM     22  O   UNL     1      37.682 -22.275 -17.098  0.00  0.00    -0.505 OA
ATOM     23  H   UNL     1      38.018 -21.475 -16.744  0.00  0.00    +0.292 HD
ENDBRANCH  18  22
TORSDOF 1
ENDMDL
MODEL 4
REMARK VINA RESULT:     -10.3      2.065      5.742
REMARK  Name = 6323454
REMARK  1 active torsions:
REMARK  status: ('A' for Active; 'I' for Inactive)
REMARK    1  A    between atoms: C_18  and  O_22
REMARK                            x       y       z     vdW  Elec       q    Type
REMARK                         _______ _______ _______ _____ _____    ______ ____
ROOT
ATOM      1  O   UNL     1      31.999 -23.358 -14.525  0.00  0.00    -0.350 OA
ATOM      2  O   UNL     1      34.243 -23.159 -17.240  0.00  0.00    -0.445 OA
ATOM      3  O   UNL     1      36.774 -23.401 -16.089  0.00  0.00    -0.287 OA
ATOM      4  O   UNL     1      33.013 -22.699 -19.135  0.00  0.00    -0.250 OA
ATOM      5  O   UNL     1      34.505 -25.266 -11.640  0.00  0.00    -0.287 OA
ATOM      6  C   UNL     1      32.525 -23.615 -15.809  0.00  0.00    +0.171 C 
ATOM      7  C   UNL     1      33.927 -23.061 -15.856  0.00  0.00    +0.221 C 
ATOM      8  C   UNL     1      34.778 -23.816 -14.882  0.00  0.00    +0.060 C 
ATOM      9  C   UNL     1      32.684 -24.148 -13.516  0.00  0.00    +0.141 C 
ATOM     10  C   UNL     1      34.190 -24.303 -13.772  0.00  0.00    +0.046 C 
ATOM     11  C   UNL     1      31.910 -22.874 -16.970  0.00  0.00    +0.143 C 
ATOM     12  C   UNL     1      33.077 -22.893 -17.931  0.00  0.00    +0.320 C 
ATOM     13  C   UNL     1      36.237 -23.929 -15.123  0.00  0.00    +0.195 C 
ATOM     14  C   UNL     1      35.008 -24.959 -12.714  0.00  0.00    +0.197 C 
ATOM     15  C   UNL     1      31.955 -25.492 -13.410  0.00  0.00    +0.037 C 
ATOM     16  C   UNL     1      37.030 -24.704 -14.151  0.00  0.00    +0.045 C 
ATOM     17  C   UNL     1      36.437 -25.199 -12.991  0.00  0.00    +0.075 C 
ATOM     18  C   UNL     1      37.205 -25.924 -12.071  0.00  0.00    +0.137 C 
ATOM     19  C   UNL     1      38.390 -24.928 -14.394  0.00  0.00    +0.003 C 
ATOM     20  C   UNL     1      38.560 -26.150 -12.317  0.00  0.00    +0.037 C 
ATOM     21  C   UNL     1      39.151 -25.652 -13.476  0.00  0.00    +0.003 C 
ENDROOT
BRANCH  18  22
ATOM     22  O   UNL     1      36.688 -26.442 -10.921  0.00  0.00    -0.505 OA
ATOM     23  H   UNL     1      36.256 -25.881 -10.307  0.00  0.00    +0.292 HD
ENDBRANCH  18  22
TORSDOF 1
ENDMDL
MODEL 5
REMARK VINA RESULT:     -10.2      2.063      5.128
REMARK  Name = 6323454
REMARK  1 active torsions:
REMARK  status: ('A' for Active; 'I' for Inactive)
REMARK    1  A    between atoms: C_18  and  O_22
REMARK                            x       y       z     vdW  Elec       q    Type
REMARK                         _______ _______ _______ _____ _____    ______ ____
ROOT
ATOM      1  O   UNL     1      36.723 -24.274 -14.523  0.00  0.00    -0.350 OA
ATOM      2  O   UNL     1      35.516 -22.250 -17.148  0.00  0.00    -0.445 OA
ATOM      3  O   UNL     1      32.850 -23.012 -17.464  0.00  0.00    -0.287 OA
ATOM      4  O   UNL     1      37.293 -21.034 -17.972  0.00  0.00    -0.250 OA
ATOM      5  O   UNL     1      33.027 -25.385 -12.693  0.00  0.00    -0.287 OA
ATOM      6  C   UNL     1      36.510 -23.101 -15.279  0.00  0.00    +0.171 C 
ATOM      7  C   UNL     1      35.459 -23.403 -16.317  0.00  0.00    +0.221 C 
ATOM      8  C   UNL     1      34.167 -23.711 -15.624  0.00  0.00    +0.060 C 
ATOM      9  C   UNL     1      35.559 -24.587 -13.711  0.00  0.00    +0.141 C 
ATOM     10  C   UNL     1      34.224 -24.290 -14.408  0.00  0.00    +0.046 C 
ATOM     11  C   UNL     1      37.635 -22.637 -16.170  0.00  0.00    +0.143 C 
ATOM     12  C   UNL     1      36.842 -21.867 -17.201  0.00  0.00    +0.320 C 
ATOM     13  C   UNL     1      32.885 -23.452 -16.321  0.00  0.00    +0.195 C 
ATOM     14  C   UNL     1      32.974 -24.725 -13.724  0.00  0.00    +0.197 C 
ATOM     15  C   UNL     1      35.714 -23.848 -12.378  0.00  0.00    +0.037 C 
ATOM     16  C   UNL     1      31.640 -23.746 -15.589  0.00  0.00    +0.045 C 
ATOM     17  C   UNL     1      31.684 -24.359 -14.338  0.00  0.00    +0.075 C 
ATOM     18  C   UNL     1      30.492 -24.642 -13.659  0.00  0.00    +0.137 C 
ATOM     19  C   UNL     1      30.407 -23.417 -16.165  0.00  0.00    +0.003 C 
ATOM     20  C   UNL     1      29.264 -24.310 -14.233  0.00  0.00    +0.037 C 
ATOM     21  C   UNL     1      29.222 -23.699 -15.484  0.00  0.00    +0.003 C 
ENDROOT
BRANCH  18  22
ATOM     22  O   UNL     1      30.463 -25.233 -12.431  0.00  0.00    -0.505 OA
ATOM     23  H   UNL     1      30.984 -24.887 -11.732  0.00  0.00    +0.292 HD
ENDBRANCH  18  22
TORSDOF 1
ENDMDL
MODEL 6
REMARK VINA RESULT:     -10.1      1.890      6.145
REMARK  Name = 6323454
REMARK  1 active torsions:
REMARK  status: ('A' for Active; 'I' for Inactive)
REMARK    1  A    between atoms: C_18  and  O_22
REMARK                            x       y       z     vdW  Elec       q    Type
REMARK                         _______ _______ _______ _____ _____    ______ ____
ROOT
ATOM      1  O   UNL     1      37.214 -22.572 -17.727  0.00  0.00    -0.350 OA
ATOM      2  O   UNL     1      34.259 -21.567 -19.372  0.00  0.00    -0.445 OA
ATOM      3  O   UNL     1      32.213 -22.930 -18.052  0.00  0.00    -0.287 OA
ATOM      4  O   UNL     1      34.866 -20.245 -21.161  0.00  0.00    -0.250 OA
ATOM      5  O   UNL     1      35.566 -23.952 -14.036  0.00  0.00    -0.287 OA
ATOM      6  C   UNL     1      36.284 -21.697 -18.329  0.00  0.00    +0.171 C 
ATOM      7  C   UNL     1      35.006 -22.463 -18.558  0.00  0.00    +0.221 C 
ATOM      8  C   UNL     1      34.433 -22.855 -17.230  0.00  0.00    +0.060 C 
ATOM      9  C   UNL     1      36.805 -22.914 -16.375  0.00  0.00    +0.141 C 
ATOM     10  C   UNL     1      35.289 -23.089 -16.216  0.00  0.00    +0.046 C 
ATOM     11  C   UNL     1      36.574 -21.242 -19.738  0.00  0.00    +0.143 C 
ATOM     12  C   UNL     1      35.167 -20.937 -20.201  0.00  0.00    +0.320 C 
ATOM     13  C   UNL     1      32.970 -23.055 -17.098  0.00  0.00    +0.195 C 
ATOM     14  C   UNL     1      34.783 -23.595 -14.908  0.00  0.00    +0.197 C 
ATOM     15  C   UNL     1      37.386 -21.851 -15.436  0.00  0.00    +0.037 C 
ATOM     16  C   UNL     1      32.449 -23.415 -15.766  0.00  0.00    +0.045 C 
ATOM     17  C   UNL     1      33.324 -23.675 -14.713  0.00  0.00    +0.075 C 
ATOM     18  C   UNL     1      32.815 -24.027 -13.456  0.00  0.00    +0.137 C 
ATOM     19  C   UNL     1      31.067 -23.508 -15.569  0.00  0.00    +0.003 C 
ATOM     20  C   UNL     1      31.436 -24.115 -13.260  0.00  0.00    +0.037 C 
ATOM     21  C   UNL     1      30.564 -23.857 -14.314  0.00  0.00    +0.003 C 
ENDROOT
BRANCH  18  22
ATOM     22  O   UNL     1      33.613 -24.286 -12.381  0.00  0.00    -0.505 OA
ATOM     23  H   UNL     1      33.633 -25.146 -12.010  0.00  0.00    +0.292 HD
ENDBRANCH  18  22
TORSDOF 1
ENDMDL
MODEL 7
REMARK VINA RESULT:      -9.6      1.273      6.510
REMARK  Name = 6323454
REMARK  1 active torsions:
REMARK  status: ('A' for Active; 'I' for Inactive)
REMARK    1  A    between atoms: C_18  and  O_22
REMARK                            x       y       z     vdW  Elec       q    Type
REMARK                         _______ _______ _______ _____ _____    ______ ____
ROOT
ATOM      1  O   UNL     1      36.653 -21.888 -18.946  0.00  0.00    -0.350 OA
ATOM      2  O   UNL     1      33.130 -21.991 -18.795  0.00  0.00    -0.445 OA
ATOM      3  O   UNL     1      32.559 -23.780 -16.730  0.00  0.00    -0.287 OA
ATOM      4  O   UNL     1      32.314 -20.724 -20.540  0.00  0.00    -0.250 OA
ATOM      5  O   UNL     1      37.598 -23.345 -15.043  0.00  0.00    -0.287 OA
ATOM      6  C   UNL     1      35.329 -21.398 -18.929  0.00  0.00    +0.171 C 
ATOM      7  C   UNL     1      34.419 -22.535 -18.538  0.00  0.00    +0.221 C 
ATOM      8  C   UNL     1      34.742 -22.955 -17.137  0.00  0.00    +0.060 C 
ATOM      9  C   UNL     1      37.106 -22.207 -17.602  0.00  0.00    +0.141 C 
ATOM     10  C   UNL     1      36.014 -22.819 -16.714  0.00  0.00    +0.046 C 
ATOM     11  C   UNL     1      34.716 -21.013 -20.252  0.00  0.00    +0.143 C 
ATOM     12  C   UNL     1      33.253 -21.197 -19.918  0.00  0.00    +0.320 C 
ATOM     13  C   UNL     1      33.688 -23.577 -16.300  0.00  0.00    +0.195 C 
ATOM     14  C   UNL     1      36.418 -23.328 -15.372  0.00  0.00    +0.197 C 
ATOM     15  C   UNL     1      37.716 -20.934 -17.008  0.00  0.00    +0.037 C 
ATOM     16  C   UNL     1      34.046 -23.950 -14.920  0.00  0.00    +0.045 C 
ATOM     17  C   UNL     1      35.361 -23.829 -14.474  0.00  0.00    +0.075 C 
ATOM     18  C   UNL     1      35.688 -24.198 -13.163  0.00  0.00    +0.137 C 
ATOM     19  C   UNL     1      33.057 -24.440 -14.059  0.00  0.00    +0.003 C 
ATOM     20  C   UNL     1      34.700 -24.682 -12.305  0.00  0.00    +0.037 C 
ATOM     21  C   UNL     1      33.387 -24.804 -12.753  0.00  0.00    +0.003 C 
ENDROOT
BRANCH  18  22
ATOM     22  O   UNL     1      36.952 -24.098 -12.661  0.00  0.00    -0.505 OA
ATOM     23  H   UNL     1      37.098 -23.667 -11.842  0.00  0.00    +0.292 HD
ENDBRANCH  18  22
TORSDOF 1
ENDMDL
MODEL 8
REMARK VINA RESULT:      -9.6      2.205      4.887
REMARK  Name = 6323454
REMARK  1 active torsions:
REMARK  status: ('A' for Active; 'I' for Inactive)
REMARK    1  A    between atoms: C_18  and  O_22
REMARK                            x       y       z     vdW  Elec       q    Type
REMARK                         _______ _______ _______ _____ _____    ______ ____
ROOT
ATOM      1  O   UNL     1      35.796 -22.759 -16.280  0.00  0.00    -0.350 OA
ATOM      2  O   UNL     1      35.728 -25.121 -13.661  0.00  0.00    -0.445 OA
ATOM      3  O   UNL     1      33.085 -25.111 -12.764  0.00  0.00    -0.287 OA
ATOM      4  O   UNL     1      37.889 -25.845 -13.312  0.00  0.00    -0.250 OA
ATOM      5  O   UNL     1      31.638 -22.613 -17.246  0.00  0.00    -0.287 OA
ATOM      6  C   UNL     1      36.053 -23.971 -15.605  0.00  0.00    +0.171 C 
ATOM      7  C   UNL     1      35.205 -23.997 -14.359  0.00  0.00    +0.221 C 
ATOM      8  C   UNL     1      33.761 -24.022 -14.756  0.00  0.00    +0.060 C 
ATOM      9  C   UNL     1      34.446 -22.740 -16.818  0.00  0.00    +0.141 C 
ATOM     10  C   UNL     1      33.410 -23.407 -15.903  0.00  0.00    +0.046 C 
ATOM     11  C   UNL     1      37.422 -24.148 -14.996  0.00  0.00    +0.143 C 
ATOM     12  C   UNL     1      37.088 -25.138 -13.902  0.00  0.00    +0.320 C 
ATOM     13  C   UNL     1      32.765 -24.638 -13.848  0.00  0.00    +0.195 C 
ATOM     14  C   UNL     1      31.974 -23.299 -16.288  0.00  0.00    +0.197 C 
ATOM     15  C   UNL     1      34.498 -23.364 -18.216  0.00  0.00    +0.037 C 
ATOM     16  C   UNL     1      31.360 -24.663 -14.294  0.00  0.00    +0.045 C 
ATOM     17  C   UNL     1      30.980 -24.017 -15.469  0.00  0.00    +0.075 C 
ATOM     18  C   UNL     1      29.640 -24.039 -15.874  0.00  0.00    +0.137 C 
ATOM     19  C   UNL     1      30.402 -25.329 -13.520  0.00  0.00    +0.003 C 
ATOM     20  C   UNL     1      28.687 -24.707 -15.103  0.00  0.00    +0.037 C 
ATOM     21  C   UNL     1      29.068 -25.350 -13.928  0.00  0.00    +0.003 C 
ENDROOT
BRANCH  18  22
ATOM     22  O   UNL     1      29.202 -23.435 -17.016  0.00  0.00    -0.505 OA
ATOM     23  H   UNL     1      29.687 -23.532 -17.812  0.00  0.00    +0.292 HD
ENDBRANCH  18  22
TORSDOF 1
ENDMDL
MODEL 9
REMARK VINA RESULT:      -9.5      2.466      5.526
REMARK  Name = 6323454
REMARK  1 active torsions:
REMARK  status: ('A' for Active; 'I' for Inactive)
REMARK    1  A    between atoms: C_18  and  O_22
REMARK                            x       y       z     vdW  Elec       q    Type
REMARK                         _______ _______ _______ _____ _____    ______ ____
ROOT
ATOM      1  O   UNL     1      30.546 -24.127 -13.549  0.00  0.00    -0.350 OA
ATOM      2  O   UNL     1      29.762 -23.719 -16.964  0.00  0.00    -0.445 OA
ATOM      3  O   UNL     1      31.954 -22.368 -18.040  0.00  0.00    -0.287 OA
ATOM      4  O   UNL     1      27.616 -24.497 -17.290  0.00  0.00    -0.250 OA
ATOM      5  O   UNL     1      34.787 -23.639 -13.706  0.00  0.00    -0.287 OA
ATOM      6  C   UNL     1      30.092 -24.479 -14.838  0.00  0.00    +0.171 C 
ATOM      7  C   UNL     1      30.476 -23.370 -15.784  0.00  0.00    +0.221 C 
ATOM      8  C   UNL     1      31.970 -23.293 -15.859  0.00  0.00    +0.060 C 
ATOM      9  C   UNL     1      31.998 -24.149 -13.487  0.00  0.00    +0.141 C 
ATOM     10  C   UNL     1      32.677 -23.639 -14.765  0.00  0.00    +0.046 C 
ATOM     11  C   UNL     1      28.600 -24.510 -15.062  0.00  0.00    +0.143 C 
ATOM     12  C   UNL     1      28.561 -24.262 -16.553  0.00  0.00    +0.320 C 
ATOM     13  C   UNL     1      32.613 -22.766 -17.087  0.00  0.00    +0.195 C 
ATOM     14  C   UNL     1      34.158 -23.471 -14.744  0.00  0.00    +0.197 C 
ATOM     15  C   UNL     1      32.422 -25.573 -13.113  0.00  0.00    +0.037 C 
ATOM     16  C   UNL     1      34.086 -22.735 -17.125  0.00  0.00    +0.045 C 
ATOM     17  C   UNL     1      34.829 -23.075 -15.995  0.00  0.00    +0.075 C 
ATOM     18  C   UNL     1      36.228 -23.029 -16.043  0.00  0.00    +0.137 C 
ATOM     19  C   UNL     1      34.738 -22.348 -18.302  0.00  0.00    +0.003 C 
ATOM     20  C   UNL     1      36.876 -22.646 -17.218  0.00  0.00    +0.037 C 
ATOM     21  C   UNL     1      36.132 -22.306 -18.345  0.00  0.00    +0.003 C 
ENDROOT
BRANCH  18  22
ATOM     22  O   UNL     1      37.015 -23.355 -14.978  0.00  0.00    -0.505 OA
ATOM     23  H   UNL     1      37.614 -22.725 -14.628  0.00  0.00    +0.292 HD
ENDBRANCH  18  22
TORSDOF 1
ENDMDL
