MODEL 1
REMARK VINA RESULT:     -11.9      0.000      0.000
REMARK  Name = 3151
REMARK  5 active torsions:
REMARK  status: ('A' for Active; 'I' for Inactive)
REMARK    1  A    between atoms: N_1  and  C_20
REMARK    2  A    between atoms: C_2  and  N_10
REMARK    3  A    between atoms: C_20  and  C_21
REMARK    4  A    between atoms: C_21  and  C_22
REMARK    5  A    between atoms: C_22  and  N_24
REMARK                            x       y       z     vdW  Elec       q    Type
REMARK                         _______ _______ _______ _____ _____    ______ ____
ROOT
ATOM      1  N   UNL     1      35.075 -16.036 -23.221  0.00  0.00    +0.387 N 
ATOM      2  C   UNL     1      34.865 -18.501 -21.661  0.00  0.00    +0.086 C 
ATOM      3  C   UNL     1      35.009 -17.129 -21.003  0.00  0.00    -0.000 C 
ATOM      4  C   UNL     1      35.454 -18.476 -23.071  0.00  0.00    -0.000 C 
ATOM      5  C   UNL     1      34.442 -16.024 -21.895  0.00  0.00    -0.075 C 
ATOM      6  C   UNL     1      34.871 -17.326 -23.895  0.00  0.00    -0.075 C 
ATOM      7  H   UNL     1      36.077 -15.904 -23.093  0.00  0.00    -0.080 HD
ENDROOT
BRANCH   2  10
ATOM      8 CL   UNL     1      33.445 -23.950 -17.614  0.00  0.00    -0.082 Cl
ATOM      9  O   UNL     1      37.803 -19.043 -21.105  0.00  0.00    -0.247 OA
ATOM     10  N   UNL     1      35.488 -19.524 -20.857  0.00  0.00    -0.282 N 
ATOM     11  N   UNL     1      36.997 -20.836 -19.790  0.00  0.00    -0.305 N 
ATOM     12  C   UNL     1      34.784 -20.507 -20.148  0.00  0.00    +0.079 A 
ATOM     13  C   UNL     1      36.881 -19.707 -20.650  0.00  0.00    +0.328 A 
ATOM     14  C   UNL     1      35.718 -21.310 -19.495  0.00  0.00    +0.077 A 
ATOM     15  C   UNL     1      33.430 -20.742 -20.039  0.00  0.00    +0.020 C 
ATOM     16  C   UNL     1      35.351 -22.378 -18.707  0.00  0.00    +0.030 C 
ATOM     17  C   UNL     1      33.032 -21.821 -19.242  0.00  0.00    +0.013 C 
ATOM     18  C   UNL     1      33.982 -22.629 -18.584  0.00  0.00    +0.059 C 
ATOM     19  H   UNL     1      37.840 -21.220 -19.459  0.00  0.00    +0.170 HD
ENDBRANCH   2  10
BRANCH   1  20
ATOM     20  C   UNL     1      34.557 -14.942 -24.045  0.00  0.00    -0.075 C 
BRANCH  20  21
ATOM     21  C   UNL     1      34.184 -13.720 -23.202  0.00  0.00    +0.002 C 
BRANCH  21  22
ATOM     22  C   UNL     1      32.683 -13.454 -23.105  0.00  0.00    +0.108 C 
BRANCH  22  24
ATOM     23  O   UNL     1      31.963 -14.655 -20.430  0.00  0.00    -0.247 OA
ATOM     24  N   UNL     1      32.318 -12.800 -21.877  0.00  0.00    -0.280 N 
ATOM     25  N   UNL     1      31.698 -12.414 -19.725  0.00  0.00    -0.305 N 
ATOM     26  C   UNL     1      32.223 -11.411 -21.686  0.00  0.00    +0.079 A 
ATOM     27  C   UNL     1      31.991 -13.453 -20.653  0.00  0.00    +0.328 A 
ATOM     28  C   UNL     1      31.843 -11.182 -20.365  0.00  0.00    +0.076 A 
ATOM     29  C   UNL     1      32.441 -10.370 -22.565  0.00  0.00    +0.019 C 
ATOM     30  C   UNL     1      31.663  -9.916 -19.857  0.00  0.00    +0.019 C 
ATOM     31  C   UNL     1      32.264  -9.073 -22.072  0.00  0.00    +0.002 C 
ATOM     32  C   UNL     1      31.880  -8.848 -20.733  0.00  0.00    +0.002 C 
ATOM     33  H   UNL     1      31.436 -12.543 -18.784  0.00  0.00    +0.170 HD
ENDBRANCH  22  24
ENDBRANCH  21  22
ENDBRANCH  20  21
ENDBRANCH   1  20
TORSDOF 5
ENDMDL
MODEL 2
REMARK VINA RESULT:     -11.2      4.447     10.924
REMARK  Name = 3151
REMARK  5 active torsions:
REMARK  status: ('A' for Active; 'I' for Inactive)
REMARK    1  A    between atoms: N_1  and  C_20
REMARK    2  A    between atoms: C_2  and  N_10
REMARK    3  A    between atoms: C_20  and  C_21
REMARK    4  A    between atoms: C_21  and  C_22
REMARK    5  A    between atoms: C_22  and  N_24
REMARK                            x       y       z     vdW  Elec       q    Type
REMARK                         _______ _______ _______ _____ _____    ______ ____
ROOT
ATOM      1  N   UNL     1      35.194 -21.879 -19.487  0.00  0.00    +0.387 N 
ATOM      2  C   UNL     1      34.950 -19.295 -20.835  0.00  0.00    +0.086 C 
ATOM      3  C   UNL     1      33.784 -20.279 -20.742  0.00  0.00    -0.000 C 
ATOM      4  C   UNL     1      36.280 -20.041 -20.734  0.00  0.00    -0.000 C 
ATOM      5  C   UNL     1      33.907 -21.168 -19.503  0.00  0.00    -0.075 C 
ATOM      6  C   UNL     1      36.321 -20.937 -19.495  0.00  0.00    -0.075 C 
ATOM      7  H   UNL     1      35.251 -22.446 -20.332  0.00  0.00    -0.080 HD
ENDROOT
BRANCH   2  10
ATOM      8 CL   UNL     1      34.212 -12.832 -23.236  0.00  0.00    -0.082 Cl
ATOM      9  O   UNL     1      35.103 -20.195 -23.734  0.00  0.00    -0.247 OA
ATOM     10  N   UNL     1      34.877 -18.528 -22.054  0.00  0.00    -0.282 N 
ATOM     11  N   UNL     1      34.835 -17.898 -24.231  0.00  0.00    -0.305 N 
ATOM     12  C   UNL     1      34.710 -17.137 -22.101  0.00  0.00    +0.079 A 
ATOM     13  C   UNL     1      34.958 -19.033 -23.379  0.00  0.00    +0.328 A 
ATOM     14  C   UNL     1      34.686 -16.758 -23.442  0.00  0.00    +0.077 A 
ATOM     15  C   UNL     1      34.584 -16.210 -21.088  0.00  0.00    +0.020 C 
ATOM     16  C   UNL     1      34.535 -15.447 -23.836  0.00  0.00    +0.030 C 
ATOM     17  C   UNL     1      34.429 -14.872 -21.462  0.00  0.00    +0.013 C 
ATOM     18  C   UNL     1      34.404 -14.495 -22.821  0.00  0.00    +0.059 C 
ATOM     19  H   UNL     1      34.853 -17.917 -25.215  0.00  0.00    +0.170 HD
ENDBRANCH   2  10
BRANCH   1  20
ATOM     20  C   UNL     1      35.274 -22.763 -18.323  0.00  0.00    -0.075 C 
BRANCH  20  21
ATOM     21  C   UNL     1      36.444 -22.394 -17.406  0.00  0.00    +0.002 C 
BRANCH  21  22
ATOM     22  C   UNL     1      36.102 -22.391 -15.917  0.00  0.00    +0.108 C 
BRANCH  22  24
ATOM     23  O   UNL     1      33.628 -24.050 -15.427  0.00  0.00    -0.247 OA
ATOM     24  N   UNL     1      35.984 -23.718 -15.376  0.00  0.00    -0.280 N 
ATOM     25  N   UNL     1      35.133 -25.688 -14.627  0.00  0.00    -0.305 N 
ATOM     26  C   UNL     1      37.051 -24.529 -14.954  0.00  0.00    +0.079 A 
ATOM     27  C   UNL     1      34.764 -24.429 -15.178  0.00  0.00    +0.328 A 
ATOM     28  C   UNL     1      36.522 -25.734 -14.496  0.00  0.00    +0.076 A 
ATOM     29  C   UNL     1      38.409 -24.288 -14.946  0.00  0.00    +0.019 C 
ATOM     30  C   UNL     1      37.313 -26.751 -14.011  0.00  0.00    +0.019 C 
ATOM     31  C   UNL     1      39.234 -25.306 -14.458  0.00  0.00    +0.002 C 
ATOM     32  C   UNL     1      38.693 -26.525 -13.996  0.00  0.00    +0.002 C 
ATOM     33  H   UNL     1      34.511 -26.409 -14.376  0.00  0.00    +0.170 HD
ENDBRANCH  22  24
ENDBRANCH  21  22
ENDBRANCH  20  21
ENDBRANCH   1  20
TORSDOF 5
ENDMDL
MODEL 3
REMARK VINA RESULT:     -11.1      4.172      9.924
REMARK  Name = 3151
REMARK  5 active torsions:
REMARK  status: ('A' for Active; 'I' for Inactive)
REMARK    1  A    between atoms: N_1  and  C_20
REMARK    2  A    between atoms: C_2  and  N_10
REMARK    3  A    between atoms: C_20  and  C_21
REMARK    4  A    between atoms: C_21  and  C_22
REMARK    5  A    between atoms: C_22  and  N_24
REMARK                            x       y       z     vdW  Elec       q    Type
REMARK                         _______ _______ _______ _____ _____    ______ ____
ROOT
ATOM      1  N   UNL     1      35.662 -21.375 -19.943  0.00  0.00    +0.387 N 
ATOM      2  C   UNL     1      35.048 -18.808 -21.205  0.00  0.00    +0.086 C 
ATOM      3  C   UNL     1      34.030 -19.946 -21.132  0.00  0.00    -0.000 C 
ATOM      4  C   UNL     1      36.470 -19.367 -21.139  0.00  0.00    -0.000 C 
ATOM      5  C   UNL     1      34.290 -20.847 -19.924  0.00  0.00    -0.075 C 
ATOM      6  C   UNL     1      36.649 -20.287 -19.930  0.00  0.00    -0.075 C 
ATOM      7  H   UNL     1      35.785 -21.902 -20.806  0.00  0.00    -0.080 HD
ENDROOT
BRANCH   2  10
ATOM      8 CL   UNL     1      33.943 -12.326 -23.404  0.00  0.00    -0.082 Cl
ATOM      9  O   UNL     1      34.985 -19.651 -24.123  0.00  0.00    -0.247 OA
ATOM     10  N   UNL     1      34.854 -18.021 -22.397  0.00  0.00    -0.282 N 
ATOM     11  N   UNL     1      34.616 -17.354 -24.550  0.00  0.00    -0.305 N 
ATOM     12  C   UNL     1      34.648 -16.635 -22.402  0.00  0.00    +0.079 A 
ATOM     13  C   UNL     1      34.839 -18.500 -23.735  0.00  0.00    +0.328 A 
ATOM     14  C   UNL     1      34.502 -16.232 -23.728  0.00  0.00    +0.077 A 
ATOM     15  C   UNL     1      34.581 -15.731 -21.362  0.00  0.00    +0.020 C 
ATOM     16  C   UNL     1      34.285 -14.919 -24.081  0.00  0.00    +0.030 C 
ATOM     17  C   UNL     1      34.360 -14.391 -21.696  0.00  0.00    +0.013 C 
ATOM     18  C   UNL     1      34.214 -13.990 -23.040  0.00  0.00    +0.059 C 
ATOM     19  H   UNL     1      34.554 -17.354 -25.532  0.00  0.00    +0.170 HD
ENDBRANCH   2  10
BRANCH   1  20
ATOM     20  C   UNL     1      35.879 -22.275 -18.808  0.00  0.00    -0.075 C 
BRANCH  20  21
ATOM     21  C   UNL     1      34.665 -22.321 -17.876  0.00  0.00    +0.002 C 
BRANCH  21  22
ATOM     22  C   UNL     1      34.266 -23.726 -17.428  0.00  0.00    +0.108 C 
BRANCH  22  24
ATOM     23  O   UNL     1      35.885 -24.181 -14.921  0.00  0.00    -0.247 OA
ATOM     24  N   UNL     1      33.836 -23.766 -16.057  0.00  0.00    -0.280 N 
ATOM     25  N   UNL     1      33.822 -23.944 -13.791  0.00  0.00    -0.305 N 
ATOM     26  C   UNL     1      32.516 -23.592 -15.608  0.00  0.00    +0.079 A 
ATOM     27  C   UNL     1      34.677 -23.989 -14.928  0.00  0.00    +0.328 A 
ATOM     28  C   UNL     1      32.515 -23.703 -14.219  0.00  0.00    +0.076 A 
ATOM     29  C   UNL     1      31.354 -23.352 -16.312  0.00  0.00    +0.019 C 
ATOM     30  C   UNL     1      31.367 -23.580 -13.468  0.00  0.00    +0.019 C 
ATOM     31  C   UNL     1      30.175 -23.224 -15.572  0.00  0.00    +0.002 C 
ATOM     32  C   UNL     1      30.181 -23.335 -14.165  0.00  0.00    +0.002 C 
ATOM     33  H   UNL     1      34.105 -24.063 -12.855  0.00  0.00    +0.170 HD
ENDBRANCH  22  24
ENDBRANCH  21  22
ENDBRANCH  20  21
ENDBRANCH   1  20
TORSDOF 5
ENDMDL
MODEL 4
REMARK VINA RESULT:     -11.1      3.135      5.512
REMARK  Name = 3151
REMARK  5 active torsions:
REMARK  status: ('A' for Active; 'I' for Inactive)
REMARK    1  A    between atoms: N_1  and  C_20
REMARK    2  A    between atoms: C_2  and  N_10
REMARK    3  A    between atoms: C_20  and  C_21
REMARK    4  A    between atoms: C_21  and  C_22
REMARK    5  A    between atoms: C_22  and  N_24
REMARK                            x       y       z     vdW  Elec       q    Type
REMARK                         _______ _______ _______ _____ _____    ______ ____
ROOT
ATOM      1  N   UNL     1      34.829 -20.526 -20.079  0.00  0.00    +0.387 N 
ATOM      2  C   UNL     1      34.800 -22.710 -18.134  0.00  0.00    +0.086 C 
ATOM      3  C   UNL     1      33.541 -21.919 -18.491  0.00  0.00    -0.000 C 
ATOM      4  C   UNL     1      36.047 -21.865 -18.395  0.00  0.00    -0.000 C 
ATOM      5  C   UNL     1      33.626 -21.353 -19.910  0.00  0.00    -0.075 C 
ATOM      6  C   UNL     1      36.048 -21.302 -19.817  0.00  0.00    -0.075 C 
ATOM      7  H   UNL     1      34.787 -19.766 -19.401  0.00  0.00    -0.080 HD
ENDROOT
BRANCH   2  10
ATOM      8 CL   UNL     1      30.442 -24.881 -13.197  0.00  0.00    -0.082 Cl
ATOM      9  O   UNL     1      37.036 -23.065 -16.108  0.00  0.00    -0.247 OA
ATOM     10  N   UNL     1      34.753 -23.158 -16.764  0.00  0.00    -0.282 N 
ATOM     11  N   UNL     1      35.308 -23.765 -14.652  0.00  0.00    -0.305 N 
ATOM     12  C   UNL     1      33.579 -23.529 -16.096  0.00  0.00    +0.079 A 
ATOM     13  C   UNL     1      35.857 -23.296 -15.880  0.00  0.00    +0.328 A 
ATOM     14  C   UNL     1      33.928 -23.901 -14.799  0.00  0.00    +0.077 A 
ATOM     15  C   UNL     1      32.269 -23.565 -16.528  0.00  0.00    +0.020 C 
ATOM     16  C   UNL     1      32.997 -24.323 -13.876  0.00  0.00    +0.030 C 
ATOM     17  C   UNL     1      31.305 -23.989 -15.608  0.00  0.00    +0.013 C 
ATOM     18  C   UNL     1      31.665 -24.364 -14.297  0.00  0.00    +0.059 C 
ATOM     19  H   UNL     1      35.820 -23.961 -13.835  0.00  0.00    +0.170 HD
ENDBRANCH   2  10
BRANCH   1  20
ATOM     20  C   UNL     1      34.868 -19.952 -21.426  0.00  0.00    -0.075 C 
BRANCH  20  21
ATOM     21  C   UNL     1      35.251 -18.469 -21.404  0.00  0.00    +0.002 C 
BRANCH  21  22
ATOM     22  C   UNL     1      35.639 -17.897 -22.766  0.00  0.00    +0.108 C 
BRANCH  22  24
ATOM     23  O   UNL     1      34.844 -16.902 -25.503  0.00  0.00    -0.247 OA
ATOM     24  N   UNL     1      34.849 -16.752 -23.128  0.00  0.00    -0.280 N 
ATOM     25  N   UNL     1      33.732 -15.178 -24.327  0.00  0.00    -0.305 N 
ATOM     26  C   UNL     1      34.272 -15.838 -22.230  0.00  0.00    +0.079 A 
ATOM     27  C   UNL     1      34.521 -16.355 -24.457  0.00  0.00    +0.328 A 
ATOM     28  C   UNL     1      33.589 -14.876 -22.972  0.00  0.00    +0.076 A 
ATOM     29  C   UNL     1      34.304 -15.796 -20.851  0.00  0.00    +0.019 C 
ATOM     30  C   UNL     1      32.911 -13.833 -22.383  0.00  0.00    +0.019 C 
ATOM     31  C   UNL     1      33.622 -14.745 -20.230  0.00  0.00    +0.002 C 
ATOM     32  C   UNL     1      32.932 -13.774 -20.987  0.00  0.00    +0.002 C 
ATOM     33  H   UNL     1      33.349 -14.659 -25.072  0.00  0.00    +0.170 HD
ENDBRANCH  22  24
ENDBRANCH  21  22
ENDBRANCH  20  21
ENDBRANCH   1  20
TORSDOF 5
ENDMDL
MODEL 5
REMARK VINA RESULT:     -11.1      3.381      5.589
REMARK  Name = 3151
REMARK  5 active torsions:
REMARK  status: ('A' for Active; 'I' for Inactive)
REMARK    1  A    between atoms: N_1  and  C_20
REMARK    2  A    between atoms: C_2  and  N_10
REMARK    3  A    between atoms: C_20  and  C_21
REMARK    4  A    between atoms: C_21  and  C_22
REMARK    5  A    between atoms: C_22  and  N_24
REMARK                            x       y       z     vdW  Elec       q    Type
REMARK                         _______ _______ _______ _____ _____    ______ ____
ROOT
ATOM      1  N   UNL     1      35.124 -20.390 -20.213  0.00  0.00    +0.387 N 
ATOM      2  C   UNL     1      34.517 -22.625 -18.425  0.00  0.00    +0.086 C 
ATOM      3  C   UNL     1      33.447 -21.635 -18.886  0.00  0.00    -0.000 C 
ATOM      4  C   UNL     1      35.898 -21.971 -18.476  0.00  0.00    -0.000 C 
ATOM      5  C   UNL     1      33.800 -21.030 -20.246  0.00  0.00    -0.075 C 
ATOM      6  C   UNL     1      36.170 -21.355 -19.850  0.00  0.00    -0.075 C 
ATOM      7  H   UNL     1      35.104 -19.663 -19.500  0.00  0.00    -0.080 HD
ENDROOT
BRANCH   2  10
ATOM      8 CL   UNL     1      37.437 -23.983 -12.284  0.00  0.00    -0.082 Cl
ATOM      9  O   UNL     1      31.896 -23.583 -17.223  0.00  0.00    -0.247 OA
ATOM     10  N   UNL     1      34.225 -23.117 -17.102  0.00  0.00    -0.282 N 
ATOM     11  N   UNL     1      33.177 -23.939 -15.267  0.00  0.00    -0.305 N 
ATOM     12  C   UNL     1      35.174 -23.243 -16.079  0.00  0.00    +0.079 A 
ATOM     13  C   UNL     1      32.959 -23.548 -16.619  0.00  0.00    +0.328 A 
ATOM     14  C   UNL     1      34.524 -23.749 -14.955  0.00  0.00    +0.077 A 
ATOM     15  C   UNL     1      36.523 -22.955 -16.063  0.00  0.00    +0.020 C 
ATOM     16  C   UNL     1      35.180 -23.991 -13.769  0.00  0.00    +0.030 C 
ATOM     17  C   UNL     1      37.212 -23.194 -14.869  0.00  0.00    +0.013 C 
ATOM     18  C   UNL     1      36.547 -23.705 -13.735  0.00  0.00    +0.059 C 
ATOM     19  H   UNL     1      32.490 -24.286 -14.654  0.00  0.00    +0.170 HD
ENDBRANCH   2  10
BRANCH   1  20
ATOM     20  C   UNL     1      35.425 -19.773 -21.506  0.00  0.00    -0.075 C 
BRANCH  20  21
ATOM     21  C   UNL     1      34.901 -18.336 -21.589  0.00  0.00    +0.002 C 
BRANCH  21  22
ATOM     22  C   UNL     1      35.586 -17.475 -22.647  0.00  0.00    +0.108 C 
BRANCH  22  24
ATOM     23  O   UNL     1      34.835 -16.715 -25.470  0.00  0.00    -0.247 OA
ATOM     24  N   UNL     1      34.749 -16.404 -23.113  0.00  0.00    -0.280 N 
ATOM     25  N   UNL     1      33.590 -14.980 -24.454  0.00  0.00    -0.305 N 
ATOM     26  C   UNL     1      34.092 -15.465 -22.300  0.00  0.00    +0.079 A 
ATOM     27  C   UNL     1      34.447 -16.117 -24.477  0.00  0.00    +0.328 A 
ATOM     28  C   UNL     1      33.384 -14.596 -23.128  0.00  0.00    +0.076 A 
ATOM     29  C   UNL     1      34.073 -15.327 -20.927  0.00  0.00    +0.019 C 
ATOM     30  C   UNL     1      32.630 -13.555 -22.636  0.00  0.00    +0.019 C 
ATOM     31  C   UNL     1      33.314 -14.276 -20.402  0.00  0.00    +0.002 C 
ATOM     32  C   UNL     1      32.599 -13.400 -21.247  0.00  0.00    +0.002 C 
ATOM     33  H   UNL     1      33.206 -14.536 -25.245  0.00  0.00    +0.170 HD
ENDBRANCH  22  24
ENDBRANCH  21  22
ENDBRANCH  20  21
ENDBRANCH   1  20
TORSDOF 5
ENDMDL
MODEL 6
REMARK VINA RESULT:     -11.0      3.699     10.240
REMARK  Name = 3151
REMARK  5 active torsions:
REMARK  status: ('A' for Active; 'I' for Inactive)
REMARK    1  A    between atoms: N_1  and  C_20
REMARK    2  A    between atoms: C_2  and  N_10
REMARK    3  A    between atoms: C_20  and  C_21
REMARK    4  A    between atoms: C_21  and  C_22
REMARK    5  A    between atoms: C_22  and  N_24
REMARK                            x       y       z     vdW  Elec       q    Type
REMARK                         _______ _______ _______ _____ _____    ______ ____
ROOT
ATOM      1  N   UNL     1      34.156 -14.657 -22.312  0.00  0.00    +0.387 N 
ATOM      2  C   UNL     1      32.300 -12.486 -21.679  0.00  0.00    +0.086 C 
ATOM      3  C   UNL     1      33.413 -12.332 -22.716  0.00  0.00    -0.000 C 
ATOM      4  C   UNL     1      32.671 -13.566 -20.663  0.00  0.00    -0.000 C 
ATOM      5  C   UNL     1      33.779 -13.679 -23.342  0.00  0.00    -0.075 C 
ATOM      6  C   UNL     1      33.060 -14.872 -21.357  0.00  0.00    -0.075 C 
ATOM      7  H   UNL     1      34.952 -14.282 -21.798  0.00  0.00    -0.080 HD
ENDROOT
BRANCH   2  10
ATOM      8 CL   UNL     1      32.307  -5.630 -22.715  0.00  0.00    -0.082 Cl
ATOM      9  O   UNL     1      31.357 -11.908 -18.849  0.00  0.00    -0.247 OA
ATOM     10  N   UNL     1      32.029 -11.230 -21.027  0.00  0.00    -0.282 N 
ATOM     11  N   UNL     1      31.463  -9.640 -19.513  0.00  0.00    -0.305 N 
ATOM     12  C   UNL     1      32.167  -9.977 -21.640  0.00  0.00    +0.079 A 
ATOM     13  C   UNL     1      31.587 -11.048 -19.689  0.00  0.00    +0.328 A 
ATOM     14  C   UNL     1      31.818  -9.005 -20.703  0.00  0.00    +0.077 A 
ATOM     15  C   UNL     1      32.564  -9.638 -22.917  0.00  0.00    +0.020 C 
ATOM     16  C   UNL     1      31.846  -7.659 -20.991  0.00  0.00    +0.030 C 
ATOM     17  C   UNL     1      32.601  -8.276 -23.233  0.00  0.00    +0.013 C 
ATOM     18  C   UNL     1      32.246  -7.298 -22.280  0.00  0.00    +0.059 C 
ATOM     19  H   UNL     1      31.174  -9.190 -18.687  0.00  0.00    +0.170 HD
ENDBRANCH   2  10
BRANCH   1  20
ATOM     20  C   UNL     1      34.551 -15.924 -22.930  0.00  0.00    -0.075 C 
BRANCH  20  21
ATOM     21  C   UNL     1      35.017 -16.947 -21.890  0.00  0.00    +0.002 C 
BRANCH  21  22
ATOM     22  C   UNL     1      35.193 -18.363 -22.433  0.00  0.00    +0.108 C 
BRANCH  22  24
ATOM     23  O   UNL     1      38.021 -18.839 -21.489  0.00  0.00    -0.247 OA
ATOM     24  N   UNL     1      35.683 -19.278 -21.438  0.00  0.00    -0.280 N 
ATOM     25  N   UNL     1      37.052 -20.443 -20.048  0.00  0.00    -0.305 N 
ATOM     26  C   UNL     1      34.897 -20.164 -20.683  0.00  0.00    +0.079 A 
ATOM     27  C   UNL     1      37.046 -19.437 -21.054  0.00  0.00    +0.328 A 
ATOM     28  C   UNL     1      35.742 -20.875 -19.833  0.00  0.00    +0.076 A 
ATOM     29  C   UNL     1      33.534 -20.382 -20.690  0.00  0.00    +0.019 C 
ATOM     30  C   UNL     1      35.278 -21.829 -18.956  0.00  0.00    +0.019 C 
ATOM     31  C   UNL     1      33.038 -21.347 -19.808  0.00  0.00    +0.002 C 
ATOM     32  C   UNL     1      33.899 -22.062 -18.950  0.00  0.00    +0.002 C 
ATOM     33  H   UNL     1      37.850 -20.781 -19.579  0.00  0.00    +0.170 HD
ENDBRANCH  22  24
ENDBRANCH  21  22
ENDBRANCH  20  21
ENDBRANCH   1  20
TORSDOF 5
ENDMDL
MODEL 7
REMARK VINA RESULT:     -11.0      4.449      7.312
REMARK  Name = 3151
REMARK  5 active torsions:
REMARK  status: ('A' for Active; 'I' for Inactive)
REMARK    1  A    between atoms: N_1  and  C_20
REMARK    2  A    between atoms: C_2  and  N_10
REMARK    3  A    between atoms: C_20  and  C_21
REMARK    4  A    between atoms: C_21  and  C_22
REMARK    5  A    between atoms: C_22  and  N_24
REMARK                            x       y       z     vdW  Elec       q    Type
REMARK                         _______ _______ _______ _____ _____    ______ ____
ROOT
ATOM      1  N   UNL     1      32.179 -10.394 -22.398  0.00  0.00    +0.387 N 
ATOM      2  C   UNL     1      33.619 -12.834 -23.126  0.00  0.00    +0.086 C 
ATOM      3  C   UNL     1      33.744 -11.541 -23.933  0.00  0.00    -0.000 C 
ATOM      4  C   UNL     1      32.284 -12.865 -22.382  0.00  0.00    -0.000 C 
ATOM      5  C   UNL     1      33.491 -10.314 -23.055  0.00  0.00    -0.075 C 
ATOM      6  C   UNL     1      32.080 -11.594 -21.556  0.00  0.00    -0.075 C 
ATOM      7  H   UNL     1      31.466 -10.460 -23.123  0.00  0.00    -0.080 HD
ENDROOT
BRANCH   2  10
ATOM      8 CL   UNL     1      35.576 -19.485 -23.109  0.00  0.00    -0.082 Cl
ATOM      9  O   UNL     1      33.046 -13.165 -26.092  0.00  0.00    -0.247 OA
ATOM     10  N   UNL     1      33.765 -13.986 -23.980  0.00  0.00    -0.282 N 
ATOM     11  N   UNL     1      33.774 -15.390 -25.760  0.00  0.00    -0.305 N 
ATOM     12  C   UNL     1      34.230 -15.235 -23.546  0.00  0.00    +0.079 A 
ATOM     13  C   UNL     1      33.470 -14.055 -25.369  0.00  0.00    +0.328 A 
ATOM     14  C   UNL     1      34.233 -16.092 -24.645  0.00  0.00    +0.077 A 
ATOM     15  C   UNL     1      34.636 -15.661 -22.299  0.00  0.00    +0.020 C 
ATOM     16  C   UNL     1      34.638 -17.405 -24.556  0.00  0.00    +0.030 C 
ATOM     17  C   UNL     1      35.054 -16.991 -22.183  0.00  0.00    +0.013 C 
ATOM     18  C   UNL     1      35.054 -17.853 -23.299  0.00  0.00    +0.059 C 
ATOM     19  H   UNL     1      33.676 -15.757 -26.668  0.00  0.00    +0.170 HD
ENDBRANCH   2  10
BRANCH   1  20
ATOM     20  C   UNL     1      31.931  -9.190 -21.603  0.00  0.00    -0.075 C 
BRANCH  20  21
ATOM     21  C   UNL     1      31.604  -7.981 -22.484  0.00  0.00    +0.002 C 
BRANCH  21  22
ATOM     22  C   UNL     1      32.087  -6.644 -21.925  0.00  0.00    +0.108 C 
BRANCH  22  24
ATOM     23  O   UNL     1      29.980  -4.482 -21.949  0.00  0.00    -0.247 OA
ATOM     24  N   UNL     1      31.900  -5.560 -22.851  0.00  0.00    -0.280 N 
ATOM     25  N   UNL     1      31.080  -3.717 -23.898  0.00  0.00    -0.305 N 
ATOM     26  C   UNL     1      32.703  -5.294 -23.973  0.00  0.00    +0.079 A 
ATOM     27  C   UNL     1      30.869  -4.578 -22.785  0.00  0.00    +0.328 A 
ATOM     28  C   UNL     1      32.195  -4.163 -24.609  0.00  0.00    +0.076 A 
ATOM     29  C   UNL     1      33.814  -5.954 -24.456  0.00  0.00    +0.019 C 
ATOM     30  C   UNL     1      32.762  -3.638 -25.748  0.00  0.00    +0.019 C 
ATOM     31  C   UNL     1      34.408  -5.440 -25.613  0.00  0.00    +0.002 C 
ATOM     32  C   UNL     1      33.889  -4.294 -26.252  0.00  0.00    +0.002 C 
ATOM     33  H   UNL     1      30.528  -2.934 -24.130  0.00  0.00    +0.170 HD
ENDBRANCH  22  24
ENDBRANCH  21  22
ENDBRANCH  20  21
ENDBRANCH   1  20
TORSDOF 5
ENDMDL
MODEL 8
REMARK VINA RESULT:     -10.7      3.437      6.027
REMARK  Name = 3151
REMARK  5 active torsions:
REMARK  status: ('A' for Active; 'I' for Inactive)
REMARK    1  A    between atoms: N_1  and  C_20
REMARK    2  A    between atoms: C_2  and  N_10
REMARK    3  A    between atoms: C_20  and  C_21
REMARK    4  A    between atoms: C_21  and  C_22
REMARK    5  A    between atoms: C_22  and  N_24
REMARK                            x       y       z     vdW  Elec       q    Type
REMARK                         _______ _______ _______ _____ _____    ______ ____
ROOT
ATOM      1  N   UNL     1      35.377 -20.672 -19.868  0.00  0.00    +0.387 N 
ATOM      2  C   UNL     1      34.350 -22.802 -18.146  0.00  0.00    +0.086 C 
ATOM      3  C   UNL     1      33.427 -21.820 -18.868  0.00  0.00    -0.000 C 
ATOM      4  C   UNL     1      35.728 -22.173 -17.935  0.00  0.00    -0.000 C 
ATOM      5  C   UNL     1      34.074 -21.290 -20.149  0.00  0.00    -0.075 C 
ATOM      6  C   UNL     1      36.298 -21.633 -19.248  0.00  0.00    -0.075 C 
ATOM      7  H   UNL     1      35.228 -19.908 -19.210  0.00  0.00    -0.080 HD
ENDROOT
BRANCH   2  10
ATOM      8 CL   UNL     1      35.988 -25.373 -11.919  0.00  0.00    -0.082 Cl
ATOM      9  O   UNL     1      31.452 -22.839 -17.234  0.00  0.00    -0.247 OA
ATOM     10  N   UNL     1      33.774 -23.221 -16.893  0.00  0.00    -0.282 N 
ATOM     11  N   UNL     1      32.328 -23.709 -15.217  0.00  0.00    -0.305 N 
ATOM     12  C   UNL     1      34.514 -23.717 -15.811  0.00  0.00    +0.079 A 
ATOM     13  C   UNL     1      32.396 -23.205 -16.547  0.00  0.00    +0.328 A 
ATOM     14  C   UNL     1      33.619 -24.015 -14.785  0.00  0.00    +0.077 A 
ATOM     15  C   UNL     1      35.870 -23.919 -15.666  0.00  0.00    +0.020 C 
ATOM     16  C   UNL     1      34.028 -24.525 -13.573  0.00  0.00    +0.030 C 
ATOM     17  C   UNL     1      36.310 -24.438 -14.443  0.00  0.00    +0.013 C 
ATOM     18  C   UNL     1      35.399 -24.737 -13.409  0.00  0.00    +0.059 C 
ATOM     19  H   UNL     1      31.505 -23.822 -14.689  0.00  0.00    +0.170 HD
ENDBRANCH   2  10
BRANCH   1  20
ATOM     20  C   UNL     1      35.959 -20.126 -21.096  0.00  0.00    -0.075 C 
BRANCH  20  21
ATOM     21  C   UNL     1      34.890 -19.538 -22.022  0.00  0.00    +0.002 C 
BRANCH  21  22
ATOM     22  C   UNL     1      35.416 -18.503 -23.015  0.00  0.00    +0.108 C 
BRANCH  22  24
ATOM     23  O   UNL     1      35.150 -17.001 -20.410  0.00  0.00    -0.247 OA
ATOM     24  N   UNL     1      34.891 -17.188 -22.768  0.00  0.00    -0.280 N 
ATOM     25  N   UNL     1      34.226 -15.275 -21.736  0.00  0.00    -0.305 N 
ATOM     26  C   UNL     1      34.380 -16.314 -23.742  0.00  0.00    +0.079 A 
ATOM     27  C   UNL     1      34.804 -16.553 -21.495  0.00  0.00    +0.328 A 
ATOM     28  C   UNL     1      33.974 -15.144 -23.103  0.00  0.00    +0.076 A 
ATOM     29  C   UNL     1      34.252 -16.471 -25.107  0.00  0.00    +0.019 C 
ATOM     30  C   UNL     1      33.425 -14.082 -23.784  0.00  0.00    +0.019 C 
ATOM     31  C   UNL     1      33.696 -15.405 -25.822  0.00  0.00    +0.002 C 
ATOM     32  C   UNL     1      33.288 -14.223 -25.168  0.00  0.00    +0.002 C 
ATOM     33  H   UNL     1      34.033 -14.594 -21.051  0.00  0.00    +0.170 HD
ENDBRANCH  22  24
ENDBRANCH  21  22
ENDBRANCH  20  21
ENDBRANCH   1  20
TORSDOF 5
ENDMDL
MODEL 9
REMARK VINA RESULT:     -10.7      1.794      2.313
REMARK  Name = 3151
REMARK  5 active torsions:
REMARK  status: ('A' for Active; 'I' for Inactive)
REMARK    1  A    between atoms: N_1  and  C_20
REMARK    2  A    between atoms: C_2  and  N_10
REMARK    3  A    between atoms: C_20  and  C_21
REMARK    4  A    between atoms: C_21  and  C_22
REMARK    5  A    between atoms: C_22  and  N_24
REMARK                            x       y       z     vdW  Elec       q    Type
REMARK                         _______ _______ _______ _____ _____    ______ ____
ROOT
ATOM      1  N   UNL     1      35.306 -17.449 -23.535  0.00  0.00    +0.387 N 
ATOM      2  C   UNL     1      34.825 -19.345 -21.360  0.00  0.00    +0.086 C 
ATOM      3  C   UNL     1      35.431 -17.962 -21.118  0.00  0.00    -0.000 C 
ATOM      4  C   UNL     1      35.101 -19.799 -22.793  0.00  0.00    -0.000 C 
ATOM      5  C   UNL     1      34.980 -16.965 -22.186  0.00  0.00    -0.075 C 
ATOM      6  C   UNL     1      34.660 -18.741 -23.805  0.00  0.00    -0.075 C 
ATOM      7  H   UNL     1      36.315 -17.585 -23.586  0.00  0.00    -0.080 HD
ENDROOT
BRANCH   2  10
ATOM      8 CL   UNL     1      32.807 -24.038 -16.671  0.00  0.00    -0.082 Cl
ATOM      9  O   UNL     1      37.685 -20.071 -20.636  0.00  0.00    -0.247 OA
ATOM     10  N   UNL     1      35.330 -20.300 -20.406  0.00  0.00    -0.282 N 
ATOM     11  N   UNL     1      36.685 -21.587 -19.122  0.00  0.00    -0.305 N 
ATOM     12  C   UNL     1      34.522 -21.110 -19.597  0.00  0.00    +0.079 A 
ATOM     13  C   UNL     1      36.696 -20.579 -20.128  0.00  0.00    +0.328 A 
ATOM     14  C   UNL     1      35.361 -21.897 -18.810  0.00  0.00    +0.077 A 
ATOM     15  C   UNL     1      33.149 -21.203 -19.503  0.00  0.00    +0.020 C 
ATOM     16  C   UNL     1      34.877 -22.810 -17.900  0.00  0.00    +0.030 C 
ATOM     17  C   UNL     1      32.633 -22.123 -18.584  0.00  0.00    +0.013 C 
ATOM     18  C   UNL     1      33.488 -22.917 -17.791  0.00  0.00    +0.059 C 
ATOM     19  H   UNL     1      37.481 -21.997 -18.714  0.00  0.00    +0.170 HD
ENDBRANCH   2  10
BRANCH   1  20
ATOM     20  C   UNL     1      34.914 -16.461 -24.542  0.00  0.00    -0.075 C 
BRANCH  20  21
ATOM     21  C   UNL     1      34.742 -15.065 -23.936  0.00  0.00    +0.002 C 
BRANCH  21  22
ATOM     22  C   UNL     1      33.476 -14.336 -24.379  0.00  0.00    +0.108 C 
BRANCH  22  24
ATOM     23  O   UNL     1      34.272 -11.595 -25.364  0.00  0.00    -0.247 OA
ATOM     24  N   UNL     1      33.325 -13.056 -23.741  0.00  0.00    -0.280 N 
ATOM     25  N   UNL     1      33.387 -10.825 -23.311  0.00  0.00    -0.305 N 
ATOM     26  C   UNL     1      32.751 -12.833 -22.479  0.00  0.00    +0.079 A 
ATOM     27  C   UNL     1      33.734 -11.803 -24.285  0.00  0.00    +0.328 A 
ATOM     28  C   UNL     1      32.793 -11.464 -22.222  0.00  0.00    +0.076 A 
ATOM     29  C   UNL     1      32.212 -13.721 -21.570  0.00  0.00    +0.019 C 
ATOM     30  C   UNL     1      32.304 -10.915 -21.057  0.00  0.00    +0.019 C 
ATOM     31  C   UNL     1      31.709 -13.187 -20.379  0.00  0.00    +0.002 C 
ATOM     32  C   UNL     1      31.753 -11.800 -20.125  0.00  0.00    +0.002 C 
ATOM     33  H   UNL     1      33.542  -9.856 -23.392  0.00  0.00    +0.170 HD
ENDBRANCH  22  24
ENDBRANCH  21  22
ENDBRANCH  20  21
ENDBRANCH   1  20
TORSDOF 5
ENDMDL
