MODEL 1
REMARK VINA RESULT:     -11.8      0.000      0.000
REMARK  Name = 11538455
REMARK  6 active torsions:
REMARK  status: ('A' for Active; 'I' for Inactive)
REMARK    1  A    between atoms: C_4  and  C_19
REMARK    2  A    between atoms: C_12  and  C_15
REMARK    3  A    between atoms: N_14  and  O_17
REMARK    4  A    between atoms: C_19  and  N_20
REMARK    5  A    between atoms: N_20  and  C_23
REMARK    6  A    between atoms: C_23  and  C_25
REMARK                            x       y       z     vdW  Elec       q    Type
REMARK                         _______ _______ _______ _____ _____    ______ ____
ROOT
ATOM      1  N   UNL     1      35.231 -22.520 -17.528  0.00  0.00    -0.253 N 
ATOM      2  N   UNL     1      36.581 -23.449 -15.828  0.00  0.00    -0.203 NA
ATOM      3  N   UNL     1      34.178 -23.502 -15.657  0.00  0.00    -0.180 NA
ATOM      4  C   UNL     1      34.999 -21.288 -20.137  0.00  0.00    -0.018 C 
ATOM      5  C   UNL     1      36.180 -20.989 -19.207  0.00  0.00    +0.020 C 
ATOM      6  C   UNL     1      33.765 -21.638 -19.300  0.00  0.00    +0.020 C 
ATOM      7  C   UNL     1      36.452 -22.151 -18.252  0.00  0.00    +0.101 C 
ATOM      8  C   UNL     1      34.046 -22.800 -18.350  0.00  0.00    +0.101 C 
ATOM      9  C   UNL     1      35.333 -23.180 -16.297  0.00  0.00    +0.090 C 
ATOM     10  C   UNL     1      36.643 -24.082 -14.638  0.00  0.00    +0.170 C 
ATOM     11  C   UNL     1      34.313 -24.134 -14.473  0.00  0.00    +0.113 C 
ATOM     12  C   UNL     1      35.531 -24.453 -13.909  0.00  0.00    +0.078 C 
ENDROOT
BRANCH  12  15
ATOM     13  O   UNL     1      34.881 -24.839 -11.686  0.00  0.00    -0.268 OA
ATOM     14  N   UNL     1      36.616 -26.112 -12.512  0.00  0.00    -0.194 N 
ATOM     15  C   UNL     1      35.636 -25.134 -12.634  0.00  0.00    +0.267 C 
ATOM     16  H   UNL     1      37.209 -26.342 -13.264  0.00  0.00    +0.183 HD
BRANCH  14  17
ATOM     17  O   UNL     1      36.720 -26.758 -11.272  0.00  0.00    -0.295 OA
ATOM     18  H   UNL     1      35.848 -26.789 -10.849  0.00  0.00    +0.241 HD
ENDBRANCH  14  17
ENDBRANCH  12  15
BRANCH   4  19
ATOM     19  C   UNL     1      34.716 -20.100 -21.054  0.00  0.00    -0.081 C 
BRANCH  19  20
ATOM     20  N   UNL     1      35.797 -19.129 -20.995  0.00  0.00    +0.386 N 
ATOM     21  H   UNL     1      36.672 -19.615 -20.797  0.00  0.00    -0.084 HD
ATOM     22  H   UNL     1      35.589 -18.455 -20.258  0.00  0.00    -0.084 HD
BRANCH  20  23
ATOM     23  C   UNL     1      35.925 -18.411 -22.257  0.00  0.00    -0.053 C 
BRANCH  23  25
ATOM     24  N   UNL     1      34.148 -15.322 -21.461  0.00  0.00    -0.284 N 
ATOM     25  C   UNL     1      35.150 -17.123 -22.213  0.00  0.00    -0.028 C 
ATOM     26  C   UNL     1      34.614 -16.451 -23.327  0.00  0.00    +0.009 C 
ATOM     27  C   UNL     1      34.861 -16.427 -21.081  0.00  0.00    +0.059 C 
ATOM     28  C   UNL     1      33.982 -15.311 -22.827  0.00  0.00    +0.051 C 
ATOM     29  C   UNL     1      34.593 -16.685 -24.716  0.00  0.00    +0.001 C 
ATOM     30  C   UNL     1      33.326 -14.388 -23.651  0.00  0.00    +0.015 C 
ATOM     31  C   UNL     1      33.649 -14.318 -20.545  0.00  0.00    +0.117 C 
ATOM     32  C   UNL     1      33.941 -15.770 -25.554  0.00  0.00    +0.000 C 
ATOM     33  C   UNL     1      33.319 -14.640 -25.026  0.00  0.00    +0.001 C 
ENDBRANCH  23  25
ENDBRANCH  20  23
ENDBRANCH  19  20
ENDBRANCH   4  19
TORSDOF 6
ENDMDL
MODEL 2
REMARK VINA RESULT:     -11.7      0.723      1.917
REMARK  Name = 11538455
REMARK  6 active torsions:
REMARK  status: ('A' for Active; 'I' for Inactive)
REMARK    1  A    between atoms: C_4  and  C_19
REMARK    2  A    between atoms: C_12  and  C_15
REMARK    3  A    between atoms: N_14  and  O_17
REMARK    4  A    between atoms: C_19  and  N_20
REMARK    5  A    between atoms: N_20  and  C_23
REMARK    6  A    between atoms: C_23  and  C_25
REMARK                            x       y       z     vdW  Elec       q    Type
REMARK                         _______ _______ _______ _____ _____    ______ ____
ROOT
ATOM      1  N   UNL     1      35.120 -22.420 -17.704  0.00  0.00    -0.253 N 
ATOM      2  N   UNL     1      36.476 -23.341 -16.005  0.00  0.00    -0.203 NA
ATOM      3  N   UNL     1      34.075 -23.360 -15.808  0.00  0.00    -0.180 NA
ATOM      4  C   UNL     1      34.876 -21.223 -20.329  0.00  0.00    -0.018 C 
ATOM      5  C   UNL     1      36.070 -20.927 -19.416  0.00  0.00    +0.020 C 
ATOM      6  C   UNL     1      33.647 -21.544 -19.473  0.00  0.00    +0.020 C 
ATOM      7  C   UNL     1      36.338 -22.078 -18.447  0.00  0.00    +0.101 C 
ATOM      8  C   UNL     1      33.922 -22.696 -18.508  0.00  0.00    +0.101 C 
ATOM      9  C   UNL     1      35.227 -23.062 -16.464  0.00  0.00    +0.090 C 
ATOM     10  C   UNL     1      36.543 -23.957 -14.807  0.00  0.00    +0.170 C 
ATOM     11  C   UNL     1      34.214 -23.975 -14.615  0.00  0.00    +0.113 C 
ATOM     12  C   UNL     1      35.435 -24.302 -14.060  0.00  0.00    +0.078 C 
ENDROOT
BRANCH  12  15
ATOM     13  O   UNL     1      34.846 -24.607 -11.807  0.00  0.00    -0.268 OA
ATOM     14  N   UNL     1      36.466 -26.001 -12.670  0.00  0.00    -0.194 N 
ATOM     15  C   UNL     1      35.545 -24.965 -12.776  0.00  0.00    +0.267 C 
ATOM     16  H   UNL     1      37.015 -26.282 -13.438  0.00  0.00    +0.183 HD
BRANCH  14  17
ATOM     17  O   UNL     1      36.576 -26.629 -11.421  0.00  0.00    -0.295 OA
ATOM     18  H   UNL     1      35.707 -26.964 -11.150  0.00  0.00    +0.241 HD
ENDBRANCH  14  17
ENDBRANCH  12  15
BRANCH   4  19
ATOM     19  C   UNL     1      34.598 -20.046 -21.260  0.00  0.00    -0.081 C 
BRANCH  19  20
ATOM     20  N   UNL     1      35.298 -18.853 -20.812  0.00  0.00    +0.386 N 
ATOM     21  H   UNL     1      35.937 -19.105 -20.057  0.00  0.00    -0.084 HD
ATOM     22  H   UNL     1      34.609 -18.175 -20.485  0.00  0.00    -0.084 HD
BRANCH  20  23
ATOM     23  C   UNL     1      36.059 -18.252 -21.900  0.00  0.00    -0.053 C 
BRANCH  23  25
ATOM     24  N   UNL     1      34.222 -16.082 -24.191  0.00  0.00    -0.284 N 
ATOM     25  C   UNL     1      35.238 -17.209 -22.606  0.00  0.00    -0.028 C 
ATOM     26  C   UNL     1      34.591 -16.121 -21.992  0.00  0.00    +0.009 C 
ATOM     27  C   UNL     1      35.006 -17.177 -23.947  0.00  0.00    +0.059 C 
ATOM     28  C   UNL     1      33.953 -15.418 -23.015  0.00  0.00    +0.051 C 
ATOM     29  C   UNL     1      34.475 -15.649 -20.670  0.00  0.00    +0.001 C 
ATOM     30  C   UNL     1      33.200 -14.261 -22.782  0.00  0.00    +0.015 C 
ATOM     31  C   UNL     1      33.750 -15.693 -25.503  0.00  0.00    +0.117 C 
ATOM     32  C   UNL     1      33.725 -14.492 -20.421  0.00  0.00    +0.000 C 
ATOM     33  C   UNL     1      33.098 -13.811 -21.463  0.00  0.00    +0.001 C 
ENDBRANCH  23  25
ENDBRANCH  20  23
ENDBRANCH  19  20
ENDBRANCH   4  19
TORSDOF 6
ENDMDL
MODEL 3
REMARK VINA RESULT:     -11.4      2.501      3.390
REMARK  Name = 11538455
REMARK  6 active torsions:
REMARK  status: ('A' for Active; 'I' for Inactive)
REMARK    1  A    between atoms: C_4  and  C_19
REMARK    2  A    between atoms: C_12  and  C_15
REMARK    3  A    between atoms: N_14  and  O_17
REMARK    4  A    between atoms: C_19  and  N_20
REMARK    5  A    between atoms: N_20  and  C_23
REMARK    6  A    between atoms: C_23  and  C_25
REMARK                            x       y       z     vdW  Elec       q    Type
REMARK                         _______ _______ _______ _____ _____    ______ ____
ROOT
ATOM      1  N   UNL     1      33.789 -22.181 -18.392  0.00  0.00    -0.253 N 
ATOM      2  N   UNL     1      33.719 -23.788 -16.663  0.00  0.00    -0.203 NA
ATOM      3  N   UNL     1      31.744 -22.548 -17.271  0.00  0.00    -0.180 NA
ATOM      4  C   UNL     1      35.246 -20.869 -20.522  0.00  0.00    -0.018 C 
ATOM      5  C   UNL     1      35.935 -21.308 -19.226  0.00  0.00    +0.020 C 
ATOM      6  C   UNL     1      33.776 -20.547 -20.234  0.00  0.00    +0.020 C 
ATOM      7  C   UNL     1      35.212 -22.487 -18.575  0.00  0.00    +0.101 C 
ATOM      8  C   UNL     1      33.061 -21.730 -19.585  0.00  0.00    +0.101 C 
ATOM      9  C   UNL     1      33.059 -22.862 -17.409  0.00  0.00    +0.090 C 
ATOM     10  C   UNL     1      32.987 -24.422 -15.724  0.00  0.00    +0.170 C 
ATOM     11  C   UNL     1      31.072 -23.220 -16.314  0.00  0.00    +0.113 C 
ATOM     12  C   UNL     1      31.647 -24.178 -15.503  0.00  0.00    +0.078 C 
ENDROOT
BRANCH  12  15
ATOM     13  O   UNL     1      30.076 -25.773 -14.794  0.00  0.00    -0.268 OA
ATOM     14  N   UNL     1      31.106 -24.511 -13.163  0.00  0.00    -0.194 N 
ATOM     15  C   UNL     1      30.892 -24.881 -14.485  0.00  0.00    +0.267 C 
ATOM     16  H   UNL     1      31.752 -23.807 -12.924  0.00  0.00    +0.183 HD
BRANCH  14  17
ATOM     17  O   UNL     1      30.362 -25.187 -12.184  0.00  0.00    -0.295 OA
ATOM     18  H   UNL     1      29.685 -24.593 -11.825  0.00  0.00    +0.241 HD
ENDBRANCH  14  17
ENDBRANCH  12  15
BRANCH   4  19
ATOM     19  C   UNL     1      35.957 -19.665 -21.135  0.00  0.00    -0.081 C 
BRANCH  19  20
ATOM     20  N   UNL     1      35.093 -18.980 -22.084  0.00  0.00    +0.386 N 
ATOM     21  H   UNL     1      34.357 -18.491 -21.573  0.00  0.00    -0.084 HD
ATOM     22  H   UNL     1      34.689 -19.673 -22.715  0.00  0.00    -0.084 HD
BRANCH  20  23
ATOM     23  C   UNL     1      35.846 -18.015 -22.875  0.00  0.00    -0.053 C 
BRANCH  23  25
ATOM     24  N   UNL     1      33.853 -15.367 -24.408  0.00  0.00    -0.284 N 
ATOM     25  C   UNL     1      34.982 -16.838 -23.235  0.00  0.00    -0.028 C 
ATOM     26  C   UNL     1      34.402 -15.938 -22.323  0.00  0.00    +0.009 C 
ATOM     27  C   UNL     1      34.642 -16.482 -24.503  0.00  0.00    +0.059 C 
ATOM     28  C   UNL     1      33.690 -15.013 -23.088  0.00  0.00    +0.051 C 
ATOM     29  C   UNL     1      34.400 -15.804 -20.920  0.00  0.00    +0.001 C 
ATOM     30  C   UNL     1      32.973 -13.953 -22.518  0.00  0.00    +0.015 C 
ATOM     31  C   UNL     1      33.280 -14.674 -25.542  0.00  0.00    +0.117 C 
ATOM     32  C   UNL     1      33.688 -14.749 -20.336  0.00  0.00    +0.000 C 
ATOM     33  C   UNL     1      32.985 -13.839 -21.125  0.00  0.00    +0.001 C 
ENDBRANCH  23  25
ENDBRANCH  20  23
ENDBRANCH  19  20
ENDBRANCH   4  19
TORSDOF 6
ENDMDL
MODEL 4
REMARK VINA RESULT:     -11.2      2.327      2.763
REMARK  Name = 11538455
REMARK  6 active torsions:
REMARK  status: ('A' for Active; 'I' for Inactive)
REMARK    1  A    between atoms: C_4  and  C_19
REMARK    2  A    between atoms: C_12  and  C_15
REMARK    3  A    between atoms: N_14  and  O_17
REMARK    4  A    between atoms: C_19  and  N_20
REMARK    5  A    between atoms: N_20  and  C_23
REMARK    6  A    between atoms: C_23  and  C_25
REMARK                            x       y       z     vdW  Elec       q    Type
REMARK                         _______ _______ _______ _____ _____    ______ ____
ROOT
ATOM      1  N   UNL     1      34.125 -22.210 -18.283  0.00  0.00    -0.253 N 
ATOM      2  N   UNL     1      33.858 -23.726 -16.493  0.00  0.00    -0.203 NA
ATOM      3  N   UNL     1      31.967 -22.522 -17.378  0.00  0.00    -0.180 NA
ATOM      4  C   UNL     1      35.813 -21.006 -20.303  0.00  0.00    -0.018 C 
ATOM      5  C   UNL     1      36.353 -21.377 -18.919  0.00  0.00    +0.020 C 
ATOM      6  C   UNL     1      34.322 -20.672 -20.197  0.00  0.00    +0.020 C 
ATOM      7  C   UNL     1      35.558 -22.522 -18.292  0.00  0.00    +0.101 C 
ATOM      8  C   UNL     1      33.534 -21.822 -19.571  0.00  0.00    +0.101 C 
ATOM      9  C   UNL     1      33.288 -22.841 -17.354  0.00  0.00    +0.090 C 
ATOM     10  C   UNL     1      33.024 -24.312 -15.609  0.00  0.00    +0.170 C 
ATOM     11  C   UNL     1      31.190 -23.146 -16.468  0.00  0.00    +0.113 C 
ATOM     12  C   UNL     1      31.668 -24.059 -15.550  0.00  0.00    +0.078 C 
ENDROOT
BRANCH  12  15
ATOM     13  O   UNL     1      29.680 -25.140 -14.922  0.00  0.00    -0.268 OA
ATOM     14  N   UNL     1      31.269 -24.822 -13.283  0.00  0.00    -0.194 N 
ATOM     15  C   UNL     1      30.802 -24.710 -14.587  0.00  0.00    +0.267 C 
ATOM     16  H   UNL     1      32.156 -24.482 -13.023  0.00  0.00    +0.183 HD
BRANCH  14  17
ATOM     17  O   UNL     1      30.420 -25.441 -12.354  0.00  0.00    -0.295 OA
ATOM     18  H   UNL     1      29.988 -24.765 -11.810  0.00  0.00    +0.241 HD
ENDBRANCH  14  17
ENDBRANCH  12  15
BRANCH   4  19
ATOM     19  C   UNL     1      36.592 -19.834 -20.895  0.00  0.00    -0.081 C 
BRANCH  19  20
ATOM     20  N   UNL     1      35.771 -18.634 -20.938  0.00  0.00    +0.386 N 
ATOM     21  H   UNL     1      36.131 -17.959 -20.263  0.00  0.00    -0.084 HD
ATOM     22  H   UNL     1      34.810 -18.889 -20.711  0.00  0.00    -0.084 HD
BRANCH  20  23
ATOM     23  C   UNL     1      35.790 -18.035 -22.267  0.00  0.00    -0.053 C 
BRANCH  23  25
ATOM     24  N   UNL     1      33.894 -14.981 -21.626  0.00  0.00    -0.284 N 
ATOM     25  C   UNL     1      34.973 -16.773 -22.288  0.00  0.00    -0.028 C 
ATOM     26  C   UNL     1      34.445 -16.158 -23.439  0.00  0.00    +0.009 C 
ATOM     27  C   UNL     1      34.632 -16.047 -21.189  0.00  0.00    +0.059 C 
ATOM     28  C   UNL     1      33.763 -15.023 -22.996  0.00  0.00    +0.051 C 
ATOM     29  C   UNL     1      34.468 -16.440 -24.818  0.00  0.00    +0.001 C 
ATOM     30  C   UNL     1      33.101 -14.151 -23.868  0.00  0.00    +0.015 C 
ATOM     31  C   UNL     1      33.339 -13.963 -20.759  0.00  0.00    +0.117 C 
ATOM     32  C   UNL     1      33.809 -15.578 -25.704  0.00  0.00    +0.000 C 
ATOM     33  C   UNL     1      33.137 -14.451 -25.233  0.00  0.00    +0.001 C 
ENDBRANCH  23  25
ENDBRANCH  20  23
ENDBRANCH  19  20
ENDBRANCH   4  19
TORSDOF 6
ENDMDL
MODEL 5
REMARK VINA RESULT:     -10.6      1.186      2.535
REMARK  Name = 11538455
REMARK  6 active torsions:
REMARK  status: ('A' for Active; 'I' for Inactive)
REMARK    1  A    between atoms: C_4  and  C_19
REMARK    2  A    between atoms: C_12  and  C_15
REMARK    3  A    between atoms: N_14  and  O_17
REMARK    4  A    between atoms: C_19  and  N_20
REMARK    5  A    between atoms: N_20  and  C_23
REMARK    6  A    between atoms: C_23  and  C_25
REMARK                            x       y       z     vdW  Elec       q    Type
REMARK                         _______ _______ _______ _____ _____    ______ ____
ROOT
ATOM      1  N   UNL     1      35.666 -22.845 -16.920  0.00  0.00    -0.253 N 
ATOM      2  N   UNL     1      34.615 -23.974 -15.133  0.00  0.00    -0.203 NA
ATOM      3  N   UNL     1      37.002 -23.640 -15.143  0.00  0.00    -0.180 NA
ATOM      4  C   UNL     1      35.464 -21.347 -19.389  0.00  0.00    -0.018 C 
ATOM      5  C   UNL     1      34.497 -22.488 -19.058  0.00  0.00    +0.020 C 
ATOM      6  C   UNL     1      36.815 -21.611 -18.716  0.00  0.00    +0.020 C 
ATOM      7  C   UNL     1      34.351 -22.682 -17.548  0.00  0.00    +0.101 C 
ATOM      8  C   UNL     1      36.660 -21.802 -17.208  0.00  0.00    +0.101 C 
ATOM      9  C   UNL     1      35.765 -23.508 -15.690  0.00  0.00    +0.090 C 
ATOM     10  C   UNL     1      34.747 -24.610 -13.950  0.00  0.00    +0.170 C 
ATOM     11  C   UNL     1      37.061 -24.286 -13.960  0.00  0.00    +0.113 C 
ATOM     12  C   UNL     1      35.955 -24.797 -13.311  0.00  0.00    +0.078 C 
ENDROOT
BRANCH  12  15
ATOM     13  O   UNL     1      36.795 -26.482 -11.907  0.00  0.00    -0.268 OA
ATOM     14  N   UNL     1      35.295 -24.995 -10.986  0.00  0.00    -0.194 N 
ATOM     15  C   UNL     1      36.058 -25.485 -12.039  0.00  0.00    +0.267 C 
ATOM     16  H   UNL     1      34.715 -24.206 -11.094  0.00  0.00    +0.183 HD
BRANCH  14  17
ATOM     17  O   UNL     1      35.390 -25.673  -9.762  0.00  0.00    -0.295 OA
ATOM     18  H   UNL     1      34.632 -25.440  -9.203  0.00  0.00    +0.241 HD
ENDBRANCH  14  17
ENDBRANCH  12  15
BRANCH   4  19
ATOM     19  C   UNL     1      35.630 -21.196 -20.899  0.00  0.00    -0.081 C 
BRANCH  19  20
ATOM     20  N   UNL     1      34.901 -20.036 -21.388  0.00  0.00    +0.386 N 
ATOM     21  H   UNL     1      34.016 -19.963 -20.887  0.00  0.00    -0.084 HD
ATOM     22  H   UNL     1      34.737 -20.152 -22.388  0.00  0.00    -0.084 HD
BRANCH  20  23
ATOM     23  C   UNL     1      35.667 -18.813 -21.182  0.00  0.00    -0.053 C 
BRANCH  23  25
ATOM     24  N   UNL     1      34.620 -16.611 -23.900  0.00  0.00    -0.284 N 
ATOM     25  C   UNL     1      35.173 -17.721 -22.090  0.00  0.00    -0.028 C 
ATOM     26  C   UNL     1      34.687 -16.468 -21.675  0.00  0.00    +0.009 C 
ATOM     27  C   UNL     1      35.128 -17.799 -23.448  0.00  0.00    +0.059 C 
ATOM     28  C   UNL     1      34.342 -15.779 -22.840  0.00  0.00    +0.051 C 
ATOM     29  C   UNL     1      34.499 -15.834 -20.431  0.00  0.00    +0.001 C 
ATOM     30  C   UNL     1      33.816 -14.481 -22.822  0.00  0.00    +0.015 C 
ATOM     31  C   UNL     1      34.410 -16.293 -25.296  0.00  0.00    +0.117 C 
ATOM     32  C   UNL     1      33.974 -14.536 -20.398  0.00  0.00    +0.000 C 
ATOM     33  C   UNL     1      33.638 -13.872 -21.577  0.00  0.00    +0.001 C 
ENDBRANCH  23  25
ENDBRANCH  20  23
ENDBRANCH  19  20
ENDBRANCH   4  19
TORSDOF 6
ENDMDL
MODEL 6
REMARK VINA RESULT:     -10.5      9.176     14.265
REMARK  Name = 11538455
REMARK  6 active torsions:
REMARK  status: ('A' for Active; 'I' for Inactive)
REMARK    1  A    between atoms: C_4  and  C_19
REMARK    2  A    between atoms: C_12  and  C_15
REMARK    3  A    between atoms: N_14  and  O_17
REMARK    4  A    between atoms: C_19  and  N_20
REMARK    5  A    between atoms: N_20  and  C_23
REMARK    6  A    between atoms: C_23  and  C_25
REMARK                            x       y       z     vdW  Elec       q    Type
REMARK                         _______ _______ _______ _____ _____    ______ ____
ROOT
ATOM      1  N   UNL     1      31.712  -9.202 -21.153  0.00  0.00    -0.253 N 
ATOM      2  N   UNL     1      31.621  -7.675 -22.951  0.00  0.00    -0.203 NA
ATOM      3  N   UNL     1      31.229  -6.938 -20.690  0.00  0.00    -0.180 NA
ATOM      4  C   UNL     1      32.258 -11.870 -20.170  0.00  0.00    -0.018 C 
ATOM      5  C   UNL     1      31.631 -11.632 -21.547  0.00  0.00    +0.020 C 
ATOM      6  C   UNL     1      31.866 -10.729 -19.226  0.00  0.00    +0.020 C 
ATOM      7  C   UNL     1      32.019 -10.266 -22.115  0.00  0.00    +0.101 C 
ATOM      8  C   UNL     1      32.259  -9.368 -19.800  0.00  0.00    +0.101 C 
ATOM      9  C   UNL     1      31.514  -7.894 -21.613  0.00  0.00    +0.090 C 
ATOM     10  C   UNL     1      31.422  -6.405 -23.360  0.00  0.00    +0.170 C 
ATOM     11  C   UNL     1      31.043  -5.690 -21.168  0.00  0.00    +0.113 C 
ATOM     12  C   UNL     1      31.128  -5.362 -22.505  0.00  0.00    +0.078 C 
ENDROOT
BRANCH  12  15
ATOM     13  O   UNL     1      31.485  -3.600 -24.017  0.00  0.00    -0.268 OA
ATOM     14  N   UNL     1      30.086  -3.189 -22.232  0.00  0.00    -0.194 N 
ATOM     15  C   UNL     1      30.922  -4.008 -22.981  0.00  0.00    +0.267 C 
ATOM     16  H   UNL     1      29.642  -3.516 -21.415  0.00  0.00    +0.183 HD
BRANCH  14  17
ATOM     17  O   UNL     1      29.902  -1.877 -22.691  0.00  0.00    -0.295 OA
ATOM     18  H   UNL     1      30.679  -1.601 -23.202  0.00  0.00    +0.241 HD
ENDBRANCH  14  17
ENDBRANCH  12  15
BRANCH   4  19
ATOM     19  C   UNL     1      31.825 -13.219 -19.601  0.00  0.00    -0.081 C 
BRANCH  19  20
ATOM     20  N   UNL     1      32.274 -14.309 -20.453  0.00  0.00    +0.386 N 
ATOM     21  H   UNL     1      31.895 -14.177 -21.392  0.00  0.00    -0.084 HD
ATOM     22  H   UNL     1      31.944 -15.189 -20.056  0.00  0.00    -0.084 HD
BRANCH  20  23
ATOM     23  C   UNL     1      33.729 -14.350 -20.528  0.00  0.00    -0.053 C 
BRANCH  23  25
ATOM     24  N   UNL     1      35.083 -17.092 -22.523  0.00  0.00    -0.284 N 
ATOM     25  C   UNL     1      34.176 -15.334 -21.572  0.00  0.00    -0.028 C 
ATOM     26  C   UNL     1      33.949 -15.221 -22.956  0.00  0.00    +0.009 C 
ATOM     27  C   UNL     1      34.868 -16.478 -21.318  0.00  0.00    +0.059 C 
ATOM     28  C   UNL     1      34.532 -16.347 -23.541  0.00  0.00    +0.051 C 
ATOM     29  C   UNL     1      33.307 -14.281 -23.786  0.00  0.00    +0.001 C 
ATOM     30  C   UNL     1      34.507 -16.581 -24.921  0.00  0.00    +0.015 C 
ATOM     31  C   UNL     1      35.788 -18.345 -22.685  0.00  0.00    +0.117 C 
ATOM     32  C   UNL     1      33.273 -14.501 -25.169  0.00  0.00    +0.000 C 
ATOM     33  C   UNL     1      33.864 -15.635 -25.725  0.00  0.00    +0.001 C 
ENDBRANCH  23  25
ENDBRANCH  20  23
ENDBRANCH  19  20
ENDBRANCH   4  19
TORSDOF 6
ENDMDL
MODEL 7
REMARK VINA RESULT:     -10.5      6.861     10.878
REMARK  Name = 11538455
REMARK  6 active torsions:
REMARK  status: ('A' for Active; 'I' for Inactive)
REMARK    1  A    between atoms: C_4  and  C_19
REMARK    2  A    between atoms: C_12  and  C_15
REMARK    3  A    between atoms: N_14  and  O_17
REMARK    4  A    between atoms: C_19  and  N_20
REMARK    5  A    between atoms: N_20  and  C_23
REMARK    6  A    between atoms: C_23  and  C_25
REMARK                            x       y       z     vdW  Elec       q    Type
REMARK                         _______ _______ _______ _____ _____    ______ ____
ROOT
ATOM      1  N   UNL     1      33.690 -13.398 -22.518  0.00  0.00    -0.253 N 
ATOM      2  N   UNL     1      34.906 -15.263 -23.304  0.00  0.00    -0.203 NA
ATOM      3  N   UNL     1      34.000 -15.237 -21.071  0.00  0.00    -0.180 NA
ATOM      4  C   UNL     1      32.473 -10.820 -23.021  0.00  0.00    -0.018 C 
ATOM      5  C   UNL     1      33.788 -11.234 -23.689  0.00  0.00    +0.020 C 
ATOM      6  C   UNL     1      32.348 -11.518 -21.663  0.00  0.00    +0.020 C 
ATOM      7  C   UNL     1      33.900 -12.753 -23.818  0.00  0.00    +0.101 C 
ATOM      8  C   UNL     1      32.459 -13.035 -21.802  0.00  0.00    +0.101 C 
ATOM      9  C   UNL     1      34.216 -14.676 -22.289  0.00  0.00    +0.090 C 
ATOM     10  C   UNL     1      35.402 -16.491 -23.049  0.00  0.00    +0.170 C 
ATOM     11  C   UNL     1      34.523 -16.467 -20.884  0.00  0.00    +0.113 C 
ATOM     12  C   UNL     1      35.239 -17.149 -21.846  0.00  0.00    +0.078 C 
ENDROOT
BRANCH  12  15
ATOM     13  O   UNL     1      36.704 -18.922 -22.322  0.00  0.00    -0.268 OA
ATOM     14  N   UNL     1      35.235 -19.210 -20.569  0.00  0.00    -0.194 N 
ATOM     15  C   UNL     1      35.785 -18.471 -21.609  0.00  0.00    +0.267 C 
ATOM     16  H   UNL     1      34.511 -18.849 -20.008  0.00  0.00    +0.183 HD
BRANCH  14  17
ATOM     17  O   UNL     1      35.760 -20.493 -20.353  0.00  0.00    -0.295 OA
ATOM     18  H   UNL     1      35.119 -21.158 -20.648  0.00  0.00    +0.241 HD
ENDBRANCH  14  17
ENDBRANCH  12  15
BRANCH   4  19
ATOM     19  C   UNL     1      32.398  -9.303 -22.862  0.00  0.00    -0.081 C 
BRANCH  19  20
ATOM     20  N   UNL     1      33.715  -8.701 -22.997  0.00  0.00    +0.386 N 
ATOM     21  H   UNL     1      33.864  -8.439 -23.972  0.00  0.00    -0.084 HD
ATOM     22  H   UNL     1      34.415  -9.381 -22.699  0.00  0.00    -0.084 HD
BRANCH  20  23
ATOM     23  C   UNL     1      33.835  -7.514 -22.161  0.00  0.00    -0.053 C 
BRANCH  23  25
ATOM     24  N   UNL     1      31.640  -4.736 -23.055  0.00  0.00    -0.284 N 
ATOM     25  C   UNL     1      33.087  -6.361 -22.770  0.00  0.00    -0.028 C 
ATOM     26  C   UNL     1      33.359  -5.778 -24.022  0.00  0.00    +0.009 C 
ATOM     27  C   UNL     1      32.038  -5.718 -22.188  0.00  0.00    +0.059 C 
ATOM     28  C   UNL     1      32.428  -4.749 -24.183  0.00  0.00    +0.051 C 
ATOM     29  C   UNL     1      34.298  -6.009 -25.046  0.00  0.00    +0.001 C 
ATOM     30  C   UNL     1      32.389  -3.937 -25.322  0.00  0.00    +0.015 C 
ATOM     31  C   UNL     1      30.546  -3.823 -22.804  0.00  0.00    +0.117 C 
ATOM     32  C   UNL     1      34.271  -5.205 -26.193  0.00  0.00    +0.000 C 
ATOM     33  C   UNL     1      33.330  -4.185 -26.326  0.00  0.00    +0.001 C 
ENDBRANCH  23  25
ENDBRANCH  20  23
ENDBRANCH  19  20
ENDBRANCH   4  19
TORSDOF 6
ENDMDL
MODEL 8
REMARK VINA RESULT:     -10.4      5.537     11.566
REMARK  Name = 11538455
REMARK  6 active torsions:
REMARK  status: ('A' for Active; 'I' for Inactive)
REMARK    1  A    between atoms: C_4  and  C_19
REMARK    2  A    between atoms: C_12  and  C_15
REMARK    3  A    between atoms: N_14  and  O_17
REMARK    4  A    between atoms: C_19  and  N_20
REMARK    5  A    between atoms: N_20  and  C_23
REMARK    6  A    between atoms: C_23  and  C_25
REMARK                            x       y       z     vdW  Elec       q    Type
REMARK                         _______ _______ _______ _____ _____    ______ ____
ROOT
ATOM      1  N   UNL     1      34.314 -15.435 -22.196  0.00  0.00    -0.253 N 
ATOM      2  N   UNL     1      34.115 -13.409 -23.393  0.00  0.00    -0.203 NA
ATOM      3  N   UNL     1      33.009 -13.698 -21.271  0.00  0.00    -0.180 NA
ATOM      4  C   UNL     1      35.492 -18.064 -21.918  0.00  0.00    -0.018 C 
ATOM      5  C   UNL     1      35.143 -17.479 -23.290  0.00  0.00    +0.020 C 
ATOM      6  C   UNL     1      34.541 -17.493 -20.862  0.00  0.00    +0.020 C 
ATOM      7  C   UNL     1      35.166 -15.950 -23.273  0.00  0.00    +0.101 C 
ATOM      8  C   UNL     1      34.571 -15.966 -20.850  0.00  0.00    +0.101 C 
ATOM      9  C   UNL     1      33.795 -14.137 -22.289  0.00  0.00    +0.090 C 
ATOM     10  C   UNL     1      33.597 -12.165 -23.451  0.00  0.00    +0.170 C 
ATOM     11  C   UNL     1      32.525 -12.445 -21.394  0.00  0.00    +0.113 C 
ATOM     12  C   UNL     1      32.788 -11.625 -22.472  0.00  0.00    +0.078 C 
ENDROOT
BRANCH  12  15
ATOM     13  O   UNL     1      31.065 -10.043 -22.262  0.00  0.00    -0.268 OA
ATOM     14  N   UNL     1      33.103  -9.285 -23.029  0.00  0.00    -0.194 N 
ATOM     15  C   UNL     1      32.250 -10.282 -22.569  0.00  0.00    +0.267 C 
ATOM     16  H   UNL     1      34.038  -9.479 -23.269  0.00  0.00    +0.183 HD
BRANCH  14  17
ATOM     17  O   UNL     1      32.571  -7.991 -23.132  0.00  0.00    -0.295 OA
ATOM     18  H   UNL     1      32.475  -7.755 -24.067  0.00  0.00    +0.241 HD
ENDBRANCH  14  17
ENDBRANCH  12  15
BRANCH   4  19
ATOM     19  C   UNL     1      35.423 -19.589 -21.944  0.00  0.00    -0.081 C 
BRANCH  19  20
ATOM     20  N   UNL     1      35.809 -20.148 -20.658  0.00  0.00    +0.386 N 
ATOM     21  H   UNL     1      35.824 -19.403 -19.961  0.00  0.00    -0.084 HD
ATOM     22  H   UNL     1      36.734 -20.569 -20.750  0.00  0.00    -0.084 HD
BRANCH  20  23
ATOM     23  C   UNL     1      34.871 -21.179 -20.233  0.00  0.00    -0.053 C 
BRANCH  23  25
ATOM     24  N   UNL     1      36.543 -22.387 -17.220  0.00  0.00    -0.284 N 
ATOM     25  C   UNL     1      35.299 -21.774 -18.920  0.00  0.00    -0.028 C 
ATOM     26  C   UNL     1      34.459 -22.444 -18.011  0.00  0.00    +0.009 C 
ATOM     27  C   UNL     1      36.567 -21.744 -18.429  0.00  0.00    +0.059 C 
ATOM     28  C   UNL     1      35.269 -22.825 -16.940  0.00  0.00    +0.051 C 
ATOM     29  C   UNL     1      33.089 -22.773 -17.977  0.00  0.00    +0.001 C 
ATOM     30  C   UNL     1      34.776 -23.522 -15.831  0.00  0.00    +0.015 C 
ATOM     31  C   UNL     1      37.701 -22.570 -16.371  0.00  0.00    +0.117 C 
ATOM     32  C   UNL     1      32.581 -23.471 -16.874  0.00  0.00    +0.000 C 
ATOM     33  C   UNL     1      33.414 -23.838 -15.818  0.00  0.00    +0.001 C 
ENDBRANCH  23  25
ENDBRANCH  20  23
ENDBRANCH  19  20
ENDBRANCH   4  19
TORSDOF 6
ENDMDL
MODEL 9
REMARK VINA RESULT:     -10.4      5.541     11.556
REMARK  Name = 11538455
REMARK  6 active torsions:
REMARK  status: ('A' for Active; 'I' for Inactive)
REMARK    1  A    between atoms: C_4  and  C_19
REMARK    2  A    between atoms: C_12  and  C_15
REMARK    3  A    between atoms: N_14  and  O_17
REMARK    4  A    between atoms: C_19  and  N_20
REMARK    5  A    between atoms: N_20  and  C_23
REMARK    6  A    between atoms: C_23  and  C_25
REMARK                            x       y       z     vdW  Elec       q    Type
REMARK                         _______ _______ _______ _____ _____    ______ ____
ROOT
ATOM      1  N   UNL     1      34.282 -15.566 -22.286  0.00  0.00    -0.253 N 
ATOM      2  N   UNL     1      34.130 -13.527 -23.465  0.00  0.00    -0.203 NA
ATOM      3  N   UNL     1      33.046 -13.797 -21.330  0.00  0.00    -0.180 NA
ATOM      4  C   UNL     1      35.381 -18.234 -22.045  0.00  0.00    -0.018 C 
ATOM      5  C   UNL     1      35.031 -17.627 -23.407  0.00  0.00    +0.020 C 
ATOM      6  C   UNL     1      34.464 -17.641 -20.971  0.00  0.00    +0.020 C 
ATOM      7  C   UNL     1      35.102 -16.100 -23.379  0.00  0.00    +0.101 C 
ATOM      8  C   UNL     1      34.542 -16.116 -20.948  0.00  0.00    +0.101 C 
ATOM      9  C   UNL     1      33.804 -14.252 -22.362  0.00  0.00    +0.090 C 
ATOM     10  C   UNL     1      33.651 -12.266 -23.507  0.00  0.00    +0.170 C 
ATOM     11  C   UNL     1      32.600 -12.528 -21.437  0.00  0.00    +0.113 C 
ATOM     12  C   UNL     1      32.874 -11.708 -22.512  0.00  0.00    +0.078 C 
ENDROOT
BRANCH  12  15
ATOM     13  O   UNL     1      31.210 -10.072 -22.249  0.00  0.00    -0.268 OA
ATOM     14  N   UNL     1      33.247  -9.379 -23.075  0.00  0.00    -0.194 N 
ATOM     15  C   UNL     1      32.377 -10.349 -22.592  0.00  0.00    +0.267 C 
ATOM     16  H   UNL     1      34.168  -9.602 -23.343  0.00  0.00    +0.183 HD
BRANCH  14  17
ATOM     17  O   UNL     1      32.756  -8.068 -23.160  0.00  0.00    -0.295 OA
ATOM     18  H   UNL     1      32.006  -8.044 -23.775  0.00  0.00    +0.241 HD
ENDBRANCH  14  17
ENDBRANCH  12  15
BRANCH   4  19
ATOM     19  C   UNL     1      35.264 -19.756 -22.081  0.00  0.00    -0.081 C 
BRANCH  19  20
ATOM     20  N   UNL     1      34.788 -20.270 -20.806  0.00  0.00    +0.386 N 
ATOM     21  H   UNL     1      33.944 -20.821 -20.963  0.00  0.00    -0.084 HD
ATOM     22  H   UNL     1      34.590 -19.481 -20.191  0.00  0.00    -0.084 HD
BRANCH  20  23
ATOM     23  C   UNL     1      35.796 -21.111 -20.173  0.00  0.00    -0.053 C 
BRANCH  23  25
ATOM     24  N   UNL     1      33.786 -22.857 -17.674  0.00  0.00    -0.284 N 
ATOM     25  C   UNL     1      35.212 -21.837 -18.993  0.00  0.00    -0.028 C 
ATOM     26  C   UNL     1      35.913 -22.206 -17.829  0.00  0.00    +0.009 C 
ATOM     27  C   UNL     1      33.917 -22.239 -18.889  0.00  0.00    +0.059 C 
ATOM     28  C   UNL     1      34.989 -22.852 -17.006  0.00  0.00    +0.051 C 
ATOM     29  C   UNL     1      37.240 -22.063 -17.378  0.00  0.00    +0.001 C 
ATOM     30  C   UNL     1      35.326 -23.365 -15.748  0.00  0.00    +0.015 C 
ATOM     31  C   UNL     1      32.552 -23.431 -17.181  0.00  0.00    +0.117 C 
ATOM     32  C   UNL     1      37.593 -22.571 -16.122  0.00  0.00    +0.000 C 
ATOM     33  C   UNL     1      36.649 -23.212 -15.321  0.00  0.00    +0.001 C 
ENDBRANCH  23  25
ENDBRANCH  20  23
ENDBRANCH  19  20
ENDBRANCH   4  19
TORSDOF 6
ENDMDL
