MODEL 1
REMARK VINA RESULT:     -11.0      0.000      0.000
REMARK  Name = 6914613
REMARK  8 active torsions:
REMARK  status: ('A' for Active; 'I' for Inactive)
REMARK    1  A    between atoms: C_1  and  N_2
REMARK    2  A    between atoms: C_1  and  C_6
REMARK    3  A    between atoms: C_1  and  C_17
REMARK    4  A    between atoms: C_6  and  C_8
REMARK    5  A    between atoms: C_17  and  O_18
REMARK    6  A    between atoms: O_18  and  C_20
REMARK    7  A    between atoms: C_23  and  C_25
REMARK    8  A    between atoms: C_26  and  C_28
REMARK                            x       y       z     vdW  Elec       q    Type
REMARK                         _______ _______ _______ _____ _____    ______ ____
ROOT
ATOM      1  C   UNL     1      35.967 -19.026 -20.903  0.00  0.00    -0.017 C 
ENDROOT
BRANCH   1   2
ATOM      2  N   UNL     1      37.398 -19.195 -20.627  0.00  0.00    +0.384 N 
ATOM      3  H   UNL     1      37.643 -20.183 -20.698  0.00  0.00    -0.089 HD
ATOM      4  H   UNL     1      37.606 -18.860 -19.687  0.00  0.00    -0.089 HD
ATOM      5  H   UNL     1      37.940 -18.660 -21.306  0.00  0.00    -0.089 HD
ENDBRANCH   1   2
BRANCH   1   6
ATOM      6  C   UNL     1      35.784 -18.355 -22.290  0.00  0.00    +0.009 C 
BRANCH   6   8
ATOM      7  N   UNL     1      34.133 -15.193 -21.510  0.00  0.00    -0.312 N 
ATOM      8  C   UNL     1      35.073 -17.061 -22.255  0.00  0.00    -0.008 C 
ATOM      9  C   UNL     1      34.541 -16.355 -23.371  0.00  0.00    +0.011 C 
ATOM     10  C   UNL     1      33.957 -15.187 -22.876  0.00  0.00    +0.048 C 
ATOM     11  C   UNL     1      34.807 -16.322 -21.126  0.00  0.00    +0.058 C 
ATOM     12  C   UNL     1      34.500 -16.599 -24.758  0.00  0.00    +0.001 C 
ATOM     13  C   UNL     1      33.332 -14.247 -23.702  0.00  0.00    +0.015 C 
ATOM     14  C   UNL     1      33.878 -15.667 -25.596  0.00  0.00    +0.000 C 
ATOM     15  C   UNL     1      33.303 -14.510 -25.075  0.00  0.00    +0.001 C 
ATOM     16  H   UNL     1      33.821 -14.487 -20.898  0.00  0.00    +0.152 HD
ENDBRANCH   6   8
ENDBRANCH   1   6
BRANCH   1  17
ATOM     17  C   UNL     1      35.281 -20.393 -20.786  0.00  0.00    +0.184 C 
BRANCH  17  18
ATOM     18  O   UNL     1      35.953 -21.245 -19.869  0.00  0.00    -0.476 OA
BRANCH  18  20
ATOM     19  N   UNL     1      33.022 -22.816 -18.375  0.00  0.00    -0.239 NA
ATOM     20  C   UNL     1      35.173 -21.912 -18.959  0.00  0.00    +0.158 C 
ATOM     21  C   UNL     1      35.706 -22.338 -17.757  0.00  0.00    +0.040 C 
ATOM     22  C   UNL     1      33.847 -22.166 -19.229  0.00  0.00    +0.136 C 
ATOM     23  C   UNL     1      34.890 -23.011 -16.853  0.00  0.00    +0.022 C 
ATOM     24  C   UNL     1      33.568 -23.222 -17.207  0.00  0.00    +0.099 C 
BRANCH  23  25
ATOM     25  C   UNL     1      35.408 -23.476 -15.579  0.00  0.00    +0.002 C 
ATOM     26  C   UNL     1      35.107 -24.662 -14.997  0.00  0.00    +0.000 C 
BRANCH  26  28
ATOM     27  N   UNL     1      36.666 -26.045 -11.294  0.00  0.00    -0.242 NA
ATOM     28  C   UNL     1      35.647 -25.143 -13.713  0.00  0.00    +0.003 C 
ATOM     29  C   UNL     1      36.722 -26.008 -13.710  0.00  0.00    +0.021 C 
ATOM     30  C   UNL     1      35.069 -24.718 -12.532  0.00  0.00    +0.021 C 
ATOM     31  C   UNL     1      37.194 -26.429 -12.478  0.00  0.00    +0.099 C 
ATOM     32  C   UNL     1      35.614 -25.197 -11.353  0.00  0.00    +0.099 C 
ENDBRANCH  26  28
ENDBRANCH  23  25
ENDBRANCH  18  20
ENDBRANCH  17  18
ENDBRANCH   1  17
TORSDOF 8
ENDMDL
MODEL 2
REMARK VINA RESULT:     -10.9      3.958      7.366
REMARK  Name = 6914613
REMARK  8 active torsions:
REMARK  status: ('A' for Active; 'I' for Inactive)
REMARK    1  A    between atoms: C_1  and  N_2
REMARK    2  A    between atoms: C_1  and  C_6
REMARK    3  A    between atoms: C_1  and  C_17
REMARK    4  A    between atoms: C_6  and  C_8
REMARK    5  A    between atoms: C_17  and  O_18
REMARK    6  A    between atoms: O_18  and  C_20
REMARK    7  A    between atoms: C_23  and  C_25
REMARK    8  A    between atoms: C_26  and  C_28
REMARK                            x       y       z     vdW  Elec       q    Type
REMARK                         _______ _______ _______ _____ _____    ______ ____
ROOT
ATOM      1  C   UNL     1      33.561 -13.017 -22.551  0.00  0.00    -0.017 C 
ENDROOT
BRANCH   1   2
ATOM      2  N   UNL     1      33.529 -12.943 -24.016  0.00  0.00    +0.384 N 
ATOM      3  H   UNL     1      33.216 -12.015 -24.303  0.00  0.00    -0.089 HD
ATOM      4  H   UNL     1      32.884 -13.645 -24.378  0.00  0.00    -0.089 HD
ATOM      5  H   UNL     1      34.463 -13.116 -24.385  0.00  0.00    -0.089 HD
ENDBRANCH   1   2
BRANCH   1   6
ATOM      6  C   UNL     1      32.115 -12.910 -21.998  0.00  0.00    +0.009 C 
BRANCH   6   8
ATOM      7  N   UNL     1      31.550 -10.914 -18.993  0.00  0.00    -0.312 N 
ATOM      8  C   UNL     1      31.934 -11.881 -20.954  0.00  0.00    -0.008 C 
ATOM      9  C   UNL     1      32.031 -10.471 -21.127  0.00  0.00    +0.011 C 
ATOM     10  C   UNL     1      31.786  -9.888 -19.881  0.00  0.00    +0.048 C 
ATOM     11  C   UNL     1      31.637 -12.122 -19.632  0.00  0.00    +0.058 C 
ATOM     12  C   UNL     1      32.303  -9.634 -22.226  0.00  0.00    +0.001 C 
ATOM     13  C   UNL     1      31.801  -8.504 -19.679  0.00  0.00    +0.015 C 
ATOM     14  C   UNL     1      32.322  -8.246 -22.039  0.00  0.00    +0.000 C 
ATOM     15  C   UNL     1      32.074  -7.693 -20.785  0.00  0.00    +0.001 C 
ATOM     16  H   UNL     1      31.348 -10.796 -18.036  0.00  0.00    +0.152 HD
ENDBRANCH   6   8
ENDBRANCH   1   6
BRANCH   1  17
ATOM     17  C   UNL     1      34.282 -14.307 -22.141  0.00  0.00    +0.184 C 
BRANCH  17  18
ATOM     18  O   UNL     1      35.061 -14.838 -23.205  0.00  0.00    -0.476 OA
BRANCH  18  20
ATOM     19  N   UNL     1      34.387 -17.888 -25.083  0.00  0.00    -0.239 NA
ATOM     20  C   UNL     1      34.906 -16.172 -23.480  0.00  0.00    +0.158 C 
ATOM     21  C   UNL     1      35.094 -17.119 -22.490  0.00  0.00    +0.040 C 
ATOM     22  C   UNL     1      34.558 -16.589 -24.745  0.00  0.00    +0.136 C 
ATOM     23  C   UNL     1      34.927 -18.465 -22.798  0.00  0.00    +0.022 C 
ATOM     24  C   UNL     1      34.576 -18.793 -24.097  0.00  0.00    +0.099 C 
BRANCH  23  25
ATOM     25  C   UNL     1      35.114 -19.492 -21.790  0.00  0.00    +0.002 C 
ATOM     26  C   UNL     1      34.172 -19.903 -20.906  0.00  0.00    +0.000 C 
BRANCH  26  28
ATOM     27  N   UNL     1      34.702 -22.951 -17.993  0.00  0.00    -0.242 NA
ATOM     28  C   UNL     1      34.356 -20.959 -19.895  0.00  0.00    +0.003 C 
ATOM     29  C   UNL     1      33.247 -21.552 -19.324  0.00  0.00    +0.021 C 
ATOM     30  C   UNL     1      35.634 -21.340 -19.535  0.00  0.00    +0.021 C 
ATOM     31  C   UNL     1      33.473 -22.541 -18.380  0.00  0.00    +0.099 C 
ATOM     32  C   UNL     1      35.753 -22.338 -18.582  0.00  0.00    +0.099 C 
ENDBRANCH  26  28
ENDBRANCH  23  25
ENDBRANCH  18  20
ENDBRANCH  17  18
ENDBRANCH   1  17
TORSDOF 8
ENDMDL
MODEL 3
REMARK VINA RESULT:     -10.9      4.179      7.889
REMARK  Name = 6914613
REMARK  8 active torsions:
REMARK  status: ('A' for Active; 'I' for Inactive)
REMARK    1  A    between atoms: C_1  and  N_2
REMARK    2  A    between atoms: C_1  and  C_6
REMARK    3  A    between atoms: C_1  and  C_17
REMARK    4  A    between atoms: C_6  and  C_8
REMARK    5  A    between atoms: C_17  and  O_18
REMARK    6  A    between atoms: O_18  and  C_20
REMARK    7  A    between atoms: C_23  and  C_25
REMARK    8  A    between atoms: C_26  and  C_28
REMARK                            x       y       z     vdW  Elec       q    Type
REMARK                         _______ _______ _______ _____ _____    ______ ____
ROOT
ATOM      1  C   UNL     1      34.074 -11.524 -23.625  0.00  0.00    -0.017 C 
ENDROOT
BRANCH   1   2
ATOM      2  N   UNL     1      34.946 -11.158 -24.747  0.00  0.00    +0.384 N 
ATOM      3  H   UNL     1      34.440 -11.281 -25.624  0.00  0.00    -0.089 HD
ATOM      4  H   UNL     1      35.772 -11.756 -24.745  0.00  0.00    -0.089 HD
ATOM      5  H   UNL     1      35.231 -10.183 -24.652  0.00  0.00    -0.089 HD
ENDBRANCH   1   2
BRANCH   1   6
ATOM      6  C   UNL     1      32.829 -10.599 -23.616  0.00  0.00    +0.009 C 
BRANCH   6   8
ATOM      7  N   UNL     1      32.376  -8.391 -20.743  0.00  0.00    -0.312 N 
ATOM      8  C   UNL     1      32.563  -9.943 -22.320  0.00  0.00    -0.008 C 
ATOM      9  C   UNL     1      32.101 -10.572 -21.129  0.00  0.00    +0.011 C 
ATOM     10  C   UNL     1      31.992  -9.576 -20.156  0.00  0.00    +0.048 C 
ATOM     11  C   UNL     1      32.722  -8.603 -22.051  0.00  0.00    +0.058 C 
ATOM     12  C   UNL     1      31.765 -11.896 -20.786  0.00  0.00    +0.001 C 
ATOM     13  C   UNL     1      31.562  -9.840 -18.851  0.00  0.00    +0.015 C 
ATOM     14  C   UNL     1      31.333 -12.175 -19.484  0.00  0.00    +0.000 C 
ATOM     15  C   UNL     1      31.234 -11.161 -18.534  0.00  0.00    +0.001 C 
ATOM     16  H   UNL     1      32.397  -7.518 -20.289  0.00  0.00    +0.152 HD
ENDBRANCH   6   8
ENDBRANCH   1   6
BRANCH   1  17
ATOM     17  C   UNL     1      33.731 -13.015 -23.738  0.00  0.00    +0.184 C 
BRANCH  17  18
ATOM     18  O   UNL     1      34.424 -13.792 -22.770  0.00  0.00    -0.476 OA
BRANCH  18  20
ATOM     19  N   UNL     1      34.802 -16.849 -24.718  0.00  0.00    -0.239 NA
ATOM     20  C   UNL     1      34.606 -15.120 -23.058  0.00  0.00    +0.158 C 
ATOM     21  C   UNL     1      34.766 -16.043 -22.042  0.00  0.00    +0.040 C 
ATOM     22  C   UNL     1      34.630 -15.555 -24.365  0.00  0.00    +0.136 C 
ATOM     23  C   UNL     1      34.946 -17.384 -22.365  0.00  0.00    +0.022 C 
ATOM     24  C   UNL     1      34.956 -17.732 -23.706  0.00  0.00    +0.099 C 
BRANCH  23  25
ATOM     25  C   UNL     1      35.117 -18.387 -21.330  0.00  0.00    +0.002 C 
ATOM     26  C   UNL     1      34.542 -19.614 -21.325  0.00  0.00    +0.000 C 
BRANCH  26  28
ATOM     27  N   UNL     1      35.086 -22.569 -18.320  0.00  0.00    -0.242 NA
ATOM     28  C   UNL     1      34.730 -20.640 -20.283  0.00  0.00    +0.003 C 
ATOM     29  C   UNL     1      36.008 -20.962 -19.873  0.00  0.00    +0.021 C 
ATOM     30  C   UNL     1      33.626 -21.261 -19.735  0.00  0.00    +0.021 C 
ATOM     31  C   UNL     1      36.132 -21.931 -18.890  0.00  0.00    +0.099 C 
ATOM     32  C   UNL     1      33.856 -22.217 -18.759  0.00  0.00    +0.099 C 
ENDBRANCH  26  28
ENDBRANCH  23  25
ENDBRANCH  18  20
ENDBRANCH  17  18
ENDBRANCH   1  17
TORSDOF 8
ENDMDL
MODEL 4
REMARK VINA RESULT:     -10.9      2.480      3.740
REMARK  Name = 6914613
REMARK  8 active torsions:
REMARK  status: ('A' for Active; 'I' for Inactive)
REMARK    1  A    between atoms: C_1  and  N_2
REMARK    2  A    between atoms: C_1  and  C_6
REMARK    3  A    between atoms: C_1  and  C_17
REMARK    4  A    between atoms: C_6  and  C_8
REMARK    5  A    between atoms: C_17  and  O_18
REMARK    6  A    between atoms: O_18  and  C_20
REMARK    7  A    between atoms: C_23  and  C_25
REMARK    8  A    between atoms: C_26  and  C_28
REMARK                            x       y       z     vdW  Elec       q    Type
REMARK                         _______ _______ _______ _____ _____    ______ ____
ROOT
ATOM      1  C   UNL     1      35.958 -19.170 -20.760  0.00  0.00    -0.017 C 
ENDROOT
BRANCH   1   2
ATOM      2  N   UNL     1      37.396 -19.277 -20.488  0.00  0.00    +0.384 N 
ATOM      3  H   UNL     1      37.801 -20.001 -21.081  0.00  0.00    -0.089 HD
ATOM      4  H   UNL     1      37.540 -19.521 -19.508  0.00  0.00    -0.089 HD
ATOM      5  H   UNL     1      37.846 -18.383 -20.685  0.00  0.00    -0.089 HD
ENDBRANCH   1   2
BRANCH   1   6
ATOM      6  C   UNL     1      35.744 -18.551 -22.166  0.00  0.00    +0.009 C 
BRANCH   6   8
ATOM      7  N   UNL     1      34.215 -15.313 -21.454  0.00  0.00    -0.312 N 
ATOM      8  C   UNL     1      35.085 -17.230 -22.159  0.00  0.00    -0.008 C 
ATOM      9  C   UNL     1      34.590 -16.522 -23.291  0.00  0.00    +0.011 C 
ATOM     10  C   UNL     1      34.050 -15.323 -22.821  0.00  0.00    +0.048 C 
ATOM     11  C   UNL     1      34.840 -16.461 -21.045  0.00  0.00    +0.058 C 
ATOM     12  C   UNL     1      34.550 -16.788 -24.674  0.00  0.00    +0.001 C 
ATOM     13  C   UNL     1      33.469 -14.373 -23.668  0.00  0.00    +0.015 C 
ATOM     14  C   UNL     1      33.973 -15.846 -25.534  0.00  0.00    +0.000 C 
ATOM     15  C   UNL     1      33.441 -14.659 -25.036  0.00  0.00    +0.001 C 
ATOM     16  H   UNL     1      33.926 -14.585 -20.857  0.00  0.00    +0.152 HD
ENDBRANCH   6   8
ENDBRANCH   1   6
BRANCH   1  17
ATOM     17  C   UNL     1      35.325 -20.558 -20.596  0.00  0.00    +0.184 C 
BRANCH  17  18
ATOM     18  O   UNL     1      36.226 -21.484 -20.003  0.00  0.00    -0.476 OA
BRANCH  18  20
ATOM     19  N   UNL     1      36.504 -22.599 -16.545  0.00  0.00    -0.239 NA
ATOM     20  C   UNL     1      35.868 -22.002 -18.786  0.00  0.00    +0.158 C 
ATOM     21  C   UNL     1      34.577 -22.442 -18.563  0.00  0.00    +0.040 C 
ATOM     22  C   UNL     1      36.791 -22.096 -17.767  0.00  0.00    +0.136 C 
ATOM     23  C   UNL     1      34.244 -22.966 -17.318  0.00  0.00    +0.022 C 
ATOM     24  C   UNL     1      35.235 -23.022 -16.353  0.00  0.00    +0.099 C 
BRANCH  23  25
ATOM     25  C   UNL     1      32.900 -23.440 -17.040  0.00  0.00    +0.002 C 
ATOM     26  C   UNL     1      32.283 -23.384 -15.835  0.00  0.00    +0.000 C 
BRANCH  26  28
ATOM     27  N   UNL     1      28.330 -24.722 -15.036  0.00  0.00    -0.242 NA
ATOM     28  C   UNL     1      30.912 -23.847 -15.557  0.00  0.00    +0.003 C 
ATOM     29  C   UNL     1      29.844 -23.196 -16.142  0.00  0.00    +0.021 C 
ATOM     30  C   UNL     1      30.717 -24.925 -14.717  0.00  0.00    +0.021 C 
ATOM     31  C   UNL     1      28.576 -23.671 -15.851  0.00  0.00    +0.099 C 
ATOM     32  C   UNL     1      29.410 -25.323 -14.489  0.00  0.00    +0.099 C 
ENDBRANCH  26  28
ENDBRANCH  23  25
ENDBRANCH  18  20
ENDBRANCH  17  18
ENDBRANCH   1  17
TORSDOF 8
ENDMDL
MODEL 5
REMARK VINA RESULT:     -10.7      2.658     11.007
REMARK  Name = 6914613
REMARK  8 active torsions:
REMARK  status: ('A' for Active; 'I' for Inactive)
REMARK    1  A    between atoms: C_1  and  N_2
REMARK    2  A    between atoms: C_1  and  C_6
REMARK    3  A    between atoms: C_1  and  C_17
REMARK    4  A    between atoms: C_6  and  C_8
REMARK    5  A    between atoms: C_17  and  O_18
REMARK    6  A    between atoms: O_18  and  C_20
REMARK    7  A    between atoms: C_23  and  C_25
REMARK    8  A    between atoms: C_26  and  C_28
REMARK                            x       y       z     vdW  Elec       q    Type
REMARK                         _______ _______ _______ _____ _____    ______ ____
ROOT
ATOM      1  C   UNL     1      34.143 -20.869 -19.841  0.00  0.00    -0.017 C 
ENDROOT
BRANCH   1   2
ATOM      2  N   UNL     1      32.754 -20.681 -20.276  0.00  0.00    +0.384 N 
ATOM      3  H   UNL     1      32.131 -20.786 -19.475  0.00  0.00    -0.089 HD
ATOM      4  H   UNL     1      32.521 -21.379 -20.982  0.00  0.00    -0.089 HD
ATOM      5  H   UNL     1      32.645 -19.748 -20.672  0.00  0.00    -0.089 HD
ENDBRANCH   1   2
BRANCH   1   6
ATOM      6  C   UNL     1      34.383 -22.367 -19.516  0.00  0.00    +0.009 C 
BRANCH   6   8
ATOM      7  N   UNL     1      36.258 -22.793 -16.411  0.00  0.00    -0.312 N 
ATOM      8  C   UNL     1      34.892 -22.623 -18.153  0.00  0.00    -0.008 C 
ATOM      9  C   UNL     1      34.137 -23.091 -17.040  0.00  0.00    +0.011 C 
ATOM     10  C   UNL     1      35.017 -23.188 -15.960  0.00  0.00    +0.048 C 
ATOM     11  C   UNL     1      36.191 -22.449 -17.735  0.00  0.00    +0.058 C 
ATOM     12  C   UNL     1      32.787 -23.441 -16.847  0.00  0.00    +0.001 C 
ATOM     13  C   UNL     1      34.613 -23.621 -14.692  0.00  0.00    +0.015 C 
ATOM     14  C   UNL     1      32.367 -23.875 -15.584  0.00  0.00    +0.000 C 
ATOM     15  C   UNL     1      33.268 -23.963 -14.526  0.00  0.00    +0.001 C 
ATOM     16  H   UNL     1      37.073 -22.762 -15.861  0.00  0.00    +0.152 HD
ENDBRANCH   6   8
ENDBRANCH   1   6
BRANCH   1  17
ATOM     17  C   UNL     1      35.075 -20.320 -20.930  0.00  0.00    +0.184 C 
BRANCH  17  18
ATOM     18  O   UNL     1      35.577 -19.033 -20.595  0.00  0.00    -0.476 OA
BRANCH  18  20
ATOM     19  N   UNL     1      35.129 -17.183 -23.703  0.00  0.00    -0.239 NA
ATOM     20  C   UNL     1      35.264 -18.006 -21.447  0.00  0.00    +0.158 C 
ATOM     21  C   UNL     1      34.792 -16.804 -20.954  0.00  0.00    +0.040 C 
ATOM     22  C   UNL     1      35.417 -18.155 -22.808  0.00  0.00    +0.136 C 
ATOM     23  C   UNL     1      34.484 -15.779 -21.844  0.00  0.00    +0.022 C 
ATOM     24  C   UNL     1      34.669 -16.018 -23.195  0.00  0.00    +0.099 C 
BRANCH  23  25
ATOM     25  C   UNL     1      33.986 -14.501 -21.370  0.00  0.00    +0.002 C 
ATOM     26  C   UNL     1      32.686 -14.117 -21.373  0.00  0.00    +0.000 C 
BRANCH  26  28
ATOM     27  N   UNL     1      31.224 -10.395 -19.934  0.00  0.00    -0.242 NA
ATOM     28  C   UNL     1      32.178 -12.826 -20.874  0.00  0.00    +0.003 C 
ATOM     29  C   UNL     1      31.864 -12.692 -19.536  0.00  0.00    +0.021 C 
ATOM     30  C   UNL     1      32.025 -11.772 -21.752  0.00  0.00    +0.021 C 
ATOM     31  C   UNL     1      31.392 -11.459 -19.117  0.00  0.00    +0.099 C 
ATOM     32  C   UNL     1      31.546 -10.580 -21.234  0.00  0.00    +0.099 C 
ENDBRANCH  26  28
ENDBRANCH  23  25
ENDBRANCH  18  20
ENDBRANCH  17  18
ENDBRANCH   1  17
TORSDOF 8
ENDMDL
MODEL 6
REMARK VINA RESULT:     -10.7      2.018     11.250
REMARK  Name = 6914613
REMARK  8 active torsions:
REMARK  status: ('A' for Active; 'I' for Inactive)
REMARK    1  A    between atoms: C_1  and  N_2
REMARK    2  A    between atoms: C_1  and  C_6
REMARK    3  A    between atoms: C_1  and  C_17
REMARK    4  A    between atoms: C_6  and  C_8
REMARK    5  A    between atoms: C_17  and  O_18
REMARK    6  A    between atoms: O_18  and  C_20
REMARK    7  A    between atoms: C_23  and  C_25
REMARK    8  A    between atoms: C_26  and  C_28
REMARK                            x       y       z     vdW  Elec       q    Type
REMARK                         _______ _______ _______ _____ _____    ______ ____
ROOT
ATOM      1  C   UNL     1      33.607 -23.054 -18.017  0.00  0.00    -0.017 C 
ENDROOT
BRANCH   1   2
ATOM      2  N   UNL     1      33.774 -24.341 -18.702  0.00  0.00    +0.384 N 
ATOM      3  H   UNL     1      34.042 -25.054 -18.024  0.00  0.00    -0.089 HD
ATOM      4  H   UNL     1      34.503 -24.256 -19.411  0.00  0.00    -0.089 HD
ATOM      5  H   UNL     1      32.896 -24.606 -19.147  0.00  0.00    -0.089 HD
ENDBRANCH   1   2
BRANCH   1   6
ATOM      6  C   UNL     1      34.569 -22.988 -16.801  0.00  0.00    +0.009 C 
BRANCH   6   8
ATOM      7  N   UNL     1      34.244 -25.293 -13.989  0.00  0.00    -0.312 N 
ATOM      8  C   UNL     1      34.168 -23.830 -15.657  0.00  0.00    -0.008 C 
ATOM      9  C   UNL     1      32.877 -23.890 -15.059  0.00  0.00    +0.011 C 
ATOM     10  C   UNL     1      32.952 -24.815 -14.015  0.00  0.00    +0.048 C 
ATOM     11  C   UNL     1      34.985 -24.703 -14.977  0.00  0.00    +0.058 C 
ATOM     12  C   UNL     1      31.650 -23.245 -15.306  0.00  0.00    +0.001 C 
ATOM     13  C   UNL     1      31.857 -25.128 -13.203  0.00  0.00    +0.015 C 
ATOM     14  C   UNL     1      30.545 -23.548 -14.502  0.00  0.00    +0.000 C 
ATOM     15  C   UNL     1      30.649 -24.475 -13.468  0.00  0.00    +0.001 C 
ATOM     16  H   UNL     1      34.584 -25.961 -13.351  0.00  0.00    +0.152 HD
ENDBRANCH   6   8
ENDBRANCH   1   6
BRANCH   1  17
ATOM     17  C   UNL     1      33.823 -21.926 -19.034  0.00  0.00    +0.184 C 
BRANCH  17  18
ATOM     18  O   UNL     1      35.053 -22.072 -19.732  0.00  0.00    -0.476 OA
BRANCH  18  20
ATOM     19  N   UNL     1      37.522 -19.423 -20.149  0.00  0.00    -0.239 NA
ATOM     20  C   UNL     1      35.643 -20.924 -20.193  0.00  0.00    +0.158 C 
ATOM     21  C   UNL     1      34.997 -20.127 -21.121  0.00  0.00    +0.040 C 
ATOM     22  C   UNL     1      36.886 -20.544 -19.737  0.00  0.00    +0.136 C 
ATOM     23  C   UNL     1      35.619 -18.967 -21.568  0.00  0.00    +0.022 C 
ATOM     24  C   UNL     1      36.869 -18.662 -21.056  0.00  0.00    +0.099 C 
BRANCH  23  25
ATOM     25  C   UNL     1      34.978 -18.101 -22.542  0.00  0.00    +0.002 C 
ATOM     26  C   UNL     1      35.139 -16.758 -22.622  0.00  0.00    +0.000 C 
BRANCH  26  28
ATOM     27  N   UNL     1      33.302 -14.232 -25.504  0.00  0.00    -0.242 NA
ATOM     28  C   UNL     1      34.503 -15.881 -23.622  0.00  0.00    +0.003 C 
ATOM     29  C   UNL     1      34.224 -16.378 -24.880  0.00  0.00    +0.021 C 
ATOM     30  C   UNL     1      34.195 -14.578 -23.284  0.00  0.00    +0.021 C 
ATOM     31  C   UNL     1      33.625 -15.515 -25.782  0.00  0.00    +0.099 C 
ATOM     32  C   UNL     1      33.597 -13.796 -24.258  0.00  0.00    +0.099 C 
ENDBRANCH  26  28
ENDBRANCH  23  25
ENDBRANCH  18  20
ENDBRANCH  17  18
ENDBRANCH   1  17
TORSDOF 8
ENDMDL
MODEL 7
REMARK VINA RESULT:     -10.7      2.891     11.061
REMARK  Name = 6914613
REMARK  8 active torsions:
REMARK  status: ('A' for Active; 'I' for Inactive)
REMARK    1  A    between atoms: C_1  and  N_2
REMARK    2  A    between atoms: C_1  and  C_6
REMARK    3  A    between atoms: C_1  and  C_17
REMARK    4  A    between atoms: C_6  and  C_8
REMARK    5  A    between atoms: C_17  and  O_18
REMARK    6  A    between atoms: O_18  and  C_20
REMARK    7  A    between atoms: C_23  and  C_25
REMARK    8  A    between atoms: C_26  and  C_28
REMARK                            x       y       z     vdW  Elec       q    Type
REMARK                         _______ _______ _______ _____ _____    ______ ____
ROOT
ATOM      1  C   UNL     1      34.808 -19.628 -21.504  0.00  0.00    -0.017 C 
ENDROOT
BRANCH   1   2
ATOM      2  N   UNL     1      34.872 -20.170 -22.866  0.00  0.00    +0.384 N 
ATOM      3  H   UNL     1      34.326 -21.030 -22.916  0.00  0.00    -0.089 HD
ATOM      4  H   UNL     1      35.843 -20.370 -23.108  0.00  0.00    -0.089 HD
ATOM      5  H   UNL     1      34.493 -19.487 -23.522  0.00  0.00    -0.089 HD
ENDBRANCH   1   2
BRANCH   1   6
ATOM      6  C   UNL     1      35.624 -20.538 -20.548  0.00  0.00    +0.009 C 
BRANCH   6   8
ATOM      7  N   UNL     1      33.075 -22.421 -18.734  0.00  0.00    -0.312 N 
ATOM      8  C   UNL     1      34.803 -21.354 -19.631  0.00  0.00    -0.008 C 
ATOM      9  C   UNL     1      35.241 -21.978 -18.429  0.00  0.00    +0.011 C 
ATOM     10  C   UNL     1      34.138 -22.641 -17.886  0.00  0.00    +0.048 C 
ATOM     11  C   UNL     1      33.468 -21.644 -19.791  0.00  0.00    +0.058 C 
ATOM     12  C   UNL     1      36.472 -22.043 -17.748  0.00  0.00    +0.001 C 
ATOM     13  C   UNL     1      34.205 -23.368 -16.692  0.00  0.00    +0.015 C 
ATOM     14  C   UNL     1      36.555 -22.767 -16.553  0.00  0.00    +0.000 C 
ATOM     15  C   UNL     1      35.438 -23.418 -16.035  0.00  0.00    +0.001 C 
ATOM     16  H   UNL     1      32.165 -22.772 -18.600  0.00  0.00    +0.152 HD
ENDBRANCH   6   8
ENDBRANCH   1   6
BRANCH   1  17
ATOM     17  C   UNL     1      35.295 -18.174 -21.532  0.00  0.00    +0.184 C 
BRANCH  17  18
ATOM     18  O   UNL     1      35.706 -17.779 -22.834  0.00  0.00    -0.476 OA
BRANCH  18  20
ATOM     19  N   UNL     1      33.841 -16.058 -25.451  0.00  0.00    -0.239 NA
ATOM     20  C   UNL     1      34.951 -16.820 -23.457  0.00  0.00    +0.158 C 
ATOM     21  C   UNL     1      34.548 -15.689 -22.772  0.00  0.00    +0.040 C 
ATOM     22  C   UNL     1      34.583 -16.967 -24.777  0.00  0.00    +0.136 C 
ATOM     23  C   UNL     1      33.784 -14.732 -23.431  0.00  0.00    +0.022 C 
ATOM     24  C   UNL     1      33.461 -14.962 -24.758  0.00  0.00    +0.099 C 
BRANCH  23  25
ATOM     25  C   UNL     1      33.340 -13.529 -22.750  0.00  0.00    +0.002 C 
ATOM     26  C   UNL     1      32.502 -13.496 -21.685  0.00  0.00    +0.000 C 
BRANCH  26  28
ATOM     27  N   UNL     1      31.243  -9.980 -19.657  0.00  0.00    -0.242 NA
ATOM     28  C   UNL     1      32.066 -12.276 -20.982  0.00  0.00    +0.003 C 
ATOM     29  C   UNL     1      32.026 -11.077 -21.664  0.00  0.00    +0.021 C 
ATOM     30  C   UNL     1      31.704 -12.353 -19.651  0.00  0.00    +0.021 C 
ATOM     31  C   UNL     1      31.608  -9.960 -20.959  0.00  0.00    +0.099 C 
ATOM     32  C   UNL     1      31.301 -11.179 -19.036  0.00  0.00    +0.099 C 
ENDBRANCH  26  28
ENDBRANCH  23  25
ENDBRANCH  18  20
ENDBRANCH  17  18
ENDBRANCH   1  17
TORSDOF 8
ENDMDL
MODEL 8
REMARK VINA RESULT:     -10.6      3.108     11.949
REMARK  Name = 6914613
REMARK  8 active torsions:
REMARK  status: ('A' for Active; 'I' for Inactive)
REMARK    1  A    between atoms: C_1  and  N_2
REMARK    2  A    between atoms: C_1  and  C_6
REMARK    3  A    between atoms: C_1  and  C_17
REMARK    4  A    between atoms: C_6  and  C_8
REMARK    5  A    between atoms: C_17  and  O_18
REMARK    6  A    between atoms: O_18  and  C_20
REMARK    7  A    between atoms: C_23  and  C_25
REMARK    8  A    between atoms: C_26  and  C_28
REMARK                            x       y       z     vdW  Elec       q    Type
REMARK                         _______ _______ _______ _____ _____    ______ ____
ROOT
ATOM      1  C   UNL     1      35.615 -19.264 -21.563  0.00  0.00    -0.017 C 
ENDROOT
BRANCH   1   2
ATOM      2  N   UNL     1      35.651 -18.131 -20.631  0.00  0.00    +0.384 N 
ATOM      3  H   UNL     1      34.926 -18.250 -19.924  0.00  0.00    -0.089 HD
ATOM      4  H   UNL     1      35.487 -17.264 -21.143  0.00  0.00    -0.089 HD
ATOM      5  H   UNL     1      36.565 -18.092 -20.180  0.00  0.00    -0.089 HD
ENDBRANCH   1   2
BRANCH   1   6
ATOM      6  C   UNL     1      34.701 -20.377 -20.987  0.00  0.00    +0.009 C 
BRANCH   6   8
ATOM      7  N   UNL     1      36.741 -21.950 -18.399  0.00  0.00    -0.312 N 
ATOM      8  C   UNL     1      35.277 -21.110 -19.842  0.00  0.00    -0.008 C 
ATOM      9  C   UNL     1      34.562 -21.872 -18.876  0.00  0.00    +0.011 C 
ATOM     10  C   UNL     1      35.503 -22.388 -17.981  0.00  0.00    +0.048 C 
ATOM     11  C   UNL     1      36.614 -21.177 -19.522  0.00  0.00    +0.058 C 
ATOM     12  C   UNL     1      33.201 -22.174 -18.675  0.00  0.00    +0.001 C 
ATOM     13  C   UNL     1      35.149 -23.192 -16.893  0.00  0.00    +0.015 C 
ATOM     14  C   UNL     1      32.832 -22.978 -17.590  0.00  0.00    +0.000 C 
ATOM     15  C   UNL     1      33.792 -23.478 -16.715  0.00  0.00    +0.001 C 
ATOM     16  H   UNL     1      37.593 -22.161 -17.953  0.00  0.00    +0.152 HD
ENDBRANCH   6   8
ENDBRANCH   1   6
BRANCH   1  17
ATOM     17  C   UNL     1      35.167 -18.752 -22.939  0.00  0.00    +0.184 C 
BRANCH  17  18
ATOM     18  O   UNL     1      35.750 -17.493 -23.250  0.00  0.00    -0.476 OA
BRANCH  18  20
ATOM     19  N   UNL     1      33.638 -15.999 -25.817  0.00  0.00    -0.239 NA
ATOM     20  C   UNL     1      34.948 -16.581 -23.886  0.00  0.00    +0.158 C 
ATOM     21  C   UNL     1      34.648 -15.372 -23.287  0.00  0.00    +0.040 C 
ATOM     22  C   UNL     1      34.432 -16.854 -25.134  0.00  0.00    +0.136 C 
ATOM     23  C   UNL     1      33.834 -14.466 -23.958  0.00  0.00    +0.022 C 
ATOM     24  C   UNL     1      33.360 -14.824 -25.209  0.00  0.00    +0.099 C 
BRANCH  23  25
ATOM     25  C   UNL     1      33.494 -13.184 -23.367  0.00  0.00    +0.002 C 
ATOM     26  C   UNL     1      33.826 -11.973 -23.877  0.00  0.00    +0.000 C 
BRANCH  26  28
ATOM     27  N   UNL     1      32.785  -8.222 -22.172  0.00  0.00    -0.242 NA
ATOM     28  C   UNL     1      33.464 -10.672 -23.286  0.00  0.00    +0.003 C 
ATOM     29  C   UNL     1      32.332 -10.574 -22.502  0.00  0.00    +0.021 C 
ATOM     30  C   UNL     1      34.264  -9.572 -23.526  0.00  0.00    +0.021 C 
ATOM     31  C   UNL     1      32.036  -9.330 -21.969  0.00  0.00    +0.099 C 
ATOM     32  C   UNL     1      33.882  -8.373 -22.948  0.00  0.00    +0.099 C 
ENDBRANCH  26  28
ENDBRANCH  23  25
ENDBRANCH  18  20
ENDBRANCH  17  18
ENDBRANCH   1  17
TORSDOF 8
ENDMDL
MODEL 9
REMARK VINA RESULT:     -10.6      3.096      3.979
REMARK  Name = 6914613
REMARK  8 active torsions:
REMARK  status: ('A' for Active; 'I' for Inactive)
REMARK    1  A    between atoms: C_1  and  N_2
REMARK    2  A    between atoms: C_1  and  C_6
REMARK    3  A    between atoms: C_1  and  C_17
REMARK    4  A    between atoms: C_6  and  C_8
REMARK    5  A    between atoms: C_17  and  O_18
REMARK    6  A    between atoms: O_18  and  C_20
REMARK    7  A    between atoms: C_23  and  C_25
REMARK    8  A    between atoms: C_26  and  C_28
REMARK                            x       y       z     vdW  Elec       q    Type
REMARK                         _______ _______ _______ _____ _____    ______ ____
ROOT
ATOM      1  C   UNL     1      35.393 -19.122 -22.317  0.00  0.00    -0.017 C 
ENDROOT
BRANCH   1   2
ATOM      2  N   UNL     1      34.519 -19.401 -23.463  0.00  0.00    +0.384 N 
ATOM      3  H   UNL     1      34.176 -20.359 -23.403  0.00  0.00    -0.089 HD
ATOM      4  H   UNL     1      35.045 -19.281 -24.328  0.00  0.00    -0.089 HD
ATOM      5  H   UNL     1      33.730 -18.755 -23.452  0.00  0.00    -0.089 HD
ENDBRANCH   1   2
BRANCH   1   6
ATOM      6  C   UNL     1      36.051 -17.729 -22.497  0.00  0.00    +0.009 C 
BRANCH   6   8
ATOM      7  N   UNL     1      33.961 -15.302 -24.250  0.00  0.00    -0.312 N 
ATOM      8  C   UNL     1      35.126 -16.668 -22.944  0.00  0.00    -0.008 C 
ATOM      9  C   UNL     1      34.344 -15.818 -22.112  0.00  0.00    +0.011 C 
ATOM     10  C   UNL     1      33.622 -14.970 -22.956  0.00  0.00    +0.048 C 
ATOM     11  C   UNL     1      34.869 -16.327 -24.252  0.00  0.00    +0.058 C 
ATOM     12  C   UNL     1      34.181 -15.687 -20.720  0.00  0.00    +0.001 C 
ATOM     13  C   UNL     1      32.742 -13.995 -22.475  0.00  0.00    +0.015 C 
ATOM     14  C   UNL     1      33.304 -14.716 -20.223  0.00  0.00    +0.000 C 
ATOM     15  C   UNL     1      32.597 -13.884 -21.088  0.00  0.00    +0.001 C 
ATOM     16  H   UNL     1      33.602 -14.865 -25.056  0.00  0.00    +0.152 HD
ENDBRANCH   6   8
ENDBRANCH   1   6
BRANCH   1  17
ATOM     17  C   UNL     1      34.568 -19.251 -21.030  0.00  0.00    +0.184 C 
BRANCH  17  18
ATOM     18  O   UNL     1      34.000 -20.547 -20.893  0.00  0.00    -0.476 OA
BRANCH  18  20
ATOM     19  N   UNL     1      36.221 -22.054 -18.427  0.00  0.00    -0.239 NA
ATOM     20  C   UNL     1      34.414 -21.293 -19.820  0.00  0.00    +0.158 C 
ATOM     21  C   UNL     1      33.502 -22.016 -19.074  0.00  0.00    +0.040 C 
ATOM     22  C   UNL     1      35.746 -21.337 -19.471  0.00  0.00    +0.136 C 
ATOM     23  C   UNL     1      33.953 -22.766 -17.993  0.00  0.00    +0.022 C 
ATOM     24  C   UNL     1      35.309 -22.752 -17.714  0.00  0.00    +0.099 C 
BRANCH  23  25
ATOM     25  C   UNL     1      33.030 -23.540 -17.182  0.00  0.00    +0.002 C 
ATOM     26  C   UNL     1      31.991 -23.031 -16.476  0.00  0.00    +0.000 C 
BRANCH  26  28
ATOM     27  N   UNL     1      29.257 -25.306 -14.150  0.00  0.00    -0.242 NA
ATOM     28  C   UNL     1      31.042 -23.819 -15.669  0.00  0.00    +0.003 C 
ATOM     29  C   UNL     1      29.705 -23.833 -16.013  0.00  0.00    +0.021 C 
ATOM     30  C   UNL     1      31.506 -24.532 -14.581  0.00  0.00    +0.021 C 
ATOM     31  C   UNL     1      28.855 -24.590 -15.224  0.00  0.00    +0.099 C 
ATOM     32  C   UNL     1      30.576 -25.258 -13.855  0.00  0.00    +0.099 C 
ENDBRANCH  26  28
ENDBRANCH  23  25
ENDBRANCH  18  20
ENDBRANCH  17  18
ENDBRANCH   1  17
TORSDOF 8
ENDMDL
