MODEL 1
REMARK VINA RESULT:     -12.1      0.000      0.000
REMARK  Name = 16040289
REMARK  6 active torsions:
REMARK  status: ('A' for Active; 'I' for Inactive)
REMARK    1  A    between atoms: N_2  and  C_20
REMARK    2  A    between atoms: C_3  and  C_6
REMARK    3  A    between atoms: N_11  and  C_13
REMARK    4  A    between atoms: C_13  and  C_15
REMARK    5  A    between atoms: C_23  and  O_26
REMARK    6  A    between atoms: O_26  and  C_27
REMARK                            x       y       z     vdW  Elec       q    Type
REMARK                         _______ _______ _______ _____ _____    ______ ____
ROOT
ATOM      1  O   UNL     1      34.610 -23.196 -16.439  0.00  0.00    -0.270 OA
ATOM      2  N   UNL     1      32.880 -22.465 -17.853  0.00  0.00    -0.280 N 
ATOM      3  C   UNL     1      33.423 -23.107 -16.732  0.00  0.00    +0.252 C 
ATOM      4  H   UNL     1      31.899 -22.492 -17.931  0.00  0.00    +0.155 HD
ENDROOT
BRANCH   3   6
ATOM      5  N   UNL     1      31.928 -24.880 -13.781  0.00  0.00    -0.229 NA
ATOM      6  C   UNL     1      32.438 -23.763 -15.833  0.00  0.00    +0.085 C 
ATOM      7  C   UNL     1      32.803 -24.277 -14.617  0.00  0.00    +0.133 C 
ATOM      8  C   UNL     1      31.129 -23.846 -16.252  0.00  0.00    +0.009 C 
ATOM      9  C   UNL     1      30.200 -24.459 -15.419  0.00  0.00    +0.021 C 
ATOM     10  C   UNL     1      30.646 -24.955 -14.204  0.00  0.00    +0.100 C 
ATOM     11  N   UNL     1      34.155 -24.181 -14.202  0.00  0.00    -0.314 N 
ATOM     12  H   UNL     1      34.803 -23.744 -14.800  0.00  0.00    +0.149 HD
BRANCH  11  13
ATOM     13  C   UNL     1      34.613 -24.692 -12.951  0.00  0.00    +0.115 C 
BRANCH  13  15
ATOM     14  N   UNL     1      38.379 -26.681 -13.431  0.00  0.00    -0.242 NA
ATOM     15  C   UNL     1      35.935 -25.390 -13.121  0.00  0.00    +0.000 C 
ATOM     16  C   UNL     1      36.358 -25.759 -14.385  0.00  0.00    +0.018 C 
ATOM     17  C   UNL     1      36.715 -25.657 -12.008  0.00  0.00    +0.018 C 
ATOM     18  C   UNL     1      37.582 -26.399 -14.487  0.00  0.00    +0.099 C 
ATOM     19  C   UNL     1      37.924 -26.301 -12.217  0.00  0.00    +0.099 C 
ENDBRANCH  13  15
ENDBRANCH  11  13
ENDBRANCH   3   6
BRANCH   2  20
ATOM     20  C   UNL     1      33.557 -21.794 -18.871  0.00  0.00    +0.051 C 
ATOM     21  C   UNL     1      34.938 -21.943 -19.007  0.00  0.00    +0.018 C 
ATOM     22  C   UNL     1      32.854 -20.973 -19.752  0.00  0.00    +0.018 C 
ATOM     23  C   UNL     1      34.911 -20.450 -20.907  0.00  0.00    +0.145 C 
ATOM     24  C   UNL     1      35.614 -21.272 -20.026  0.00  0.00    +0.039 C 
ATOM     25  C   UNL     1      33.531 -20.301 -20.771  0.00  0.00    +0.039 C 
BRANCH  23  26
ATOM     26  O   UNL     1      35.571 -19.794 -21.899  0.00  0.00    -0.453 OA
BRANCH  26  27
ATOM     27  C   UNL     1      35.257 -18.462 -22.111  0.00  0.00    +0.145 C 
ATOM     28  C   UNL     1      35.108 -18.003 -23.408  0.00  0.00    +0.037 C 
ATOM     29  C   UNL     1      35.100 -17.625 -21.021  0.00  0.00    +0.037 C 
ATOM     30  C   UNL     1      34.792 -16.661 -23.621  0.00  0.00    +0.003 C 
ATOM     31  C   UNL     1      34.784 -16.283 -21.234  0.00  0.00    +0.003 C 
ATOM     32  C   UNL     1      34.630 -15.802 -22.534  0.00  0.00    +0.000 C 
ENDBRANCH  26  27
ENDBRANCH  23  26
ENDBRANCH   2  20
TORSDOF 6
ENDMDL
MODEL 2
REMARK VINA RESULT:     -11.6      1.801      5.011
REMARK  Name = 16040289
REMARK  6 active torsions:
REMARK  status: ('A' for Active; 'I' for Inactive)
REMARK    1  A    between atoms: N_2  and  C_20
REMARK    2  A    between atoms: C_3  and  C_6
REMARK    3  A    between atoms: N_11  and  C_13
REMARK    4  A    between atoms: C_13  and  C_15
REMARK    5  A    between atoms: C_23  and  O_26
REMARK    6  A    between atoms: O_26  and  C_27
REMARK                            x       y       z     vdW  Elec       q    Type
REMARK                         _______ _______ _______ _____ _____    ______ ____
ROOT
ATOM      1  O   UNL     1      32.963 -23.527 -17.838  0.00  0.00    -0.270 OA
ATOM      2  N   UNL     1      35.002 -22.382 -17.596  0.00  0.00    -0.280 N 
ATOM      3  C   UNL     1      33.971 -23.243 -17.200  0.00  0.00    +0.252 C 
ATOM      4  H   UNL     1      35.740 -22.268 -16.954  0.00  0.00    +0.155 HD
ENDROOT
BRANCH   3   6
ATOM      5  N   UNL     1      33.219 -24.359 -13.696  0.00  0.00    -0.229 NA
ATOM      6  C   UNL     1      34.124 -23.842 -15.848  0.00  0.00    +0.085 C 
ATOM      7  C   UNL     1      33.106 -23.823 -14.932  0.00  0.00    +0.133 C 
ATOM      8  C   UNL     1      35.329 -24.426 -15.528  0.00  0.00    +0.009 C 
ATOM      9  C   UNL     1      35.483 -24.989 -14.266  0.00  0.00    +0.021 C 
ATOM     10  C   UNL     1      34.407 -24.930 -13.394  0.00  0.00    +0.100 C 
ATOM     11  N   UNL     1      31.873 -23.218 -15.279  0.00  0.00    -0.314 N 
ATOM     12  H   UNL     1      31.775 -22.824 -16.176  0.00  0.00    +0.149 HD
BRANCH  11  13
ATOM     13  C   UNL     1      30.766 -23.158 -14.381  0.00  0.00    +0.115 C 
BRANCH  13  15
ATOM     14  N   UNL     1      27.071 -23.291 -16.548  0.00  0.00    -0.242 NA
ATOM     15  C   UNL     1      29.468 -23.205 -15.141  0.00  0.00    +0.000 C 
ATOM     16  C   UNL     1      28.383 -22.475 -14.690  0.00  0.00    +0.018 C 
ATOM     17  C   UNL     1      29.374 -23.978 -16.285  0.00  0.00    +0.018 C 
ATOM     18  C   UNL     1      27.212 -22.551 -15.425  0.00  0.00    +0.099 C 
ATOM     19  C   UNL     1      28.158 -23.987 -16.950  0.00  0.00    +0.099 C 
ENDBRANCH  13  15
ENDBRANCH  11  13
ENDBRANCH   3   6
BRANCH   2  20
ATOM     20  C   UNL     1      35.113 -21.665 -18.788  0.00  0.00    +0.051 C 
ATOM     21  C   UNL     1      33.965 -21.291 -19.487  0.00  0.00    +0.018 C 
ATOM     22  C   UNL     1      36.373 -21.324 -19.281  0.00  0.00    +0.018 C 
ATOM     23  C   UNL     1      35.336 -20.233 -21.172  0.00  0.00    +0.145 C 
ATOM     24  C   UNL     1      34.077 -20.574 -20.679  0.00  0.00    +0.039 C 
ATOM     25  C   UNL     1      36.484 -20.607 -20.473  0.00  0.00    +0.039 C 
BRANCH  23  26
ATOM     26  O   UNL     1      35.446 -19.536 -22.335  0.00  0.00    -0.453 OA
BRANCH  26  27
ATOM     27  C   UNL     1      35.152 -18.183 -22.306  0.00  0.00    +0.145 C 
ATOM     28  C   UNL     1      34.976 -17.559 -21.084  0.00  0.00    +0.037 C 
ATOM     29  C   UNL     1      35.041 -17.491 -23.498  0.00  0.00    +0.037 C 
ATOM     30  C   UNL     1      34.678 -16.196 -21.054  0.00  0.00    +0.003 C 
ATOM     31  C   UNL     1      34.743 -16.128 -23.469  0.00  0.00    +0.003 C 
ATOM     32  C   UNL     1      34.562 -15.482 -22.246  0.00  0.00    +0.000 C 
ENDBRANCH  26  27
ENDBRANCH  23  26
ENDBRANCH   2  20
TORSDOF 6
ENDMDL
MODEL 3
REMARK VINA RESULT:     -11.4      1.605      4.428
REMARK  Name = 16040289
REMARK  6 active torsions:
REMARK  status: ('A' for Active; 'I' for Inactive)
REMARK    1  A    between atoms: N_2  and  C_20
REMARK    2  A    between atoms: C_3  and  C_6
REMARK    3  A    between atoms: N_11  and  C_13
REMARK    4  A    between atoms: C_13  and  C_15
REMARK    5  A    between atoms: C_23  and  O_26
REMARK    6  A    between atoms: O_26  and  C_27
REMARK                            x       y       z     vdW  Elec       q    Type
REMARK                         _______ _______ _______ _____ _____    ______ ____
ROOT
ATOM      1  O   UNL     1      37.187 -21.944 -15.756  0.00  0.00    -0.270 OA
ATOM      2  N   UNL     1      35.645 -23.441 -16.709  0.00  0.00    -0.280 N 
ATOM      3  C   UNL     1      36.623 -23.033 -15.793  0.00  0.00    +0.252 C 
ATOM      4  H   UNL     1      35.299 -24.356 -16.591  0.00  0.00    +0.155 HD
ENDROOT
BRANCH   3   6
ATOM      5  N   UNL     1      36.453 -25.497 -12.967  0.00  0.00    -0.229 NA
ATOM      6  C   UNL     1      37.019 -24.051 -14.786  0.00  0.00    +0.085 C 
ATOM      7  C   UNL     1      36.119 -24.571 -13.894  0.00  0.00    +0.133 C 
ATOM      8  C   UNL     1      38.330 -24.471 -14.766  0.00  0.00    +0.009 C 
ATOM      9  C   UNL     1      38.712 -25.424 -13.828  0.00  0.00    +0.021 C 
ATOM     10  C   UNL     1      37.743 -25.900 -12.958  0.00  0.00    +0.100 C 
ATOM     11  N   UNL     1      34.773 -24.127 -13.929  0.00  0.00    -0.314 N 
ATOM     12  H   UNL     1      34.515 -23.454 -14.600  0.00  0.00    +0.149 HD
BRANCH  11  13
ATOM     13  C   UNL     1      33.778 -24.619 -13.034  0.00  0.00    +0.115 C 
BRANCH  13  15
ATOM     14  N   UNL     1      29.888 -24.318 -14.808  0.00  0.00    -0.242 NA
ATOM     15  C   UNL     1      32.412 -24.514 -13.656  0.00  0.00    +0.000 C 
ATOM     16  C   UNL     1      31.415 -25.395 -13.275  0.00  0.00    +0.018 C 
ATOM     17  C   UNL     1      32.166 -23.537 -14.606  0.00  0.00    +0.018 C 
ATOM     18  C   UNL     1      30.176 -25.256 -13.877  0.00  0.00    +0.099 C 
ATOM     19  C   UNL     1      30.892 -23.480 -15.148  0.00  0.00    +0.099 C 
ENDBRANCH  13  15
ENDBRANCH  11  13
ENDBRANCH   3   6
BRANCH   2  20
ATOM     20  C   UNL     1      35.103 -22.714 -17.768  0.00  0.00    +0.051 C 
ATOM     21  C   UNL     1      35.943 -22.059 -18.668  0.00  0.00    +0.018 C 
ATOM     22  C   UNL     1      33.718 -22.642 -17.927  0.00  0.00    +0.018 C 
ATOM     23  C   UNL     1      34.015 -21.259 -19.887  0.00  0.00    +0.145 C 
ATOM     24  C   UNL     1      35.399 -21.332 -19.728  0.00  0.00    +0.039 C 
ATOM     25  C   UNL     1      33.175 -21.915 -18.987  0.00  0.00    +0.039 C 
BRANCH  23  26
ATOM     26  O   UNL     1      33.485 -20.548 -20.918  0.00  0.00    -0.453 OA
BRANCH  26  27
ATOM     27  C   UNL     1      34.265 -19.555 -21.484  0.00  0.00    +0.145 C 
ATOM     28  C   UNL     1      34.867 -19.786 -22.709  0.00  0.00    +0.037 C 
ATOM     29  C   UNL     1      34.423 -18.356 -20.811  0.00  0.00    +0.037 C 
ATOM     30  C   UNL     1      35.654 -18.785 -23.278  0.00  0.00    +0.003 C 
ATOM     31  C   UNL     1      35.210 -17.355 -21.381  0.00  0.00    +0.003 C 
ATOM     32  C   UNL     1      35.825 -17.570 -22.614  0.00  0.00    +0.000 C 
ENDBRANCH  26  27
ENDBRANCH  23  26
ENDBRANCH   2  20
TORSDOF 6
ENDMDL
MODEL 4
REMARK VINA RESULT:     -11.2      1.968      4.815
REMARK  Name = 16040289
REMARK  6 active torsions:
REMARK  status: ('A' for Active; 'I' for Inactive)
REMARK    1  A    between atoms: N_2  and  C_20
REMARK    2  A    between atoms: C_3  and  C_6
REMARK    3  A    between atoms: N_11  and  C_13
REMARK    4  A    between atoms: C_13  and  C_15
REMARK    5  A    between atoms: C_23  and  O_26
REMARK    6  A    between atoms: O_26  and  C_27
REMARK                            x       y       z     vdW  Elec       q    Type
REMARK                         _______ _______ _______ _____ _____    ______ ____
ROOT
ATOM      1  O   UNL     1      37.257 -24.866 -15.017  0.00  0.00    -0.270 OA
ATOM      2  N   UNL     1      35.696 -23.110 -15.112  0.00  0.00    -0.280 N 
ATOM      3  C   UNL     1      36.451 -24.109 -14.485  0.00  0.00    +0.252 C 
ATOM      4  H   UNL     1      35.095 -22.594 -14.528  0.00  0.00    +0.155 HD
ENDROOT
BRANCH   3   6
ATOM      5  N   UNL     1      34.760 -24.827 -11.212  0.00  0.00    -0.229 NA
ATOM      6  C   UNL     1      36.214 -24.268 -13.026  0.00  0.00    +0.085 C 
ATOM      7  C   UNL     1      35.003 -24.676 -12.534  0.00  0.00    +0.133 C 
ATOM      8  C   UNL     1      37.251 -23.991 -12.165  0.00  0.00    +0.009 C 
ATOM      9  C   UNL     1      37.039 -24.135 -10.798  0.00  0.00    +0.021 C 
ATOM     10  C   UNL     1      35.786 -24.552 -10.377  0.00  0.00    +0.100 C 
ATOM     11  N   UNL     1      33.947 -24.958 -13.436  0.00  0.00    -0.314 N 
ATOM     12  H   UNL     1      34.110 -24.854 -14.401  0.00  0.00    +0.149 HD
BRANCH  11  13
ATOM     13  C   UNL     1      32.658 -25.388 -13.001  0.00  0.00    +0.115 C 
BRANCH  13  15
ATOM     14  N   UNL     1      29.624 -23.956 -15.668  0.00  0.00    -0.242 NA
ATOM     15  C   UNL     1      31.593 -24.886 -13.938  0.00  0.00    +0.000 C 
ATOM     16  C   UNL     1      30.330 -25.451 -13.905  0.00  0.00    +0.018 C 
ATOM     17  C   UNL     1      31.887 -23.863 -14.823  0.00  0.00    +0.018 C 
ATOM     18  C   UNL     1      29.385 -24.953 -14.786  0.00  0.00    +0.099 C 
ATOM     19  C   UNL     1      30.871 -23.435 -15.663  0.00  0.00    +0.099 C 
ENDBRANCH  13  15
ENDBRANCH  11  13
ENDBRANCH   3   6
BRANCH   2  20
ATOM     20  C   UNL     1      35.691 -22.756 -16.461  0.00  0.00    +0.051 C 
ATOM     21  C   UNL     1      34.569 -23.018 -17.247  0.00  0.00    +0.018 C 
ATOM     22  C   UNL     1      36.809 -22.139 -17.024  0.00  0.00    +0.018 C 
ATOM     23  C   UNL     1      35.682 -22.047 -19.160  0.00  0.00    +0.145 C 
ATOM     24  C   UNL     1      34.565 -22.662 -18.597  0.00  0.00    +0.039 C 
ATOM     25  C   UNL     1      36.804 -21.784 -18.373  0.00  0.00    +0.039 C 
BRANCH  23  26
ATOM     26  O   UNL     1      35.679 -21.702 -20.476  0.00  0.00    -0.453 OA
BRANCH  26  27
ATOM     27  C   UNL     1      35.600 -20.356 -20.789  0.00  0.00    +0.145 C 
ATOM     28  C   UNL     1      36.755 -19.675 -21.131  0.00  0.00    +0.037 C 
ATOM     29  C   UNL     1      34.369 -19.726 -20.752  0.00  0.00    +0.037 C 
ATOM     30  C   UNL     1      36.676 -18.318 -21.446  0.00  0.00    +0.003 C 
ATOM     31  C   UNL     1      34.290 -18.369 -21.067  0.00  0.00    +0.003 C 
ATOM     32  C   UNL     1      35.444 -17.666 -21.414  0.00  0.00    +0.000 C 
ENDBRANCH  26  27
ENDBRANCH  23  26
ENDBRANCH   2  20
TORSDOF 6
ENDMDL
MODEL 5
REMARK VINA RESULT:     -11.0      1.979      4.878
REMARK  Name = 16040289
REMARK  6 active torsions:
REMARK  status: ('A' for Active; 'I' for Inactive)
REMARK    1  A    between atoms: N_2  and  C_20
REMARK    2  A    between atoms: C_3  and  C_6
REMARK    3  A    between atoms: N_11  and  C_13
REMARK    4  A    between atoms: C_13  and  C_15
REMARK    5  A    between atoms: C_23  and  O_26
REMARK    6  A    between atoms: O_26  and  C_27
REMARK                            x       y       z     vdW  Elec       q    Type
REMARK                         _______ _______ _______ _____ _____    ______ ____
ROOT
ATOM      1  O   UNL     1      34.557 -22.595 -18.196  0.00  0.00    -0.270 OA
ATOM      2  N   UNL     1      36.495 -21.317 -18.567  0.00  0.00    -0.280 N 
ATOM      3  C   UNL     1      35.692 -22.245 -17.891  0.00  0.00    +0.252 C 
ATOM      4  H   UNL     1      37.386 -21.155 -18.180  0.00  0.00    +0.155 HD
ENDROOT
BRANCH   3   6
ATOM      5  N   UNL     1      36.034 -23.911 -14.545  0.00  0.00    -0.229 NA
ATOM      6  C   UNL     1      36.291 -22.831 -16.664  0.00  0.00    +0.085 C 
ATOM      7  C   UNL     1      35.516 -23.372 -15.672  0.00  0.00    +0.133 C 
ATOM      8  C   UNL     1      37.661 -22.822 -16.539  0.00  0.00    +0.009 C 
ATOM      9  C   UNL     1      38.232 -23.368 -15.394  0.00  0.00    +0.021 C 
ATOM     10  C   UNL     1      37.381 -23.895 -14.435  0.00  0.00    +0.100 C 
ATOM     11  N   UNL     1      34.106 -23.374 -15.817  0.00  0.00    -0.314 N 
ATOM     12  H   UNL     1      33.715 -22.986 -16.633  0.00  0.00    +0.149 HD
BRANCH  11  13
ATOM     13  C   UNL     1      33.232 -23.917 -14.830  0.00  0.00    +0.115 C 
BRANCH  13  15
ATOM     14  N   UNL     1      29.183 -22.745 -15.607  0.00  0.00    -0.242 NA
ATOM     15  C   UNL     1      31.810 -23.506 -15.102  0.00  0.00    +0.000 C 
ATOM     16  C   UNL     1      30.918 -23.386 -14.051  0.00  0.00    +0.018 C 
ATOM     17  C   UNL     1      31.409 -23.252 -16.402  0.00  0.00    +0.018 C 
ATOM     18  C   UNL     1      29.622 -23.004 -14.354  0.00  0.00    +0.099 C 
ATOM     19  C   UNL     1      30.090 -22.875 -16.600  0.00  0.00    +0.099 C 
ENDBRANCH  13  15
ENDBRANCH  11  13
ENDBRANCH   3   6
BRANCH   2  20
ATOM     20  C   UNL     1      36.190 -20.596 -19.721  0.00  0.00    +0.051 C 
ATOM     21  C   UNL     1      34.919 -20.694 -20.289  0.00  0.00    +0.018 C 
ATOM     22  C   UNL     1      37.156 -19.777 -20.307  0.00  0.00    +0.018 C 
ATOM     23  C   UNL     1      35.580 -19.153 -22.030  0.00  0.00    +0.145 C 
ATOM     24  C   UNL     1      34.615 -19.971 -21.444  0.00  0.00    +0.039 C 
ATOM     25  C   UNL     1      36.850 -19.056 -21.462  0.00  0.00    +0.039 C 
BRANCH  23  26
ATOM     26  O   UNL     1      35.283 -18.451 -23.157  0.00  0.00    -0.453 OA
BRANCH  26  27
ATOM     27  C   UNL     1      34.936 -17.118 -23.013  0.00  0.00    +0.145 C 
ATOM     28  C   UNL     1      34.812 -16.588 -21.740  0.00  0.00    +0.037 C 
ATOM     29  C   UNL     1      34.722 -16.351 -24.144  0.00  0.00    +0.037 C 
ATOM     30  C   UNL     1      34.462 -15.246 -21.595  0.00  0.00    +0.003 C 
ATOM     31  C   UNL     1      34.372 -15.008 -23.998  0.00  0.00    +0.003 C 
ATOM     32  C   UNL     1      34.242 -14.457 -22.724  0.00  0.00    +0.000 C 
ENDBRANCH  26  27
ENDBRANCH  23  26
ENDBRANCH   2  20
TORSDOF 6
ENDMDL
MODEL 6
REMARK VINA RESULT:     -11.0      1.547      4.533
REMARK  Name = 16040289
REMARK  6 active torsions:
REMARK  status: ('A' for Active; 'I' for Inactive)
REMARK    1  A    between atoms: N_2  and  C_20
REMARK    2  A    between atoms: C_3  and  C_6
REMARK    3  A    between atoms: N_11  and  C_13
REMARK    4  A    between atoms: C_13  and  C_15
REMARK    5  A    between atoms: C_23  and  O_26
REMARK    6  A    between atoms: O_26  and  C_27
REMARK                            x       y       z     vdW  Elec       q    Type
REMARK                         _______ _______ _______ _____ _____    ______ ____
ROOT
ATOM      1  O   UNL     1      33.971 -23.137 -17.097  0.00  0.00    -0.270 OA
ATOM      2  N   UNL     1      36.082 -22.231 -17.596  0.00  0.00    -0.280 N 
ATOM      3  C   UNL     1      35.158 -22.963 -16.840  0.00  0.00    +0.252 C 
ATOM      4  H   UNL     1      36.999 -22.196 -17.238  0.00  0.00    +0.155 HD
ENDROOT
BRANCH   3   6
ATOM      5  N   UNL     1      35.312 -24.563 -13.449  0.00  0.00    -0.229 NA
ATOM      6  C   UNL     1      35.688 -23.561 -15.587  0.00  0.00    +0.085 C 
ATOM      7  C   UNL     1      34.857 -24.017 -14.598  0.00  0.00    +0.133 C 
ATOM      8  C   UNL     1      37.053 -23.649 -15.435  0.00  0.00    +0.009 C 
ATOM      9  C   UNL     1      37.560 -24.205 -14.265  0.00  0.00    +0.021 C 
ATOM     10  C   UNL     1      36.655 -24.644 -13.311  0.00  0.00    +0.100 C 
ATOM     11  N   UNL     1      33.453 -23.919 -14.773  0.00  0.00    -0.314 N 
ATOM     12  H   UNL     1      33.107 -23.524 -15.606  0.00  0.00    +0.149 HD
BRANCH  11  13
ATOM     13  C   UNL     1      32.523 -24.371 -13.790  0.00  0.00    +0.115 C 
BRANCH  13  15
ATOM     14  N   UNL     1      28.531 -24.274 -15.348  0.00  0.00    -0.242 NA
ATOM     15  C   UNL     1      31.122 -24.336 -14.337  0.00  0.00    +0.000 C 
ATOM     16  C   UNL     1      30.698 -23.240 -15.068  0.00  0.00    +0.018 C 
ATOM     17  C   UNL     1      30.270 -25.402 -14.103  0.00  0.00    +0.018 C 
ATOM     18  C   UNL     1      29.400 -23.257 -15.549  0.00  0.00    +0.099 C 
ATOM     19  C   UNL     1      28.990 -25.322 -14.629  0.00  0.00    +0.099 C 
ENDBRANCH  13  15
ENDBRANCH  11  13
ENDBRANCH   3   6
BRANCH   2  20
ATOM     20  C   UNL     1      35.865 -21.546 -18.791  0.00  0.00    +0.051 C 
ATOM     21  C   UNL     1      34.589 -21.509 -19.352  0.00  0.00    +0.018 C 
ATOM     22  C   UNL     1      36.926 -20.899 -19.426  0.00  0.00    +0.018 C 
ATOM     23  C   UNL     1      35.433 -20.176 -21.183  0.00  0.00    +0.145 C 
ATOM     24  C   UNL     1      34.373 -20.823 -20.548  0.00  0.00    +0.039 C 
ATOM     25  C   UNL     1      36.709 -20.214 -20.622  0.00  0.00    +0.039 C 
BRANCH  23  26
ATOM     26  O   UNL     1      35.222 -19.509 -22.350  0.00  0.00    -0.453 OA
BRANCH  26  27
ATOM     27  C   UNL     1      35.036 -18.139 -22.285  0.00  0.00    +0.145 C 
ATOM     28  C   UNL     1      34.797 -17.550 -21.055  0.00  0.00    +0.037 C 
ATOM     29  C   UNL     1      35.094 -17.394 -23.449  0.00  0.00    +0.037 C 
ATOM     30  C   UNL     1      34.609 -16.169 -20.990  0.00  0.00    +0.003 C 
ATOM     31  C   UNL     1      34.905 -16.013 -23.383  0.00  0.00    +0.003 C 
ATOM     32  C   UNL     1      34.663 -15.402 -22.153  0.00  0.00    +0.000 C 
ENDBRANCH  26  27
ENDBRANCH  23  26
ENDBRANCH   2  20
TORSDOF 6
ENDMDL
MODEL 7
REMARK VINA RESULT:     -10.8      3.557      8.107
REMARK  Name = 16040289
REMARK  6 active torsions:
REMARK  status: ('A' for Active; 'I' for Inactive)
REMARK    1  A    between atoms: N_2  and  C_20
REMARK    2  A    between atoms: C_3  and  C_6
REMARK    3  A    between atoms: N_11  and  C_13
REMARK    4  A    between atoms: C_13  and  C_15
REMARK    5  A    between atoms: C_23  and  O_26
REMARK    6  A    between atoms: O_26  and  C_27
REMARK                            x       y       z     vdW  Elec       q    Type
REMARK                         _______ _______ _______ _____ _____    ______ ____
ROOT
ATOM      1  O   UNL     1      35.504 -24.246 -11.980  0.00  0.00    -0.270 OA
ATOM      2  N   UNL     1      34.744 -24.759 -14.145  0.00  0.00    -0.280 N 
ATOM      3  C   UNL     1      35.704 -24.597 -13.138  0.00  0.00    +0.252 C 
ATOM      4  H   UNL     1      35.084 -25.049 -15.022  0.00  0.00    +0.155 HD
ENDROOT
BRANCH   3   6
ATOM      5  N   UNL     1      38.969 -24.399 -14.979  0.00  0.00    -0.229 NA
ATOM      6  C   UNL     1      37.109 -24.859 -13.548  0.00  0.00    +0.085 C 
ATOM      7  C   UNL     1      37.695 -24.181 -14.584  0.00  0.00    +0.133 C 
ATOM      8  C   UNL     1      37.822 -25.811 -12.857  0.00  0.00    +0.009 C 
ATOM      9  C   UNL     1      39.137 -26.064 -13.233  0.00  0.00    +0.021 C 
ATOM     10  C   UNL     1      39.659 -25.337 -14.292  0.00  0.00    +0.100 C 
ATOM     11  N   UNL     1      36.945 -23.202 -15.284  0.00  0.00    -0.314 N 
ATOM     12  H   UNL     1      36.016 -23.032 -15.007  0.00  0.00    +0.149 HD
BRANCH  11  13
ATOM     13  C   UNL     1      37.484 -22.455 -16.373  0.00  0.00    +0.115 C 
BRANCH  13  15
ATOM     14  N   UNL     1      34.541 -21.946 -19.447  0.00  0.00    -0.242 NA
ATOM     15  C   UNL     1      36.451 -22.277 -17.452  0.00  0.00    +0.000 C 
ATOM     16  C   UNL     1      35.174 -22.779 -17.268  0.00  0.00    +0.018 C 
ATOM     17  C   UNL     1      36.788 -21.612 -18.619  0.00  0.00    +0.018 C 
ATOM     18  C   UNL     1      34.260 -22.588 -18.291  0.00  0.00    +0.099 C 
ATOM     19  C   UNL     1      35.800 -21.473 -19.581  0.00  0.00    +0.099 C 
ENDBRANCH  13  15
ENDBRANCH  11  13
ENDBRANCH   3   6
BRANCH   2  20
ATOM     20  C   UNL     1      33.366 -24.562 -14.058  0.00  0.00    +0.051 C 
ATOM     21  C   UNL     1      32.786 -23.429 -14.629  0.00  0.00    +0.018 C 
ATOM     22  C   UNL     1      32.568 -25.497 -13.398  0.00  0.00    +0.018 C 
ATOM     23  C   UNL     1      30.610 -24.167 -13.883  0.00  0.00    +0.145 C 
ATOM     24  C   UNL     1      31.407 -23.232 -14.542  0.00  0.00    +0.039 C 
ATOM     25  C   UNL     1      31.189 -25.299 -13.311  0.00  0.00    +0.039 C 
BRANCH  23  26
ATOM     26  O   UNL     1      29.266 -23.974 -13.796  0.00  0.00    -0.453 OA
BRANCH  26  27
ATOM     27  C   UNL     1      28.578 -23.696 -14.965  0.00  0.00    +0.145 C 
ATOM     28  C   UNL     1      28.717 -24.548 -16.047  0.00  0.00    +0.037 C 
ATOM     29  C   UNL     1      27.770 -22.575 -15.022  0.00  0.00    +0.037 C 
ATOM     30  C   UNL     1      28.025 -24.268 -17.225  0.00  0.00    +0.003 C 
ATOM     31  C   UNL     1      27.078 -22.295 -16.201  0.00  0.00    +0.003 C 
ATOM     32  C   UNL     1      27.206 -23.142 -17.301  0.00  0.00    +0.000 C 
ENDBRANCH  26  27
ENDBRANCH  23  26
ENDBRANCH   2  20
TORSDOF 6
ENDMDL
MODEL 8
REMARK VINA RESULT:     -10.5      1.649      2.314
REMARK  Name = 16040289
REMARK  6 active torsions:
REMARK  status: ('A' for Active; 'I' for Inactive)
REMARK    1  A    between atoms: N_2  and  C_20
REMARK    2  A    between atoms: C_3  and  C_6
REMARK    3  A    between atoms: N_11  and  C_13
REMARK    4  A    between atoms: C_13  and  C_15
REMARK    5  A    between atoms: C_23  and  O_26
REMARK    6  A    between atoms: O_26  and  C_27
REMARK                            x       y       z     vdW  Elec       q    Type
REMARK                         _______ _______ _______ _____ _____    ______ ____
ROOT
ATOM      1  O   UNL     1      36.111 -22.836 -18.550  0.00  0.00    -0.270 OA
ATOM      2  N   UNL     1      34.317 -21.360 -18.906  0.00  0.00    -0.280 N 
ATOM      3  C   UNL     1      35.011 -22.384 -18.250  0.00  0.00    +0.252 C 
ATOM      4  H   UNL     1      33.440 -21.122 -18.527  0.00  0.00    +0.155 HD
ENDROOT
BRANCH   3   6
ATOM      5  N   UNL     1      34.346 -23.791 -14.835  0.00  0.00    -0.229 NA
ATOM      6  C   UNL     1      34.310 -22.987 -17.087  0.00  0.00    +0.085 C 
ATOM      7  C   UNL     1      34.959 -23.242 -15.908  0.00  0.00    +0.133 C 
ATOM      8  C   UNL     1      32.974 -23.290 -17.217  0.00  0.00    +0.009 C 
ATOM      9  C   UNL     1      32.308 -23.855 -16.135  0.00  0.00    +0.021 C 
ATOM     10  C   UNL     1      33.034 -24.084 -14.976  0.00  0.00    +0.100 C 
ATOM     11  N   UNL     1      36.335 -22.923 -15.790  0.00  0.00    -0.314 N 
ATOM     12  H   UNL     1      36.794 -22.522 -16.563  0.00  0.00    +0.149 HD
BRANCH  11  13
ATOM     13  C   UNL     1      37.080 -23.159 -14.597  0.00  0.00    +0.115 C 
BRANCH  13  15
ATOM     14  N   UNL     1      38.715 -27.121 -14.608  0.00  0.00    -0.242 NA
ATOM     15  C   UNL     1      37.655 -24.549 -14.601  0.00  0.00    +0.000 C 
ATOM     16  C   UNL     1      39.028 -24.724 -14.606  0.00  0.00    +0.018 C 
ATOM     17  C   UNL     1      36.804 -25.641 -14.600  0.00  0.00    +0.018 C 
ATOM     18  C   UNL     1      39.506 -26.023 -14.609  0.00  0.00    +0.099 C 
ATOM     19  C   UNL     1      37.382 -26.901 -14.603  0.00  0.00    +0.099 C 
ENDBRANCH  13  15
ENDBRANCH  11  13
ENDBRANCH   3   6
BRANCH   2  20
ATOM     20  C   UNL     1      34.713 -20.636 -20.031  0.00  0.00    +0.051 C 
ATOM     21  C   UNL     1      36.019 -20.155 -20.126  0.00  0.00    +0.018 C 
ATOM     22  C   UNL     1      33.802 -20.393 -21.059  0.00  0.00    +0.018 C 
ATOM     23  C   UNL     1      35.504 -19.187 -22.280  0.00  0.00    +0.145 C 
ATOM     24  C   UNL     1      36.414 -19.431 -21.252  0.00  0.00    +0.039 C 
ATOM     25  C   UNL     1      34.199 -19.669 -22.185  0.00  0.00    +0.039 C 
BRANCH  23  26
ATOM     26  O   UNL     1      35.889 -18.480 -23.376  0.00  0.00    -0.453 OA
BRANCH  26  27
ATOM     27  C   UNL     1      35.198 -17.316 -23.668  0.00  0.00    +0.145 C 
ATOM     28  C   UNL     1      34.545 -17.207 -24.883  0.00  0.00    +0.037 C 
ATOM     29  C   UNL     1      35.177 -16.293 -22.737  0.00  0.00    +0.037 C 
ATOM     30  C   UNL     1      33.849 -16.034 -25.177  0.00  0.00    +0.003 C 
ATOM     31  C   UNL     1      34.481 -15.120 -23.031  0.00  0.00    +0.003 C 
ATOM     32  C   UNL     1      33.817 -14.992 -24.251  0.00  0.00    +0.000 C 
ENDBRANCH  26  27
ENDBRANCH  23  26
ENDBRANCH   2  20
TORSDOF 6
ENDMDL
MODEL 9
REMARK VINA RESULT:     -10.4      6.394     12.399
REMARK  Name = 16040289
REMARK  6 active torsions:
REMARK  status: ('A' for Active; 'I' for Inactive)
REMARK    1  A    between atoms: N_2  and  C_20
REMARK    2  A    between atoms: C_3  and  C_6
REMARK    3  A    between atoms: N_11  and  C_13
REMARK    4  A    between atoms: C_13  and  C_15
REMARK    5  A    between atoms: C_23  and  O_26
REMARK    6  A    between atoms: O_26  and  C_27
REMARK                            x       y       z     vdW  Elec       q    Type
REMARK                         _______ _______ _______ _____ _____    ______ ____
ROOT
ATOM      1  O   UNL     1      32.979 -14.230 -24.400  0.00  0.00    -0.270 OA
ATOM      2  N   UNL     1      34.597 -14.308 -22.696  0.00  0.00    -0.280 N 
ATOM      3  C   UNL     1      33.722 -13.682 -23.593  0.00  0.00    +0.252 C 
ATOM      4  H   UNL     1      35.122 -13.709 -22.117  0.00  0.00    +0.155 HD
ENDROOT
BRANCH   3   6
ATOM      5  N   UNL     1      32.737 -10.132 -22.877  0.00  0.00    -0.229 NA
ATOM      6  C   UNL     1      33.732 -12.196 -23.561  0.00  0.00    +0.085 C 
ATOM      7  C   UNL     1      32.753 -11.483 -22.920  0.00  0.00    +0.133 C 
ATOM      8  C   UNL     1      34.759 -11.538 -24.197  0.00  0.00    +0.009 C 
ATOM      9  C   UNL     1      34.777 -10.147 -24.174  0.00  0.00    +0.021 C 
ATOM     10  C   UNL     1      33.751  -9.497 -23.506  0.00  0.00    +0.100 C 
ATOM     11  N   UNL     1      31.703 -12.177 -22.269  0.00  0.00    -0.314 N 
ATOM     12  H   UNL     1      31.702 -13.161 -22.291  0.00  0.00    +0.149 HD
BRANCH  11  13
ATOM     13  C   UNL     1      30.648 -11.507 -21.581  0.00  0.00    +0.115 C 
BRANCH  13  15
ATOM     14  N   UNL     1      32.009 -10.070 -17.780  0.00  0.00    -0.242 NA
ATOM     15  C   UNL     1      31.126 -11.002 -20.247  0.00  0.00    +0.000 C 
ATOM     16  C   UNL     1      31.636  -9.720 -20.142  0.00  0.00    +0.018 C 
ATOM     17  C   UNL     1      31.052 -11.826 -19.137  0.00  0.00    +0.018 C 
ATOM     18  C   UNL     1      32.062  -9.303 -18.892  0.00  0.00    +0.099 C 
ATOM     19  C   UNL     1      31.504 -11.315 -17.931  0.00  0.00    +0.099 C 
ENDBRANCH  13  15
ENDBRANCH  11  13
ENDBRANCH   3   6
BRANCH   2  20
ATOM     20  C   UNL     1      34.817 -15.674 -22.523  0.00  0.00    +0.051 C 
ATOM     21  C   UNL     1      34.857 -16.217 -21.239  0.00  0.00    +0.018 C 
ATOM     22  C   UNL     1      34.998 -16.498 -23.635  0.00  0.00    +0.018 C 
ATOM     23  C   UNL     1      35.258 -18.408 -22.177  0.00  0.00    +0.145 C 
ATOM     24  C   UNL     1      35.077 -17.585 -21.066  0.00  0.00    +0.039 C 
ATOM     25  C   UNL     1      35.218 -17.865 -23.461  0.00  0.00    +0.039 C 
BRANCH  23  26
ATOM     26  O   UNL     1      35.475 -19.741 -22.009  0.00  0.00    -0.453 OA
BRANCH  26  27
ATOM     27  C   UNL     1      34.786 -20.382 -20.994  0.00  0.00    +0.145 C 
ATOM     28  C   UNL     1      33.416 -20.211 -20.896  0.00  0.00    +0.037 C 
ATOM     29  C   UNL     1      35.485 -21.176 -20.102  0.00  0.00    +0.037 C 
ATOM     30  C   UNL     1      32.723 -20.856 -19.872  0.00  0.00    +0.003 C 
ATOM     31  C   UNL     1      34.791 -21.822 -19.078  0.00  0.00    +0.003 C 
ATOM     32  C   UNL     1      33.410 -21.661 -18.964  0.00  0.00    +0.000 C 
ENDBRANCH  26  27
ENDBRANCH  23  26
ENDBRANCH   2  20
TORSDOF 6
ENDMDL
