MODEL 1
REMARK VINA RESULT:     -11.3      0.000      0.000
REMARK  Name = 5288250
REMARK  9 active torsions:
REMARK  status: ('A' for Active; 'I' for Inactive)
REMARK    1  A    between atoms: C_1  and  N_3
REMARK    2  A    between atoms: C_1  and  C_20
REMARK    3  A    between atoms: C_1  and  C_23
REMARK    4  A    between atoms: C_4  and  C_6
REMARK    5  A    between atoms: C_6  and  C_10
REMARK    6  A    between atoms: C_20  and  O_21
REMARK    7  A    between atoms: C_23  and  C_24
REMARK    8  A    between atoms: C_29  and  C_30
REMARK    9  A    between atoms: C_31  and  C_32
REMARK                            x       y       z     vdW  Elec       q    Type
REMARK                         _______ _______ _______ _____ _____    ______ ____
ROOT
ATOM      1  C   UNL     1      35.328 -22.398 -17.885  0.00  0.00    +0.176 C 
ENDROOT
BRANCH   1   3
ATOM      2  O   UNL     1      37.573 -20.896 -16.844  0.00  0.00    -0.275 OA
ATOM      3  N   UNL     1      36.343 -22.865 -16.969  0.00  0.00    -0.297 N 
ATOM      4  C   UNL     1      37.387 -22.067 -16.523  0.00  0.00    +0.223 C 
ATOM      5  H   UNL     1      36.291 -23.793 -16.644  0.00  0.00    +0.150 HD
BRANCH   4   6
ATOM      6  C   UNL     1      38.288 -22.825 -15.571  0.00  0.00    +0.087 C 
BRANCH   6  10
ATOM      7  N   UNL     1      36.318 -24.685 -12.900  0.00  0.00    -0.282 N 
ATOM      8  N   UNL     1      34.203 -23.933 -13.308  0.00  0.00    -0.331 N 
ATOM      9  N   UNL     1      34.604 -25.276 -11.424  0.00  0.00    -0.273 NA
ATOM     10  C   UNL     1      37.567 -23.988 -14.893  0.00  0.00    +0.029 C 
ATOM     11  C   UNL     1      38.525 -25.168 -14.672  0.00  0.00    +0.004 C 
ATOM     12  C   UNL     1      36.944 -23.543 -13.562  0.00  0.00    +0.094 C 
ATOM     13  C   UNL     1      37.825 -26.307 -13.933  0.00  0.00    +0.022 C 
ATOM     14  C   UNL     1      37.197 -25.820 -12.631  0.00  0.00    +0.093 C 
ATOM     15  C   UNL     1      35.028 -24.662 -12.492  0.00  0.00    +0.174 C 
ATOM     16  H   UNL     1      34.568 -23.486 -14.105  0.00  0.00    +0.145 HD
ATOM     17  H   UNL     1      33.245 -23.856 -13.096  0.00  0.00    +0.145 HD
ATOM     18  H   UNL     1      35.236 -25.788 -10.868  0.00  0.00    +0.189 HD
ENDBRANCH   6  10
ENDBRANCH   4   6
ENDBRANCH   1   3
BRANCH   1  20
ATOM     19  O   UNL     1      33.443 -23.612 -18.785  0.00  0.00    -0.248 OA
ATOM     20  C   UNL     1      34.045 -23.212 -17.793  0.00  0.00    +0.335 C 
BRANCH  20  21
ATOM     21  O   UNL     1      33.655 -23.415 -16.503  0.00  0.00    -0.443 OA
ATOM     22  C   UNL     1      32.245 -23.536 -16.292  0.00  0.00    +0.256 C 
ENDBRANCH  20  21
ENDBRANCH   1  20
BRANCH   1  23
ATOM     23  C   UNL     1      35.864 -22.328 -19.323  0.00  0.00    +0.057 C 
BRANCH  23  24
ATOM     24  C   UNL     1      35.571 -21.030 -20.043  0.00  0.00    -0.020 C 
ATOM     25  C   UNL     1      34.253 -20.665 -20.316  0.00  0.00    -0.004 C 
ATOM     26  C   UNL     1      36.620 -20.198 -20.434  0.00  0.00    -0.004 C 
ATOM     27  C   UNL     1      33.984 -19.469 -20.980  0.00  0.00    +0.008 C 
ATOM     28  C   UNL     1      36.351 -19.002 -21.098  0.00  0.00    +0.008 C 
ATOM     29  C   UNL     1      35.033 -18.637 -21.371  0.00  0.00    +0.042 C 
BRANCH  29  30
ATOM     30  C   UNL     1      34.757 -17.411 -22.052  0.00  0.00    -0.060 C 
ATOM     31  C   UNL     1      34.523 -16.382 -22.624  0.00  0.00    -0.060 C 
BRANCH  31  32
ATOM     32  C   UNL     1      34.246 -15.154 -23.306  0.00  0.00    +0.042 C 
ATOM     33  C   UNL     1      34.426 -13.937 -22.650  0.00  0.00    +0.008 C 
ATOM     34  C   UNL     1      33.794 -15.176 -24.625  0.00  0.00    +0.008 C 
ATOM     35  C   UNL     1      34.156 -12.740 -23.313  0.00  0.00    +0.001 C 
ATOM     36  C   UNL     1      33.524 -13.978 -25.289  0.00  0.00    +0.001 C 
ATOM     37  C   UNL     1      33.705 -12.761 -24.632  0.00  0.00    +0.000 C 
ENDBRANCH  31  32
ENDBRANCH  29  30
ENDBRANCH  23  24
ENDBRANCH   1  23
TORSDOF 9
ENDMDL
MODEL 2
REMARK VINA RESULT:     -10.9      2.849      5.493
REMARK  Name = 5288250
REMARK  9 active torsions:
REMARK  status: ('A' for Active; 'I' for Inactive)
REMARK    1  A    between atoms: C_1  and  N_3
REMARK    2  A    between atoms: C_1  and  C_20
REMARK    3  A    between atoms: C_1  and  C_23
REMARK    4  A    between atoms: C_4  and  C_6
REMARK    5  A    between atoms: C_6  and  C_10
REMARK    6  A    between atoms: C_20  and  O_21
REMARK    7  A    between atoms: C_23  and  C_24
REMARK    8  A    between atoms: C_29  and  C_30
REMARK    9  A    between atoms: C_31  and  C_32
REMARK                            x       y       z     vdW  Elec       q    Type
REMARK                         _______ _______ _______ _____ _____    ______ ____
ROOT
ATOM      1  C   UNL     1      35.712 -25.272 -15.180  0.00  0.00    +0.176 C 
ENDROOT
BRANCH   1   3
ATOM      2  O   UNL     1      35.342 -23.791 -12.721  0.00  0.00    -0.275 OA
ATOM      3  N   UNL     1      34.499 -25.153 -14.405  0.00  0.00    -0.297 N 
ATOM      4  C   UNL     1      34.417 -24.416 -13.233  0.00  0.00    +0.223 C 
ATOM      5  H   UNL     1      33.691 -25.616 -14.726  0.00  0.00    +0.150 HD
BRANCH   4   6
ATOM      6  C   UNL     1      33.022 -24.472 -12.647  0.00  0.00    +0.087 C 
BRANCH   6  10
ATOM      7  N   UNL     1      30.212 -23.684 -15.088  0.00  0.00    -0.282 N 
ATOM      8  N   UNL     1      31.378 -22.770 -16.822  0.00  0.00    -0.331 N 
ATOM      9  N   UNL     1      29.031 -22.745 -16.873  0.00  0.00    -0.273 NA
ATOM     10  C   UNL     1      31.956 -24.724 -13.711  0.00  0.00    +0.029 C 
ATOM     11  C   UNL     1      30.918 -25.741 -13.213  0.00  0.00    +0.004 C 
ATOM     12  C   UNL     1      31.272 -23.411 -14.119  0.00  0.00    +0.094 C 
ATOM     13  C   UNL     1      29.813 -25.943 -14.248  0.00  0.00    +0.022 C 
ATOM     14  C   UNL     1      29.176 -24.616 -14.647  0.00  0.00    +0.093 C 
ATOM     15  C   UNL     1      30.151 -23.054 -16.284  0.00  0.00    +0.174 C 
ATOM     16  H   UNL     1      32.198 -23.023 -16.341  0.00  0.00    +0.145 HD
ATOM     17  H   UNL     1      31.440 -22.313 -17.692  0.00  0.00    +0.145 HD
ATOM     18  H   UNL     1      28.172 -22.970 -16.446  0.00  0.00    +0.189 HD
ENDBRANCH   6  10
ENDBRANCH   4   6
ENDBRANCH   1   3
BRANCH   1  20
ATOM     19  O   UNL     1      36.412 -27.583 -15.069  0.00  0.00    -0.248 OA
ATOM     20  C   UNL     1      36.591 -26.423 -14.709  0.00  0.00    +0.335 C 
BRANCH  20  21
ATOM     21  O   UNL     1      37.562 -26.010 -13.847  0.00  0.00    -0.443 OA
ATOM     22  C   UNL     1      37.497 -26.561 -12.528  0.00  0.00    +0.256 C 
ENDBRANCH  20  21
ENDBRANCH   1  20
BRANCH   1  23
ATOM     23  C   UNL     1      36.480 -23.943 -15.224  0.00  0.00    +0.057 C 
BRANCH  23  24
ATOM     24  C   UNL     1      36.231 -23.110 -16.461  0.00  0.00    -0.020 C 
ATOM     25  C   UNL     1      34.998 -23.174 -17.109  0.00  0.00    -0.004 C 
ATOM     26  C   UNL     1      37.235 -22.276 -16.954  0.00  0.00    -0.004 C 
ATOM     27  C   UNL     1      34.768 -22.406 -18.251  0.00  0.00    +0.008 C 
ATOM     28  C   UNL     1      37.006 -21.508 -18.095  0.00  0.00    +0.008 C 
ATOM     29  C   UNL     1      35.773 -21.572 -18.743  0.00  0.00    +0.042 C 
BRANCH  29  30
ATOM     30  C   UNL     1      35.538 -20.786 -19.913  0.00  0.00    -0.060 C 
ATOM     31  C   UNL     1      35.340 -20.124 -20.895  0.00  0.00    -0.060 C 
BRANCH  31  32
ATOM     32  C   UNL     1      35.106 -19.335 -22.067  0.00  0.00    +0.042 C 
ATOM     33  C   UNL     1      35.372 -17.967 -22.050  0.00  0.00    +0.008 C 
ATOM     34  C   UNL     1      34.610 -19.937 -23.224  0.00  0.00    +0.008 C 
ATOM     35  C   UNL     1      35.144 -17.198 -23.191  0.00  0.00    +0.001 C 
ATOM     36  C   UNL     1      34.382 -19.167 -24.365  0.00  0.00    +0.001 C 
ATOM     37  C   UNL     1      34.649 -17.798 -24.348  0.00  0.00    +0.000 C 
ENDBRANCH  31  32
ENDBRANCH  29  30
ENDBRANCH  23  24
ENDBRANCH   1  23
TORSDOF 9
ENDMDL
MODEL 3
REMARK VINA RESULT:     -10.0      4.965     11.312
REMARK  Name = 5288250
REMARK  9 active torsions:
REMARK  status: ('A' for Active; 'I' for Inactive)
REMARK    1  A    between atoms: C_1  and  N_3
REMARK    2  A    between atoms: C_1  and  C_20
REMARK    3  A    between atoms: C_1  and  C_23
REMARK    4  A    between atoms: C_4  and  C_6
REMARK    5  A    between atoms: C_6  and  C_10
REMARK    6  A    between atoms: C_20  and  O_21
REMARK    7  A    between atoms: C_23  and  C_24
REMARK    8  A    between atoms: C_29  and  C_30
REMARK    9  A    between atoms: C_31  and  C_32
REMARK                            x       y       z     vdW  Elec       q    Type
REMARK                         _______ _______ _______ _____ _____    ______ ____
ROOT
ATOM      1  C   UNL     1      35.830 -18.666 -21.269  0.00  0.00    +0.176 C 
ENDROOT
BRANCH   1   3
ATOM      2  O   UNL     1      34.578 -16.137 -20.626  0.00  0.00    -0.275 OA
ATOM      3  N   UNL     1      35.447 -17.621 -22.190  0.00  0.00    -0.297 N 
ATOM      4  C   UNL     1      34.849 -16.436 -21.785  0.00  0.00    +0.223 C 
ATOM      5  H   UNL     1      35.620 -17.755 -23.150  0.00  0.00    +0.150 HD
BRANCH   4   6
ATOM      6  C   UNL     1      34.567 -15.533 -22.968  0.00  0.00    +0.087 C 
BRANCH   6  10
ATOM      7  N   UNL     1      32.176 -12.833 -21.758  0.00  0.00    -0.282 N 
ATOM      8  N   UNL     1      32.098 -13.282 -19.523  0.00  0.00    -0.331 N 
ATOM      9  N   UNL     1      30.664 -11.654 -20.421  0.00  0.00    -0.273 NA
ATOM     10  C   UNL     1      34.095 -14.146 -22.539  0.00  0.00    +0.029 C 
ATOM     11  C   UNL     1      34.297 -13.127 -23.671  0.00  0.00    +0.004 C 
ATOM     12  C   UNL     1      32.624 -14.181 -22.100  0.00  0.00    +0.094 C 
ATOM     13  C   UNL     1      33.763 -11.753 -23.269  0.00  0.00    +0.022 C 
ATOM     14  C   UNL     1      32.309 -11.834 -22.816  0.00  0.00    +0.093 C 
ATOM     15  C   UNL     1      31.601 -12.547 -20.566  0.00  0.00    +0.174 C 
ATOM     16  H   UNL     1      32.808 -13.945 -19.681  0.00  0.00    +0.145 HD
ATOM     17  H   UNL     1      31.745 -13.146 -18.613  0.00  0.00    +0.145 HD
ATOM     18  H   UNL     1      30.338 -11.150 -21.202  0.00  0.00    +0.189 HD
ENDBRANCH   6  10
ENDBRANCH   4   6
ENDBRANCH   1   3
BRANCH   1  20
ATOM     19  O   UNL     1      38.100 -19.019 -22.017  0.00  0.00    -0.248 OA
ATOM     20  C   UNL     1      37.339 -18.758 -21.090  0.00  0.00    +0.335 C 
BRANCH  20  21
ATOM     21  O   UNL     1      37.719 -18.537 -19.800  0.00  0.00    -0.443 OA
ATOM     22  C   UNL     1      37.698 -19.681 -18.942  0.00  0.00    +0.256 C 
ENDBRANCH  20  21
ENDBRANCH   1  20
BRANCH   1  23
ATOM     23  C   UNL     1      35.214 -20.016 -21.668  0.00  0.00    +0.057 C 
BRANCH  23  24
ATOM     24  C   UNL     1      34.557 -20.771 -20.534  0.00  0.00    -0.020 C 
ATOM     25  C   UNL     1      33.204 -20.579 -20.260  0.00  0.00    -0.004 C 
ATOM     26  C   UNL     1      35.306 -21.660 -19.763  0.00  0.00    -0.004 C 
ATOM     27  C   UNL     1      32.598 -21.274 -19.214  0.00  0.00    +0.008 C 
ATOM     28  C   UNL     1      34.701 -22.357 -18.718  0.00  0.00    +0.008 C 
ATOM     29  C   UNL     1      33.347 -22.164 -18.443  0.00  0.00    +0.042 C 
BRANCH  29  30
ATOM     30  C   UNL     1      32.726 -22.877 -17.370  0.00  0.00    -0.060 C 
ATOM     31  C   UNL     1      32.206 -23.474 -16.469  0.00  0.00    -0.060 C 
BRANCH  31  32
ATOM     32  C   UNL     1      31.584 -24.187 -15.394  0.00  0.00    +0.042 C 
ATOM     33  C   UNL     1      30.230 -24.512 -15.465  0.00  0.00    +0.008 C 
ATOM     34  C   UNL     1      32.334 -24.555 -14.276  0.00  0.00    +0.008 C 
ATOM     35  C   UNL     1      29.624 -25.206 -14.418  0.00  0.00    +0.001 C 
ATOM     36  C   UNL     1      31.727 -25.250 -13.230  0.00  0.00    +0.001 C 
ATOM     37  C   UNL     1      30.372 -25.575 -13.301  0.00  0.00    +0.000 C 
ENDBRANCH  31  32
ENDBRANCH  29  30
ENDBRANCH  23  24
ENDBRANCH   1  23
TORSDOF 9
ENDMDL
MODEL 4
REMARK VINA RESULT:      -9.8      6.353     12.056
REMARK  Name = 5288250
REMARK  9 active torsions:
REMARK  status: ('A' for Active; 'I' for Inactive)
REMARK    1  A    between atoms: C_1  and  N_3
REMARK    2  A    between atoms: C_1  and  C_20
REMARK    3  A    between atoms: C_1  and  C_23
REMARK    4  A    between atoms: C_4  and  C_6
REMARK    5  A    between atoms: C_6  and  C_10
REMARK    6  A    between atoms: C_20  and  O_21
REMARK    7  A    between atoms: C_23  and  C_24
REMARK    8  A    between atoms: C_29  and  C_30
REMARK    9  A    between atoms: C_31  and  C_32
REMARK                            x       y       z     vdW  Elec       q    Type
REMARK                         _______ _______ _______ _____ _____    ______ ____
ROOT
ATOM      1  C   UNL     1      34.131 -15.270 -24.857  0.00  0.00    +0.176 C 
ENDROOT
BRANCH   1   3
ATOM      2  O   UNL     1      33.781 -12.706 -23.563  0.00  0.00    -0.275 OA
ATOM      3  N   UNL     1      33.640 -15.025 -23.521  0.00  0.00    -0.297 N 
ATOM      4  C   UNL     1      33.505 -13.753 -22.984  0.00  0.00    +0.223 C 
ATOM      5  H   UNL     1      33.387 -15.798 -22.966  0.00  0.00    +0.150 HD
BRANCH   4   6
ATOM      6  C   UNL     1      32.964 -13.809 -21.571  0.00  0.00    +0.087 C 
BRANCH   6  10
ATOM      7  N   UNL     1      32.044 -10.161 -21.007  0.00  0.00    -0.282 N 
ATOM      8  N   UNL     1      31.808  -9.428 -23.154  0.00  0.00    -0.331 N 
ATOM      9  N   UNL     1      31.700  -7.881 -21.391  0.00  0.00    -0.273 NA
ATOM     10  C   UNL     1      32.089 -12.603 -21.237  0.00  0.00    +0.029 C 
ATOM     11  C   UNL     1      31.518 -12.720 -19.816  0.00  0.00    +0.004 C 
ATOM     12  C   UNL     1      32.879 -11.296 -21.395  0.00  0.00    +0.094 C 
ATOM     13  C   UNL     1      30.698 -11.483 -19.454  0.00  0.00    +0.022 C 
ATOM     14  C   UNL     1      31.508 -10.205 -19.648  0.00  0.00    +0.093 C 
ATOM     15  C   UNL     1      31.845  -9.101 -21.824  0.00  0.00    +0.174 C 
ATOM     16  H   UNL     1      31.922 -10.364 -23.434  0.00  0.00    +0.145 HD
ATOM     17  H   UNL     1      31.667  -8.725 -23.830  0.00  0.00    +0.145 HD
ATOM     18  H   UNL     1      31.734  -7.695 -20.424  0.00  0.00    +0.189 HD
ENDBRANCH   6  10
ENDBRANCH   4   6
ENDBRANCH   1   3
BRANCH   1  20
ATOM     19  O   UNL     1      32.675 -16.663 -26.191  0.00  0.00    -0.248 OA
ATOM     20  C   UNL     1      33.008 -15.531 -25.851  0.00  0.00    +0.335 C 
BRANCH  20  21
ATOM     21  O   UNL     1      32.450 -14.377 -26.312  0.00  0.00    -0.443 OA
ATOM     22  C   UNL     1      33.367 -13.404 -26.821  0.00  0.00    +0.256 C 
ENDBRANCH  20  21
ENDBRANCH   1  20
BRANCH   1  23
ATOM     23  C   UNL     1      35.182 -16.391 -24.869  0.00  0.00    +0.057 C 
BRANCH  23  24
ATOM     24  C   UNL     1      35.048 -17.394 -23.745  0.00  0.00    -0.020 C 
ATOM     25  C   UNL     1      34.654 -18.703 -24.021  0.00  0.00    -0.004 C 
ATOM     26  C   UNL     1      35.320 -17.010 -22.432  0.00  0.00    -0.004 C 
ATOM     27  C   UNL     1      34.530 -19.628 -22.985  0.00  0.00    +0.008 C 
ATOM     28  C   UNL     1      35.197 -17.935 -21.395  0.00  0.00    +0.008 C 
ATOM     29  C   UNL     1      34.802 -19.244 -21.672  0.00  0.00    +0.042 C 
BRANCH  29  30
ATOM     30  C   UNL     1      34.675 -20.191 -20.609  0.00  0.00    -0.060 C 
ATOM     31  C   UNL     1      34.569 -20.987 -19.716  0.00  0.00    -0.060 C 
BRANCH  31  32
ATOM     32  C   UNL     1      34.442 -21.935 -18.652  0.00  0.00    +0.042 C 
ATOM     33  C   UNL     1      35.551 -22.260 -17.872  0.00  0.00    +0.008 C 
ATOM     34  C   UNL     1      33.209 -22.535 -18.396  0.00  0.00    +0.008 C 
ATOM     35  C   UNL     1      35.428 -23.184 -16.834  0.00  0.00    +0.001 C 
ATOM     36  C   UNL     1      33.086 -23.459 -17.359  0.00  0.00    +0.001 C 
ATOM     37  C   UNL     1      34.196 -23.784 -16.578  0.00  0.00    +0.000 C 
ENDBRANCH  31  32
ENDBRANCH  29  30
ENDBRANCH  23  24
ENDBRANCH   1  23
TORSDOF 9
ENDMDL
MODEL 5
REMARK VINA RESULT:      -9.6      4.577     11.844
REMARK  Name = 5288250
REMARK  9 active torsions:
REMARK  status: ('A' for Active; 'I' for Inactive)
REMARK    1  A    between atoms: C_1  and  N_3
REMARK    2  A    between atoms: C_1  and  C_20
REMARK    3  A    between atoms: C_1  and  C_23
REMARK    4  A    between atoms: C_4  and  C_6
REMARK    5  A    between atoms: C_6  and  C_10
REMARK    6  A    between atoms: C_20  and  O_21
REMARK    7  A    between atoms: C_23  and  C_24
REMARK    8  A    between atoms: C_29  and  C_30
REMARK    9  A    between atoms: C_31  and  C_32
REMARK                            x       y       z     vdW  Elec       q    Type
REMARK                         _______ _______ _______ _____ _____    ______ ____
ROOT
ATOM      1  C   UNL     1      35.093 -19.384 -21.216  0.00  0.00    +0.176 C 
ENDROOT
BRANCH   1   3
ATOM      2  O   UNL     1      35.754 -16.680 -22.010  0.00  0.00    -0.275 OA
ATOM      3  N   UNL     1      34.516 -18.159 -20.712  0.00  0.00    -0.297 N 
ATOM      4  C   UNL     1      34.899 -16.902 -21.157  0.00  0.00    +0.223 C 
ATOM      5  H   UNL     1      33.817 -18.219 -20.022  0.00  0.00    +0.150 HD
BRANCH   4   6
ATOM      6  C   UNL     1      34.120 -15.811 -20.452  0.00  0.00    +0.087 C 
BRANCH   6  10
ATOM      7  N   UNL     1      33.615 -13.445 -23.390  0.00  0.00    -0.282 N 
ATOM      8  N   UNL     1      33.639 -14.906 -25.141  0.00  0.00    -0.331 N 
ATOM      9  N   UNL     1      33.586 -12.598 -25.568  0.00  0.00    -0.273 NA
ATOM     10  C   UNL     1      33.378 -14.904 -21.431  0.00  0.00    +0.029 C 
ATOM     11  C   UNL     1      32.688 -13.750 -20.689  0.00  0.00    +0.004 C 
ATOM     12  C   UNL     1      34.332 -14.362 -22.504  0.00  0.00    +0.094 C 
ATOM     13  C   UNL     1      32.000 -12.804 -21.672  0.00  0.00    +0.022 C 
ATOM     14  C   UNL     1      32.974 -12.307 -22.736  0.00  0.00    +0.093 C 
ATOM     15  C   UNL     1      33.612 -13.599 -24.734  0.00  0.00    +0.174 C 
ATOM     16  H   UNL     1      33.659 -15.630 -24.475  0.00  0.00    +0.145 HD
ATOM     17  H   UNL     1      33.639 -15.123 -26.102  0.00  0.00    +0.145 HD
ATOM     18  H   UNL     1      33.567 -11.674 -25.227  0.00  0.00    +0.189 HD
ENDBRANCH   6  10
ENDBRANCH   4   6
ENDBRANCH   1   3
BRANCH   1  20
ATOM     19  O   UNL     1      36.492 -19.258 -23.182  0.00  0.00    -0.248 OA
ATOM     20  C   UNL     1      35.359 -19.327 -22.714  0.00  0.00    +0.335 C 
BRANCH  20  21
ATOM     21  O   UNL     1      34.208 -19.345 -23.443  0.00  0.00    -0.443 OA
ATOM     22  C   UNL     1      34.212 -18.545 -24.629  0.00  0.00    +0.256 C 
ENDBRANCH  20  21
ENDBRANCH   1  20
BRANCH   1  23
ATOM     23  C   UNL     1      34.242 -20.603 -20.829  0.00  0.00    +0.057 C 
BRANCH  23  24
ATOM     24  C   UNL     1      34.722 -21.343 -19.600  0.00  0.00    -0.020 C 
ATOM     25  C   UNL     1      36.064 -21.282 -19.228  0.00  0.00    -0.004 C 
ATOM     26  C   UNL     1      33.820 -22.086 -18.838  0.00  0.00    -0.004 C 
ATOM     27  C   UNL     1      36.506 -21.965 -18.095  0.00  0.00    +0.008 C 
ATOM     28  C   UNL     1      34.261 -22.768 -17.704  0.00  0.00    +0.008 C 
ATOM     29  C   UNL     1      35.604 -22.708 -17.333  0.00  0.00    +0.042 C 
BRANCH  29  30
ATOM     30  C   UNL     1      36.057 -23.408 -16.173  0.00  0.00    -0.060 C 
ATOM     31  C   UNL     1      36.436 -23.996 -15.197  0.00  0.00    -0.060 C 
BRANCH  31  32
ATOM     32  C   UNL     1      36.889 -24.698 -14.034  0.00  0.00    +0.042 C 
ATOM     33  C   UNL     1      36.871 -26.092 -14.011  0.00  0.00    +0.008 C 
ATOM     34  C   UNL     1      37.347 -23.987 -12.925  0.00  0.00    +0.008 C 
ATOM     35  C   UNL     1      37.312 -26.777 -12.878  0.00  0.00    +0.001 C 
ATOM     36  C   UNL     1      37.788 -24.671 -11.792  0.00  0.00    +0.001 C 
ATOM     37  C   UNL     1      37.770 -26.066 -11.769  0.00  0.00    +0.000 C 
ENDBRANCH  31  32
ENDBRANCH  29  30
ENDBRANCH  23  24
ENDBRANCH   1  23
TORSDOF 9
ENDMDL
MODEL 6
REMARK VINA RESULT:      -9.5      4.383      7.936
REMARK  Name = 5288250
REMARK  9 active torsions:
REMARK  status: ('A' for Active; 'I' for Inactive)
REMARK    1  A    between atoms: C_1  and  N_3
REMARK    2  A    between atoms: C_1  and  C_20
REMARK    3  A    between atoms: C_1  and  C_23
REMARK    4  A    between atoms: C_4  and  C_6
REMARK    5  A    between atoms: C_6  and  C_10
REMARK    6  A    between atoms: C_20  and  O_21
REMARK    7  A    between atoms: C_23  and  C_24
REMARK    8  A    between atoms: C_29  and  C_30
REMARK    9  A    between atoms: C_31  and  C_32
REMARK                            x       y       z     vdW  Elec       q    Type
REMARK                         _______ _______ _______ _____ _____    ______ ____
ROOT
ATOM      1  C   UNL     1      34.621 -15.902 -22.262  0.00  0.00    +0.176 C 
ENDROOT
BRANCH   1   3
ATOM      2  O   UNL     1      36.174 -17.702 -20.611  0.00  0.00    -0.275 OA
ATOM      3  N   UNL     1      34.546 -17.345 -22.231  0.00  0.00    -0.297 N 
ATOM      4  C   UNL     1      35.335 -18.127 -21.401  0.00  0.00    +0.223 C 
ATOM      5  H   UNL     1      33.903 -17.793 -22.827  0.00  0.00    +0.150 HD
BRANCH   4   6
ATOM      6  C   UNL     1      35.033 -19.599 -21.585  0.00  0.00    +0.087 C 
BRANCH   6  10
ATOM      7  N   UNL     1      35.602 -22.034 -18.717  0.00  0.00    -0.282 N 
ATOM      8  N   UNL     1      37.248 -20.967 -17.553  0.00  0.00    -0.331 N 
ATOM      9  N   UNL     1      36.604 -23.133 -16.914  0.00  0.00    -0.273 NA
ATOM     10  C   UNL     1      34.781 -20.310 -20.257  0.00  0.00    +0.029 C 
ATOM     11  C   UNL     1      33.411 -21.006 -20.263  0.00  0.00    +0.004 C 
ATOM     12  C   UNL     1      35.898 -21.319 -19.958  0.00  0.00    +0.094 C 
ATOM     13  C   UNL     1      33.185 -21.775 -18.962  0.00  0.00    +0.022 C 
ATOM     14  C   UNL     1      34.327 -22.747 -18.687  0.00  0.00    +0.093 C 
ATOM     15  C   UNL     1      36.486 -22.096 -17.695  0.00  0.00    +0.174 C 
ATOM     16  H   UNL     1      37.123 -20.208 -18.167  0.00  0.00    +0.145 HD
ATOM     17  H   UNL     1      37.921 -20.914 -16.836  0.00  0.00    +0.145 HD
ATOM     18  H   UNL     1      36.034 -23.923 -17.056  0.00  0.00    +0.189 HD
ENDBRANCH   6  10
ENDBRANCH   4   6
ENDBRANCH   1   3
BRANCH   1  20
ATOM     19  O   UNL     1      34.752 -14.334 -20.429  0.00  0.00    -0.248 OA
ATOM     20  C   UNL     1      34.158 -15.269 -20.957  0.00  0.00    +0.335 C 
BRANCH  20  21
ATOM     21  O   UNL     1      33.042 -15.871 -20.460  0.00  0.00    -0.443 OA
ATOM     22  C   UNL     1      32.232 -15.064 -19.600  0.00  0.00    +0.256 C 
ENDBRANCH  20  21
ENDBRANCH   1  20
BRANCH   1  23
ATOM     23  C   UNL     1      33.875 -15.330 -23.476  0.00  0.00    +0.057 C 
BRANCH  23  24
ATOM     24  C   UNL     1      33.524 -13.862 -23.368  0.00  0.00    -0.020 C 
ATOM     25  C   UNL     1      34.275 -12.912 -24.060  0.00  0.00    -0.004 C 
ATOM     26  C   UNL     1      32.449 -13.459 -22.576  0.00  0.00    -0.004 C 
ATOM     27  C   UNL     1      33.952 -11.559 -23.960  0.00  0.00    +0.008 C 
ATOM     28  C   UNL     1      32.125 -12.106 -22.476  0.00  0.00    +0.008 C 
ATOM     29  C   UNL     1      32.876 -11.156 -23.168  0.00  0.00    +0.042 C 
BRANCH  29  30
ATOM     30  C   UNL     1      32.545  -9.770 -23.065  0.00  0.00    -0.060 C 
ATOM     31  C   UNL     1      32.266  -8.605 -22.979  0.00  0.00    -0.060 C 
BRANCH  31  32
ATOM     32  C   UNL     1      31.933  -7.217 -22.876  0.00  0.00    +0.042 C 
ATOM     33  C   UNL     1      32.536  -6.291 -23.725  0.00  0.00    +0.008 C 
ATOM     34  C   UNL     1      31.007  -6.791 -21.923  0.00  0.00    +0.008 C 
ATOM     35  C   UNL     1      32.213  -4.938 -23.625  0.00  0.00    +0.001 C 
ATOM     36  C   UNL     1      30.684  -5.438 -21.823  0.00  0.00    +0.001 C 
ATOM     37  C   UNL     1      31.287  -4.511 -22.674  0.00  0.00    +0.000 C 
ENDBRANCH  31  32
ENDBRANCH  29  30
ENDBRANCH  23  24
ENDBRANCH   1  23
TORSDOF 9
ENDMDL
MODEL 7
REMARK VINA RESULT:      -9.0      3.124      5.741
REMARK  Name = 5288250
REMARK  9 active torsions:
REMARK  status: ('A' for Active; 'I' for Inactive)
REMARK    1  A    between atoms: C_1  and  N_3
REMARK    2  A    between atoms: C_1  and  C_20
REMARK    3  A    between atoms: C_1  and  C_23
REMARK    4  A    between atoms: C_4  and  C_6
REMARK    5  A    between atoms: C_6  and  C_10
REMARK    6  A    between atoms: C_20  and  O_21
REMARK    7  A    between atoms: C_23  and  C_24
REMARK    8  A    between atoms: C_29  and  C_30
REMARK    9  A    between atoms: C_31  and  C_32
REMARK                            x       y       z     vdW  Elec       q    Type
REMARK                         _______ _______ _______ _____ _____    ______ ____
ROOT
ATOM      1  C   UNL     1      34.455 -18.753 -21.835  0.00  0.00    +0.176 C 
ENDROOT
BRANCH   1   3
ATOM      2  O   UNL     1      35.851 -20.508 -20.004  0.00  0.00    -0.275 OA
ATOM      3  N   UNL     1      33.908 -19.879 -21.114  0.00  0.00    -0.297 N 
ATOM      4  C   UNL     1      34.659 -20.666 -20.253  0.00  0.00    +0.223 C 
ATOM      5  H   UNL     1      32.956 -20.097 -21.238  0.00  0.00    +0.150 HD
BRANCH   4   6
ATOM      6  C   UNL     1      33.817 -21.765 -19.640  0.00  0.00    +0.087 C 
BRANCH   6  10
ATOM      7  N   UNL     1      35.964 -22.851 -16.692  0.00  0.00    -0.282 N 
ATOM      8  N   UNL     1      37.320 -21.034 -16.441  0.00  0.00    -0.331 N 
ATOM      9  N   UNL     1      37.724 -22.959 -15.159  0.00  0.00    -0.273 NA
ATOM     10  C   UNL     1      34.194 -22.042 -18.186  0.00  0.00    +0.029 C 
ATOM     11  C   UNL     1      33.235 -23.065 -17.560  0.00  0.00    +0.004 C 
ATOM     12  C   UNL     1      35.646 -22.529 -18.082  0.00  0.00    +0.094 C 
ATOM     13  C   UNL     1      33.650 -23.395 -16.127  0.00  0.00    +0.022 C 
ATOM     14  C   UNL     1      35.104 -23.851 -16.062  0.00  0.00    +0.093 C 
ATOM     15  C   UNL     1      37.032 -22.317 -16.056  0.00  0.00    +0.174 C 
ATOM     16  H   UNL     1      36.768 -20.589 -17.124  0.00  0.00    +0.145 HD
ATOM     17  H   UNL     1      38.080 -20.557 -16.035  0.00  0.00    +0.145 HD
ATOM     18  H   UNL     1      37.478 -23.881 -14.915  0.00  0.00    +0.189 HD
ENDBRANCH   6  10
ENDBRANCH   4   6
ENDBRANCH   1   3
BRANCH   1  20
ATOM     19  O   UNL     1      36.712 -19.052 -22.646  0.00  0.00    -0.248 OA
ATOM     20  C   UNL     1      35.508 -19.172 -22.852  0.00  0.00    +0.335 C 
BRANCH  20  21
ATOM     21  O   UNL     1      34.952 -19.666 -23.994  0.00  0.00    -0.443 OA
ATOM     22  C   UNL     1      34.157 -18.746 -24.747  0.00  0.00    +0.256 C 
ENDBRANCH  20  21
ENDBRANCH   1  20
BRANCH   1  23
ATOM     23  C   UNL     1      34.980 -17.676 -20.874  0.00  0.00    +0.057 C 
BRANCH  23  24
ATOM     24  C   UNL     1      34.565 -16.263 -21.221  0.00  0.00    -0.020 C 
ATOM     25  C   UNL     1      33.949 -15.461 -20.261  0.00  0.00    -0.004 C 
ATOM     26  C   UNL     1      34.799 -15.763 -22.502  0.00  0.00    -0.004 C 
ATOM     27  C   UNL     1      33.566 -14.159 -20.582  0.00  0.00    +0.008 C 
ATOM     28  C   UNL     1      34.417 -14.461 -22.823  0.00  0.00    +0.008 C 
ATOM     29  C   UNL     1      33.800 -13.659 -21.863  0.00  0.00    +0.042 C 
BRANCH  29  30
ATOM     30  C   UNL     1      33.407 -12.324 -22.191  0.00  0.00    -0.060 C 
ATOM     31  C   UNL     1      33.076 -11.204 -22.466  0.00  0.00    -0.060 C 
BRANCH  31  32
ATOM     32  C   UNL     1      32.682  -9.867 -22.794  0.00  0.00    +0.042 C 
ATOM     33  C   UNL     1      31.338  -9.502 -22.732  0.00  0.00    +0.008 C 
ATOM     34  C   UNL     1      33.643  -8.931 -23.176  0.00  0.00    +0.008 C 
ATOM     35  C   UNL     1      30.953  -8.200 -23.051  0.00  0.00    +0.001 C 
ATOM     36  C   UNL     1      33.258  -7.629 -23.495  0.00  0.00    +0.001 C 
ATOM     37  C   UNL     1      31.913  -7.264 -23.433  0.00  0.00    +0.000 C 
ENDBRANCH  31  32
ENDBRANCH  29  30
ENDBRANCH  23  24
ENDBRANCH   1  23
TORSDOF 9
ENDMDL
MODEL 8
REMARK VINA RESULT:      -8.9      4.871     11.756
REMARK  Name = 5288250
REMARK  9 active torsions:
REMARK  status: ('A' for Active; 'I' for Inactive)
REMARK    1  A    between atoms: C_1  and  N_3
REMARK    2  A    between atoms: C_1  and  C_20
REMARK    3  A    between atoms: C_1  and  C_23
REMARK    4  A    between atoms: C_4  and  C_6
REMARK    5  A    between atoms: C_6  and  C_10
REMARK    6  A    between atoms: C_20  and  O_21
REMARK    7  A    between atoms: C_23  and  C_24
REMARK    8  A    between atoms: C_29  and  C_30
REMARK    9  A    between atoms: C_31  and  C_32
REMARK                            x       y       z     vdW  Elec       q    Type
REMARK                         _______ _______ _______ _____ _____    ______ ____
ROOT
ATOM      1  C   UNL     1      34.998 -18.756 -21.199  0.00  0.00    +0.176 C 
ENDROOT
BRANCH   1   3
ATOM      2  O   UNL     1      35.159 -16.198 -19.856  0.00  0.00    -0.275 OA
ATOM      3  N   UNL     1      33.973 -17.741 -21.125  0.00  0.00    -0.297 N 
ATOM      4  C   UNL     1      34.143 -16.539 -20.454  0.00  0.00    +0.223 C 
ATOM      5  H   UNL     1      33.113 -17.910 -21.573  0.00  0.00    +0.150 HD
BRANCH   4   6
ATOM      6  C   UNL     1      32.902 -15.676 -20.552  0.00  0.00    +0.087 C 
BRANCH   6  10
ATOM      7  N   UNL     1      32.223 -12.156 -21.827  0.00  0.00    -0.282 N 
ATOM      8  N   UNL     1      31.878 -11.037 -19.869  0.00  0.00    -0.331 N 
ATOM      9  N   UNL     1      31.509  -9.932 -21.908  0.00  0.00    -0.273 NA
ATOM     10  C   UNL     1      33.205 -14.285 -21.104  0.00  0.00    +0.029 C 
ATOM     11  C   UNL     1      33.928 -14.380 -22.456  0.00  0.00    +0.004 C 
ATOM     12  C   UNL     1      31.919 -13.458 -21.236  0.00  0.00    +0.094 C 
ATOM     13  C   UNL     1      34.172 -12.990 -23.042  0.00  0.00    +0.022 C 
ATOM     14  C   UNL     1      32.876 -12.192 -23.134  0.00  0.00    +0.093 C 
ATOM     15  C   UNL     1      31.854 -10.995 -21.238  0.00  0.00    +0.174 C 
ATOM     16  H   UNL     1      32.146 -11.863 -19.406  0.00  0.00    +0.145 HD
ATOM     17  H   UNL     1      31.626 -10.241 -19.348  0.00  0.00    +0.145 HD
ATOM     18  H   UNL     1      31.507  -9.950 -22.893  0.00  0.00    +0.189 HD
ENDBRANCH   6  10
ENDBRANCH   4   6
ENDBRANCH   1   3
BRANCH   1  20
ATOM     19  O   UNL     1      37.033 -19.019 -22.475  0.00  0.00    -0.248 OA
ATOM     20  C   UNL     1      35.880 -18.602 -22.430  0.00  0.00    +0.335 C 
BRANCH  20  21
ATOM     21  O   UNL     1      35.244 -17.944 -23.440  0.00  0.00    -0.443 OA
ATOM     22  C   UNL     1      34.547 -18.771 -24.377  0.00  0.00    +0.256 C 
ENDBRANCH  20  21
ENDBRANCH   1  20
BRANCH   1  23
ATOM     23  C   UNL     1      34.397 -20.166 -21.094  0.00  0.00    +0.057 C 
BRANCH  23  24
ATOM     24  C   UNL     1      34.852 -20.958 -19.888  0.00  0.00    -0.020 C 
ATOM     25  C   UNL     1      33.929 -21.702 -19.153  0.00  0.00    -0.004 C 
ATOM     26  C   UNL     1      36.195 -20.944 -19.511  0.00  0.00    -0.004 C 
ATOM     27  C   UNL     1      34.349 -22.432 -18.041  0.00  0.00    +0.008 C 
ATOM     28  C   UNL     1      36.615 -21.674 -18.399  0.00  0.00    +0.008 C 
ATOM     29  C   UNL     1      35.692 -22.418 -17.664  0.00  0.00    +0.042 C 
BRANCH  29  30
ATOM     30  C   UNL     1      36.121 -23.165 -16.524  0.00  0.00    -0.060 C 
ATOM     31  C   UNL     1      36.482 -23.792 -15.566  0.00  0.00    -0.060 C 
BRANCH  31  32
ATOM     32  C   UNL     1      36.912 -24.539 -14.423  0.00  0.00    +0.042 C 
ATOM     33  C   UNL     1      38.242 -24.942 -14.314  0.00  0.00    +0.008 C 
ATOM     34  C   UNL     1      35.999 -24.865 -13.420  0.00  0.00    +0.008 C 
ATOM     35  C   UNL     1      38.662 -25.671 -13.201  0.00  0.00    +0.001 C 
ATOM     36  C   UNL     1      36.419 -25.594 -12.307  0.00  0.00    +0.001 C 
ATOM     37  C   UNL     1      37.750 -25.997 -12.198  0.00  0.00    +0.000 C 
ENDBRANCH  31  32
ENDBRANCH  29  30
ENDBRANCH  23  24
ENDBRANCH   1  23
TORSDOF 9
ENDMDL
MODEL 9
REMARK VINA RESULT:      -8.7      7.680     12.372
REMARK  Name = 5288250
REMARK  9 active torsions:
REMARK  status: ('A' for Active; 'I' for Inactive)
REMARK    1  A    between atoms: C_1  and  N_3
REMARK    2  A    between atoms: C_1  and  C_20
REMARK    3  A    between atoms: C_1  and  C_23
REMARK    4  A    between atoms: C_4  and  C_6
REMARK    5  A    between atoms: C_6  and  C_10
REMARK    6  A    between atoms: C_20  and  O_21
REMARK    7  A    between atoms: C_23  and  C_24
REMARK    8  A    between atoms: C_29  and  C_30
REMARK    9  A    between atoms: C_31  and  C_32
REMARK                            x       y       z     vdW  Elec       q    Type
REMARK                         _______ _______ _______ _____ _____    ______ ____
ROOT
ATOM      1  C   UNL     1      32.153 -11.515 -21.321  0.00  0.00    +0.176 C 
ENDROOT
BRANCH   1   3
ATOM      2  O   UNL     1      34.460 -11.728 -23.056  0.00  0.00    -0.275 OA
ATOM      3  N   UNL     1      32.289 -12.343 -22.497  0.00  0.00    -0.297 N 
ATOM      4  C   UNL     1      33.441 -12.378 -23.270  0.00  0.00    +0.223 C 
ATOM      5  H   UNL     1      31.529 -12.909 -22.762  0.00  0.00    +0.150 HD
BRANCH   4   6
ATOM      6  C   UNL     1      33.291 -13.338 -24.432  0.00  0.00    +0.087 C 
BRANCH   6  10
ATOM      7  N   UNL     1      34.823 -16.295 -22.591  0.00  0.00    -0.282 N 
ATOM      8  N   UNL     1      33.811 -16.118 -20.554  0.00  0.00    -0.331 N 
ATOM      9  N   UNL     1      35.512 -17.708 -20.861  0.00  0.00    -0.273 NA
ATOM     10  C   UNL     1      33.508 -14.791 -24.015  0.00  0.00    +0.029 C 
ATOM     11  C   UNL     1      33.883 -15.655 -25.228  0.00  0.00    +0.004 C 
ATOM     12  C   UNL     1      34.585 -14.892 -22.927  0.00  0.00    +0.094 C 
ATOM     13  C   UNL     1      34.167 -17.095 -24.804  0.00  0.00    +0.022 C 
ATOM     14  C   UNL     1      35.222 -17.152 -23.705  0.00  0.00    +0.093 C 
ATOM     15  C   UNL     1      34.754 -16.752 -21.319  0.00  0.00    +0.174 C 
ATOM     16  H   UNL     1      33.261 -15.401 -20.944  0.00  0.00    +0.145 HD
ATOM     17  H   UNL     1      33.684 -16.380 -19.614  0.00  0.00    +0.145 HD
ATOM     18  H   UNL     1      36.177 -18.133 -21.451  0.00  0.00    +0.189 HD
ENDBRANCH   6  10
ENDBRANCH   4   6
ENDBRANCH   1   3
BRANCH   1  20
ATOM     19  O   UNL     1      32.315 -13.404 -19.824  0.00  0.00    -0.248 OA
ATOM     20  C   UNL     1      31.796 -12.322 -20.080  0.00  0.00    +0.335 C 
BRANCH  20  21
ATOM     21  O   UNL     1      30.841 -11.710 -19.326  0.00  0.00    -0.443 OA
ATOM     22  C   UNL     1      31.292 -11.145 -18.091  0.00  0.00    +0.256 C 
ENDBRANCH  20  21
ENDBRANCH   1  20
BRANCH   1  23
ATOM     23  C   UNL     1      31.167 -10.361 -21.560  0.00  0.00    +0.057 C 
BRANCH  23  24
ATOM     24  C   UNL     1      31.722  -9.216 -22.379  0.00  0.00    -0.020 C 
ATOM     25  C   UNL     1      33.063  -8.856 -22.257  0.00  0.00    -0.004 C 
ATOM     26  C   UNL     1      30.890  -8.521 -23.257  0.00  0.00    -0.004 C 
ATOM     27  C   UNL     1      33.574  -7.800 -23.011  0.00  0.00    +0.008 C 
ATOM     28  C   UNL     1      31.400  -7.465 -24.012  0.00  0.00    +0.008 C 
ATOM     29  C   UNL     1      32.742  -7.105 -23.889  0.00  0.00    +0.042 C 
BRANCH  29  30
ATOM     30  C   UNL     1      33.265  -6.022 -24.662  0.00  0.00    -0.060 C 
ATOM     31  C   UNL     1      33.705  -5.112 -25.310  0.00  0.00    -0.060 C 
BRANCH  31  32
ATOM     32  C   UNL     1      34.230  -4.028 -26.083  0.00  0.00    +0.042 C 
ATOM     33  C   UNL     1      33.504  -2.843 -26.204  0.00  0.00    +0.008 C 
ATOM     34  C   UNL     1      35.466  -4.157 -26.715  0.00  0.00    +0.008 C 
ATOM     35  C   UNL     1      34.015  -1.786 -26.957  0.00  0.00    +0.001 C 
ATOM     36  C   UNL     1      35.977  -3.100 -27.469  0.00  0.00    +0.001 C 
ATOM     37  C   UNL     1      35.251  -1.915 -27.590  0.00  0.00    +0.000 C 
ENDBRANCH  31  32
ENDBRANCH  29  30
ENDBRANCH  23  24
ENDBRANCH   1  23
TORSDOF 9
ENDMDL
