MODEL 1
REMARK VINA RESULT:     -12.4      0.000      0.000
REMARK  Name = 5291
REMARK  6 active torsions:
REMARK  status: ('A' for Active; 'I' for Inactive)
REMARK    1  A    between atoms: C_1  and  N_23
REMARK    2  A    between atoms: C_2  and  N_8
REMARK    3  A    between atoms: C_12  and  C_17
REMARK    4  A    between atoms: C_24  and  C_31
REMARK    5  A    between atoms: C_26  and  C_32
REMARK    6  A    between atoms: C_32  and  N_33
REMARK                            x       y       z     vdW  Elec       q    Type
REMARK                         _______ _______ _______ _____ _____    ______ ____
ROOT
ATOM      1  C   UNL     1      31.761 -23.063 -16.460  0.00  0.00    +0.052 C 
ATOM      2  C   UNL     1      31.758 -24.204 -14.352  0.00  0.00    +0.055 C 
ATOM      3  C   UNL     1      32.447 -23.504 -15.341  0.00  0.00    +0.030 C 
ATOM      4  C   UNL     1      30.393 -24.455 -14.497  0.00  0.00    -0.008 C 
ATOM      5  C   UNL     1      30.407 -23.303 -16.620  0.00  0.00    +0.014 C 
ATOM      6  C   UNL     1      29.718 -24.005 -15.631  0.00  0.00    -0.002 C 
ATOM      7  C   UNL     1      29.630 -25.204 -13.453  0.00  0.00    +0.032 C 
ENDROOT
BRANCH   2   8
ATOM      8  N   UNL     1      32.456 -24.653 -13.209  0.00  0.00    -0.248 N 
ATOM      9  N   UNL     1      34.682 -24.219 -13.812  0.00  0.00    -0.337 NA
ATOM     10  N   UNL     1      34.148 -25.198 -11.676  0.00  0.00    -0.170 NA
ATOM     11  C   UNL     1      33.825 -24.692 -12.884  0.00  0.00    +0.149 C 
ATOM     12  C   UNL     1      35.986 -24.272 -13.470  0.00  0.00    +0.147 C 
ATOM     13  C   UNL     1      36.442 -24.766 -12.264  0.00  0.00    +0.055 C 
ATOM     14  C   UNL     1      35.469 -25.220 -11.398  0.00  0.00    +0.114 C 
ATOM     15  H   UNL     1      31.871 -25.007 -12.501  0.00  0.00    +0.165 HD
BRANCH  12  17
ATOM     16  N   UNL     1      39.085 -23.861 -15.499  0.00  0.00    -0.242 NA
ATOM     17  C   UNL     1      36.902 -23.765 -14.463  0.00  0.00    +0.050 C 
ATOM     18  C   UNL     1      36.532 -22.736 -15.323  0.00  0.00    +0.006 C 
ATOM     19  C   UNL     1      38.179 -24.289 -14.591  0.00  0.00    +0.101 C 
ATOM     20  C   UNL     1      37.436 -22.270 -16.269  0.00  0.00    +0.021 C 
ATOM     21  C   UNL     1      38.689 -22.860 -16.316  0.00  0.00    +0.099 C 
ENDBRANCH  12  17
ENDBRANCH   2   8
BRANCH   1  23
ATOM     22  O   UNL     1      33.727 -24.028 -18.508  0.00  0.00    -0.270 OA
ATOM     23  N   UNL     1      32.460 -22.351 -17.464  0.00  0.00    -0.280 N 
ATOM     24  C   UNL     1      33.376 -22.841 -18.407  0.00  0.00    +0.249 C 
ATOM     25  H   UNL     1      32.281 -21.384 -17.506  0.00  0.00    +0.155 HD
BRANCH  24  31
ATOM     26  C   UNL     1      35.070 -19.965 -21.005  0.00  0.00    -0.043 C 
ATOM     27  C   UNL     1      35.902 -20.821 -20.298  0.00  0.00    -0.006 C 
ATOM     28  C   UNL     1      33.690 -20.038 -20.872  0.00  0.00    -0.006 C 
ATOM     29  C   UNL     1      35.343 -21.770 -19.442  0.00  0.00    +0.004 C 
ATOM     30  C   UNL     1      33.131 -20.987 -20.016  0.00  0.00    +0.004 C 
ATOM     31  C   UNL     1      33.958 -21.853 -19.301  0.00  0.00    +0.054 C 
BRANCH  26  32
ATOM     32  C   UNL     1      35.672 -18.941 -21.930  0.00  0.00    -0.050 C 
BRANCH  32  33
ATOM     33  N   UNL     1      34.835 -17.747 -22.039  0.00  0.00    +0.387 N 
ATOM     34  N   UNL     1      34.434 -14.889 -22.209  0.00  0.00    +0.383 N 
ATOM     35  C   UNL     1      35.142 -17.006 -23.269  0.00  0.00    -0.100 C 
ATOM     36  C   UNL     1      35.004 -16.883 -20.865  0.00  0.00    -0.100 C 
ATOM     37  C   UNL     1      34.265 -15.754 -23.383  0.00  0.00    -0.101 C 
ATOM     38  C   UNL     1      34.130 -15.630 -20.978  0.00  0.00    -0.101 C 
ATOM     39  C   UNL     1      33.596 -13.697 -22.318  0.00  0.00    -0.101 C 
ATOM     40  H   UNL     1      33.862 -18.048 -22.079  0.00  0.00    -0.079 HD
ATOM     41  H   UNL     1      35.407 -14.587 -22.169  0.00  0.00    -0.080 HD
ENDBRANCH  32  33
ENDBRANCH  26  32
ENDBRANCH  24  31
ENDBRANCH   1  23
TORSDOF 6
ENDMDL
MODEL 2
REMARK VINA RESULT:     -10.9      2.142      5.368
REMARK  Name = 5291
REMARK  6 active torsions:
REMARK  status: ('A' for Active; 'I' for Inactive)
REMARK    1  A    between atoms: C_1  and  N_23
REMARK    2  A    between atoms: C_2  and  N_8
REMARK    3  A    between atoms: C_12  and  C_17
REMARK    4  A    between atoms: C_24  and  C_31
REMARK    5  A    between atoms: C_26  and  C_32
REMARK    6  A    between atoms: C_32  and  N_33
REMARK                            x       y       z     vdW  Elec       q    Type
REMARK                         _______ _______ _______ _____ _____    ______ ____
ROOT
ATOM      1  C   UNL     1      34.226 -20.525 -20.177  0.00  0.00    +0.052 C 
ATOM      2  C   UNL     1      33.089 -22.104 -18.777  0.00  0.00    +0.055 C 
ATOM      3  C   UNL     1      33.097 -20.891 -19.463  0.00  0.00    +0.030 C 
ATOM      4  C   UNL     1      34.211 -22.934 -18.815  0.00  0.00    -0.008 C 
ATOM      5  C   UNL     1      35.346 -21.336 -20.225  0.00  0.00    +0.014 C 
ATOM      6  C   UNL     1      35.339 -22.550 -19.538  0.00  0.00    -0.002 C 
ATOM      7  C   UNL     1      34.230 -24.239 -18.087  0.00  0.00    +0.032 C 
ENDROOT
BRANCH   2   8
ATOM      8  N   UNL     1      31.938 -22.480 -18.050  0.00  0.00    -0.248 N 
ATOM      9  N   UNL     1      32.875 -23.203 -16.022  0.00  0.00    -0.337 NA
ATOM     10  N   UNL     1      30.491 -23.252 -16.371  0.00  0.00    -0.170 NA
ATOM     11  C   UNL     1      31.759 -23.002 -16.755  0.00  0.00    +0.149 C 
ATOM     12  C   UNL     1      32.667 -23.705 -14.787  0.00  0.00    +0.147 C 
ATOM     13  C   UNL     1      31.419 -24.001 -14.280  0.00  0.00    +0.055 C 
ATOM     14  C   UNL     1      30.356 -23.753 -15.125  0.00  0.00    +0.114 C 
ATOM     15  H   UNL     1      31.097 -22.350 -18.544  0.00  0.00    +0.165 HD
BRANCH  12  17
ATOM     16  N   UNL     1      34.875 -24.734 -11.966  0.00  0.00    -0.242 NA
ATOM     17  C   UNL     1      33.860 -23.918 -14.004  0.00  0.00    +0.050 C 
ATOM     18  C   UNL     1      35.111 -23.541 -14.483  0.00  0.00    +0.006 C 
ATOM     19  C   UNL     1      33.798 -24.505 -12.751  0.00  0.00    +0.101 C 
ATOM     20  C   UNL     1      36.242 -23.760 -13.706  0.00  0.00    +0.021 C 
ATOM     21  C   UNL     1      36.072 -24.354 -12.466  0.00  0.00    +0.099 C 
ENDBRANCH  12  17
ENDBRANCH   2   8
BRANCH   1  23
ATOM     22  O   UNL     1      36.418 -18.509 -20.526  0.00  0.00    -0.270 OA
ATOM     23  N   UNL     1      34.233 -19.293 -20.875  0.00  0.00    -0.280 N 
ATOM     24  C   UNL     1      35.284 -18.374 -21.015  0.00  0.00    +0.249 C 
ATOM     25  H   UNL     1      33.390 -19.048 -21.321  0.00  0.00    +0.155 HD
BRANCH  24  31
ATOM     26  C   UNL     1      34.396 -14.879 -23.225  0.00  0.00    -0.043 C 
ATOM     27  C   UNL     1      34.289 -14.858 -21.842  0.00  0.00    -0.006 C 
ATOM     28  C   UNL     1      34.790 -16.030 -23.895  0.00  0.00    -0.006 C 
ATOM     29  C   UNL     1      34.582 -16.010 -21.114  0.00  0.00    +0.004 C 
ATOM     30  C   UNL     1      35.084 -17.182 -23.166  0.00  0.00    +0.004 C 
ATOM     31  C   UNL     1      34.980 -17.173 -21.775  0.00  0.00    +0.054 C 
BRANCH  26  32
ATOM     32  C   UNL     1      34.080 -13.635 -24.013  0.00  0.00    -0.050 C 
BRANCH  32  33
ATOM     33  N   UNL     1      33.736 -12.512 -23.142  0.00  0.00    +0.387 N 
ATOM     34  N   UNL     1      32.145 -10.211 -22.413  0.00  0.00    +0.383 N 
ATOM     35  C   UNL     1      32.377 -12.664 -22.609  0.00  0.00    -0.100 C 
ATOM     36  C   UNL     1      33.866 -11.238 -23.859  0.00  0.00    -0.100 C 
ATOM     37  C   UNL     1      32.015 -11.486 -21.697  0.00  0.00    -0.101 C 
ATOM     38  C   UNL     1      33.504 -10.060 -22.949  0.00  0.00    -0.101 C 
ATOM     39  C   UNL     1      31.803  -9.089 -21.541  0.00  0.00    -0.101 C 
ATOM     40  H   UNL     1      34.390 -12.510 -22.360  0.00  0.00    -0.079 HD
ATOM     41  H   UNL     1      31.491 -10.213 -23.195  0.00  0.00    -0.080 HD
ENDBRANCH  32  33
ENDBRANCH  26  32
ENDBRANCH  24  31
ENDBRANCH   1  23
TORSDOF 6
ENDMDL
MODEL 3
REMARK VINA RESULT:     -10.7      1.593      2.138
REMARK  Name = 5291
REMARK  6 active torsions:
REMARK  status: ('A' for Active; 'I' for Inactive)
REMARK    1  A    between atoms: C_1  and  N_23
REMARK    2  A    between atoms: C_2  and  N_8
REMARK    3  A    between atoms: C_12  and  C_17
REMARK    4  A    between atoms: C_24  and  C_31
REMARK    5  A    between atoms: C_26  and  C_32
REMARK    6  A    between atoms: C_32  and  N_33
REMARK                            x       y       z     vdW  Elec       q    Type
REMARK                         _______ _______ _______ _____ _____    ______ ____
ROOT
ATOM      1  C   UNL     1      32.591 -23.462 -16.125  0.00  0.00    +0.052 C 
ATOM      2  C   UNL     1      32.683 -23.945 -13.779  0.00  0.00    +0.055 C 
ATOM      3  C   UNL     1      33.197 -23.283 -14.893  0.00  0.00    +0.030 C 
ATOM      4  C   UNL     1      31.571 -24.777 -13.913  0.00  0.00    -0.008 C 
ATOM      5  C   UNL     1      31.488 -24.283 -16.276  0.00  0.00    +0.014 C 
ATOM      6  C   UNL     1      30.974 -24.947 -15.161  0.00  0.00    -0.002 C 
ATOM      7  C   UNL     1      31.001 -25.499 -12.736  0.00  0.00    +0.032 C 
ENDROOT
BRANCH   2   8
ATOM      8  N   UNL     1      33.299 -23.762 -12.520  0.00  0.00    -0.248 N 
ATOM      9  N   UNL     1      35.415 -24.709 -12.887  0.00  0.00    -0.337 NA
ATOM     10  N   UNL     1      34.836 -23.765 -10.747  0.00  0.00    -0.170 NA
ATOM     11  C   UNL     1      34.575 -24.093 -12.029  0.00  0.00    +0.149 C 
ATOM     12  C   UNL     1      36.629 -25.014 -12.383  0.00  0.00    +0.147 C 
ATOM     13  C   UNL     1      37.015 -24.729 -11.089  0.00  0.00    +0.055 C 
ATOM     14  C   UNL     1      36.068 -24.098 -10.308  0.00  0.00    +0.114 C 
ATOM     15  H   UNL     1      32.724 -23.314 -11.859  0.00  0.00    +0.165 HD
BRANCH  12  17
ATOM     16  N   UNL     1      38.083 -27.637 -14.595  0.00  0.00    -0.242 NA
ATOM     17  C   UNL     1      37.527 -25.671 -13.302  0.00  0.00    +0.050 C 
ATOM     18  C   UNL     1      38.663 -25.027 -13.781  0.00  0.00    +0.006 C 
ATOM     19  C   UNL     1      37.284 -26.964 -13.737  0.00  0.00    +0.101 C 
ATOM     20  C   UNL     1      39.509 -25.686 -14.665  0.00  0.00    +0.021 C 
ATOM     21  C   UNL     1      39.177 -26.978 -15.038  0.00  0.00    +0.099 C 
ENDBRANCH  12  17
ENDBRANCH   2   8
BRANCH   1  23
ATOM     22  O   UNL     1      35.432 -23.003 -16.969  0.00  0.00    -0.270 OA
ATOM     23  N   UNL     1      33.113 -22.789 -17.256  0.00  0.00    -0.280 N 
ATOM     24  C   UNL     1      34.455 -22.595 -17.617  0.00  0.00    +0.249 C 
ATOM     25  H   UNL     1      32.446 -22.406 -17.871  0.00  0.00    +0.155 HD
BRANCH  24  31
ATOM     26  C   UNL     1      35.114 -20.380 -21.159  0.00  0.00    -0.043 C 
ATOM     27  C   UNL     1      33.815 -20.608 -20.728  0.00  0.00    -0.006 C 
ATOM     28  C   UNL     1      36.200 -20.867 -20.445  0.00  0.00    -0.006 C 
ATOM     29  C   UNL     1      33.598 -21.338 -19.560  0.00  0.00    +0.004 C 
ATOM     30  C   UNL     1      35.983 -21.597 -19.277  0.00  0.00    +0.004 C 
ATOM     31  C   UNL     1      34.682 -21.833 -18.834  0.00  0.00    +0.054 C 
BRANCH  26  32
ATOM     32  C   UNL     1      35.350 -19.591 -22.419  0.00  0.00    -0.050 C 
BRANCH  32  33
ATOM     33  N   UNL     1      35.400 -18.153 -22.161  0.00  0.00    +0.387 N 
ATOM     34  N   UNL     1      34.203 -15.530 -21.946  0.00  0.00    +0.383 N 
ATOM     35  C   UNL     1      34.543 -17.798 -21.023  0.00  0.00    -0.100 C 
ATOM     36  C   UNL     1      35.008 -17.394 -23.354  0.00  0.00    -0.100 C 
ATOM     37  C   UNL     1      34.595 -16.290 -20.752  0.00  0.00    -0.101 C 
ATOM     38  C   UNL     1      35.059 -15.887 -23.085  0.00  0.00    -0.101 C 
ATOM     39  C   UNL     1      34.256 -14.093 -21.687  0.00  0.00    -0.101 C 
ATOM     40  H   UNL     1      36.362 -17.910 -21.927  0.00  0.00    -0.079 HD
ATOM     41  H   UNL     1      33.241 -15.772 -22.180  0.00  0.00    -0.080 HD
ENDBRANCH  32  33
ENDBRANCH  26  32
ENDBRANCH  24  31
ENDBRANCH   1  23
TORSDOF 6
ENDMDL
MODEL 4
REMARK VINA RESULT:      -9.5      2.909      6.782
REMARK  Name = 5291
REMARK  6 active torsions:
REMARK  status: ('A' for Active; 'I' for Inactive)
REMARK    1  A    between atoms: C_1  and  N_23
REMARK    2  A    between atoms: C_2  and  N_8
REMARK    3  A    between atoms: C_12  and  C_17
REMARK    4  A    between atoms: C_24  and  C_31
REMARK    5  A    between atoms: C_26  and  C_32
REMARK    6  A    between atoms: C_32  and  N_33
REMARK                            x       y       z     vdW  Elec       q    Type
REMARK                         _______ _______ _______ _____ _____    ______ ____
ROOT
ATOM      1  C   UNL     1      35.069 -18.593 -21.275  0.00  0.00    +0.052 C 
ATOM      2  C   UNL     1      34.350 -20.560 -20.108  0.00  0.00    +0.055 C 
ATOM      3  C   UNL     1      34.062 -19.307 -20.646  0.00  0.00    +0.030 C 
ATOM      4  C   UNL     1      35.641 -21.081 -20.205  0.00  0.00    -0.008 C 
ATOM      5  C   UNL     1      36.354 -19.095 -21.380  0.00  0.00    +0.014 C 
ATOM      6  C   UNL     1      36.642 -20.349 -20.840  0.00  0.00    -0.002 C 
ATOM      7  C   UNL     1      35.977 -22.421 -19.635  0.00  0.00    +0.032 C 
ENDROOT
BRANCH   2   8
ATOM      8  N   UNL     1      33.324 -21.290 -19.468  0.00  0.00    -0.248 N 
ATOM      9  N   UNL     1      34.506 -22.355 -17.742  0.00  0.00    -0.337 NA
ATOM     10  N   UNL     1      32.135 -22.691 -18.008  0.00  0.00    -0.170 NA
ATOM     11  C   UNL     1      33.321 -22.151 -18.355  0.00  0.00    +0.149 C 
ATOM     12  C   UNL     1      34.468 -23.186 -16.680  0.00  0.00    +0.147 C 
ATOM     13  C   UNL     1      33.317 -23.799 -16.228  0.00  0.00    +0.055 C 
ATOM     14  C   UNL     1      32.169 -23.513 -16.937  0.00  0.00    +0.114 C 
ATOM     15  H   UNL     1      32.438 -21.172 -19.879  0.00  0.00    +0.165 HD
BRANCH  12  17
ATOM     16  N   UNL     1      37.033 -24.620 -14.387  0.00  0.00    -0.242 NA
ATOM     17  C   UNL     1      35.735 -23.402 -16.025  0.00  0.00    +0.050 C 
ATOM     18  C   UNL     1      36.856 -22.650 -16.363  0.00  0.00    +0.006 C 
ATOM     19  C   UNL     1      35.876 -24.367 -15.040  0.00  0.00    +0.101 C 
ATOM     20  C   UNL     1      38.063 -22.881 -15.714  0.00  0.00    +0.021 C 
ATOM     21  C   UNL     1      38.099 -23.869 -14.743  0.00  0.00    +0.099 C 
ENDBRANCH  12  17
ENDBRANCH   2   8
BRANCH   1  23
ATOM     22  O   UNL     1      34.678 -17.756 -24.127  0.00  0.00    -0.270 OA
ATOM     23  N   UNL     1      34.776 -17.321 -21.823  0.00  0.00    -0.280 N 
ATOM     24  C   UNL     1      34.600 -16.970 -23.170  0.00  0.00    +0.249 C 
ATOM     25  H   UNL     1      34.684 -16.586 -21.174  0.00  0.00    +0.155 HD
BRANCH  24  31
ATOM     26  C   UNL     1      33.826 -12.881 -23.928  0.00  0.00    -0.043 C 
ATOM     27  C   UNL     1      33.565 -13.820 -24.915  0.00  0.00    -0.006 C 
ATOM     28  C   UNL     1      34.337 -13.263 -22.695  0.00  0.00    -0.006 C 
ATOM     29  C   UNL     1      33.820 -15.168 -24.665  0.00  0.00    +0.004 C 
ATOM     30  C   UNL     1      34.592 -14.611 -22.444  0.00  0.00    +0.004 C 
ATOM     31  C   UNL     1      34.333 -15.564 -23.429  0.00  0.00    +0.054 C 
BRANCH  26  32
ATOM     32  C   UNL     1      33.550 -11.425 -24.196  0.00  0.00    -0.050 C 
BRANCH  32  33
ATOM     33  N   UNL     1      33.385 -10.665 -22.959  0.00  0.00    +0.387 N 
ATOM     34  N   UNL     1      32.127  -8.632 -21.332  0.00  0.00    +0.383 N 
ATOM     35  C   UNL     1      32.039 -10.857 -22.405  0.00  0.00    -0.100 C 
ATOM     36  C   UNL     1      33.647  -9.239 -23.184  0.00  0.00    -0.100 C 
ATOM     37  C   UNL     1      31.864 -10.059 -21.108  0.00  0.00    -0.101 C 
ATOM     38  C   UNL     1      33.472  -8.439 -21.889  0.00  0.00    -0.101 C 
ATOM     39  C   UNL     1      31.962  -7.874 -20.094  0.00  0.00    -0.101 C 
ATOM     40  H   UNL     1      34.064 -11.014 -22.283  0.00  0.00    -0.079 HD
ATOM     41  H   UNL     1      31.447  -8.283 -22.008  0.00  0.00    -0.080 HD
ENDBRANCH  32  33
ENDBRANCH  26  32
ENDBRANCH  24  31
ENDBRANCH   1  23
TORSDOF 6
ENDMDL
