MODEL 1
REMARK VINA RESULT:     -11.7      0.000      0.000
REMARK  Name = 447731
REMARK  4 active torsions:
REMARK  status: ('A' for Active; 'I' for Inactive)
REMARK    1  A    between atoms: N_2  and  C_13
REMARK    2  A    between atoms: C_3  and  C_19
REMARK    3  A    between atoms: C_6  and  C_17
REMARK    4  A    between atoms: C_27  and  C_31
REMARK                            x       y       z     vdW  Elec       q    Type
REMARK                         _______ _______ _______ _____ _____    ______ ____
ROOT
ATOM      1  O   UNL     1      33.788 -24.116 -17.837  0.00  0.00    -0.270 OA
ATOM      2  N   UNL     1      35.137 -22.680 -16.554  0.00  0.00    -0.280 N 
ATOM      3  C   UNL     1      34.374 -23.052 -17.668  0.00  0.00    +0.249 C 
ATOM      4  H   UNL     1      35.539 -21.781 -16.586  0.00  0.00    +0.155 HD
ENDROOT
BRANCH   2  13
ATOM      5  N   UNL     1      37.135 -26.833 -12.049  0.00  0.00    +0.387 N 
ATOM      6  C   UNL     1      38.087 -25.831 -14.096  0.00  0.00    +0.001 C 
ATOM      7  C   UNL     1      36.846 -24.954 -14.176  0.00  0.00    -0.029 C 
ATOM      8  C   UNL     1      38.359 -26.316 -12.658  0.00  0.00    -0.077 C 
ATOM      9  C   UNL     1      35.919 -24.947 -13.114  0.00  0.00    -0.048 C 
ATOM     10  C   UNL     1      36.173 -25.745 -11.859  0.00  0.00    -0.055 C 
ATOM     11  C   UNL     1      36.557 -24.203 -15.328  0.00  0.00    +0.010 C 
ATOM     12  C   UNL     1      34.766 -24.153 -13.197  0.00  0.00    -0.005 C 
ATOM     13  C   UNL     1      35.399 -23.426 -15.404  0.00  0.00    +0.050 C 
ATOM     14  C   UNL     1      34.508 -23.397 -14.337  0.00  0.00    +0.014 C 
ATOM     15  H   UNL     1      37.357 -27.249 -11.144  0.00  0.00    -0.084 HD
ATOM     16  H   UNL     1      36.727 -27.539 -12.662  0.00  0.00    -0.084 HD
BRANCH   6  17
ATOM     17  C   UNL     1      39.355 -25.153 -14.629  0.00  0.00    +0.002 C 
ATOM     18  C   UNL     1      40.600 -25.870 -14.154  0.00  0.00    +0.000 C 
ENDBRANCH   6  17
ENDBRANCH   2  13
BRANCH   3  19
ATOM     19  C   UNL     1      34.303 -22.043 -18.758  0.00  0.00    +0.054 C 
ATOM     20  C   UNL     1      35.426 -20.552 -20.275  0.00  0.00    +0.000 C 
ATOM     21  C   UNL     1      34.168 -20.158 -20.792  0.00  0.00    +0.000 C 
ATOM     22  C   UNL     1      35.476 -21.507 -19.245  0.00  0.00    +0.005 C 
ATOM     23  C   UNL     1      33.068 -21.677 -19.243  0.00  0.00    +0.005 C 
ATOM     24  C   UNL     1      32.999 -20.731 -20.265  0.00  0.00    +0.000 C 
ATOM     25  C   UNL     1      34.117 -19.203 -21.821  0.00  0.00    +0.003 C 
ATOM     26  C   UNL     1      36.594 -19.979 -20.802  0.00  0.00    +0.000 C 
ATOM     27  C   UNL     1      35.289 -18.644 -22.332  0.00  0.00    +0.031 C 
ATOM     28  C   UNL     1      36.525 -19.032 -21.823  0.00  0.00    +0.003 C 
BRANCH  27  31
ATOM     29  N   UNL     1      34.598 -17.944 -24.612  0.00  0.00    -0.343 N 
ATOM     30  N   UNL     1      35.754 -16.463 -23.224  0.00  0.00    -0.285 NA
ATOM     31  C   UNL     1      35.218 -17.657 -23.397  0.00  0.00    +0.117 C 
ATOM     32  H   UNL     1      34.561 -17.261 -25.320  0.00  0.00    +0.144 HD
ATOM     33  H   UNL     1      34.195 -18.830 -24.762  0.00  0.00    +0.144 HD
ATOM     34  H   UNL     1      35.708 -15.793 -23.944  0.00  0.00    +0.188 HD
ENDBRANCH  27  31
ENDBRANCH   3  19
TORSDOF 4
ENDMDL
MODEL 2
REMARK VINA RESULT:     -11.5      2.165     10.197
REMARK  Name = 447731
REMARK  4 active torsions:
REMARK  status: ('A' for Active; 'I' for Inactive)
REMARK    1  A    between atoms: N_2  and  C_13
REMARK    2  A    between atoms: C_3  and  C_19
REMARK    3  A    between atoms: C_6  and  C_17
REMARK    4  A    between atoms: C_27  and  C_31
REMARK                            x       y       z     vdW  Elec       q    Type
REMARK                         _______ _______ _______ _____ _____    ______ ____
ROOT
ATOM      1  O   UNL     1      32.901 -21.246 -20.285  0.00  0.00    -0.270 OA
ATOM      2  N   UNL     1      35.057 -20.305 -20.258  0.00  0.00    -0.280 N 
ATOM      3  C   UNL     1      34.027 -21.141 -19.808  0.00  0.00    +0.249 C 
ATOM      4  H   UNL     1      35.901 -20.350 -19.754  0.00  0.00    +0.155 HD
ENDROOT
BRANCH   2  13
ATOM      5  N   UNL     1      34.050 -15.545 -24.486  0.00  0.00    +0.387 N 
ATOM      6  C   UNL     1      34.015 -15.782 -22.027  0.00  0.00    +0.001 C 
ATOM      7  C   UNL     1      34.548 -17.195 -22.211  0.00  0.00    -0.029 C 
ATOM      8  C   UNL     1      34.360 -14.874 -23.225  0.00  0.00    -0.077 C 
ATOM      9  C   UNL     1      34.955 -17.633 -23.488  0.00  0.00    -0.048 C 
ATOM     10  C   UNL     1      34.939 -16.695 -24.670  0.00  0.00    -0.055 C 
ATOM     11  C   UNL     1      34.571 -18.111 -21.147  0.00  0.00    +0.010 C 
ATOM     12  C   UNL     1      35.429 -18.942 -23.662  0.00  0.00    -0.005 C 
ATOM     13  C   UNL     1      35.032 -19.415 -21.334  0.00  0.00    +0.050 C 
ATOM     14  C   UNL     1      35.467 -19.828 -22.589  0.00  0.00    +0.014 C 
ATOM     15  H   UNL     1      34.180 -14.891 -25.258  0.00  0.00    -0.084 HD
ATOM     16  H   UNL     1      33.083 -15.868 -24.466  0.00  0.00    -0.084 HD
BRANCH   6  17
ATOM     17  C   UNL     1      34.505 -15.102 -20.743  0.00  0.00    +0.002 C 
ATOM     18  C   UNL     1      33.473 -14.133 -20.209  0.00  0.00    +0.000 C 
ENDBRANCH   6  17
ENDBRANCH   2  13
BRANCH   3  19
ATOM     19  C   UNL     1      34.349 -21.960 -18.610  0.00  0.00    +0.054 C 
ATOM     20  C   UNL     1      35.945 -22.674 -16.959  0.00  0.00    +0.000 C 
ATOM     21  C   UNL     1      34.948 -23.491 -16.372  0.00  0.00    +0.000 C 
ATOM     22  C   UNL     1      35.625 -21.906 -18.091  0.00  0.00    +0.005 C 
ATOM     23  C   UNL     1      33.362 -22.746 -18.059  0.00  0.00    +0.005 C 
ATOM     24  C   UNL     1      33.662 -23.515 -16.936  0.00  0.00    +0.000 C 
ATOM     25  C   UNL     1      35.268 -24.260 -15.241  0.00  0.00    +0.003 C 
ATOM     26  C   UNL     1      37.231 -22.650 -16.396  0.00  0.00    +0.000 C 
ATOM     27  C   UNL     1      36.551 -24.224 -14.695  0.00  0.00    +0.031 C 
ATOM     28  C   UNL     1      37.531 -23.420 -15.273  0.00  0.00    +0.003 C 
BRANCH  27  31
ATOM     29  N   UNL     1      38.155 -25.062 -12.996  0.00  0.00    -0.343 N 
ATOM     30  N   UNL     1      35.921 -25.740 -12.942  0.00  0.00    -0.285 NA
ATOM     31  C   UNL     1      36.866 -25.025 -13.524  0.00  0.00    +0.117 C 
ATOM     32  H   UNL     1      38.347 -25.611 -12.202  0.00  0.00    +0.144 HD
ATOM     33  H   UNL     1      38.875 -24.538 -13.417  0.00  0.00    +0.144 HD
ATOM     34  H   UNL     1      36.131 -26.284 -12.149  0.00  0.00    +0.188 HD
ENDBRANCH  27  31
ENDBRANCH   3  19
TORSDOF 4
ENDMDL
MODEL 3
REMARK VINA RESULT:     -11.1      3.167     10.838
REMARK  Name = 447731
REMARK  4 active torsions:
REMARK  status: ('A' for Active; 'I' for Inactive)
REMARK    1  A    between atoms: N_2  and  C_13
REMARK    2  A    between atoms: C_3  and  C_19
REMARK    3  A    between atoms: C_6  and  C_17
REMARK    4  A    between atoms: C_27  and  C_31
REMARK                            x       y       z     vdW  Elec       q    Type
REMARK                         _______ _______ _______ _____ _____    ______ ____
ROOT
ATOM      1  O   UNL     1      34.552 -20.314 -22.168  0.00  0.00    -0.270 OA
ATOM      2  N   UNL     1      34.955 -18.473 -20.762  0.00  0.00    -0.280 N 
ATOM      3  C   UNL     1      34.832 -19.832 -21.075  0.00  0.00    +0.249 C 
ATOM      4  H   UNL     1      35.188 -18.263 -19.828  0.00  0.00    +0.155 HD
ENDROOT
BRANCH   2  13
ATOM      5  N   UNL     1      33.042 -13.247 -24.014  0.00  0.00    +0.387 N 
ATOM      6  C   UNL     1      32.777 -14.111 -21.715  0.00  0.00    +0.001 C 
ATOM      7  C   UNL     1      33.745 -15.227 -22.083  0.00  0.00    -0.029 C 
ATOM      8  C   UNL     1      32.966 -12.866 -22.605  0.00  0.00    -0.077 C 
ATOM      9  C   UNL     1      34.424 -15.190 -23.318  0.00  0.00    -0.048 C 
ATOM     10  C   UNL     1      34.262 -14.021 -24.257  0.00  0.00    -0.055 C 
ATOM     11  C   UNL     1      33.920 -16.344 -21.250  0.00  0.00    +0.010 C 
ATOM     12  C   UNL     1      35.302 -16.228 -23.664  0.00  0.00    -0.005 C 
ATOM     13  C   UNL     1      34.787 -17.377 -21.612  0.00  0.00    +0.050 C 
ATOM     14  C   UNL     1      35.482 -17.316 -22.814  0.00  0.00    +0.014 C 
ATOM     15  H   UNL     1      33.056 -12.406 -24.592  0.00  0.00    -0.084 HD
ATOM     16  H   UNL     1      32.230 -13.817 -24.253  0.00  0.00    -0.084 HD
BRANCH   6  17
ATOM     17  C   UNL     1      32.865 -13.679 -20.247  0.00  0.00    +0.002 C 
ATOM     18  C   UNL     1      31.857 -12.595 -19.935  0.00  0.00    +0.000 C 
ENDBRANCH   6  17
ENDBRANCH   2  13
BRANCH   3  19
ATOM     19  C   UNL     1      35.044 -20.769 -19.940  0.00  0.00    +0.054 C 
ATOM     20  C   UNL     1      34.133 -22.275 -18.301  0.00  0.00    +0.000 C 
ATOM     21  C   UNL     1      35.442 -22.518 -17.821  0.00  0.00    +0.000 C 
ATOM     22  C   UNL     1      33.949 -21.387 -19.375  0.00  0.00    +0.005 C 
ATOM     23  C   UNL     1      36.327 -20.988 -19.492  0.00  0.00    +0.005 C 
ATOM     24  C   UNL     1      36.529 -21.866 -18.428  0.00  0.00    +0.000 C 
ATOM     25  C   UNL     1      35.627 -23.405 -16.747  0.00  0.00    +0.003 C 
ATOM     26  C   UNL     1      33.048 -22.926 -17.694  0.00  0.00    +0.000 C 
ATOM     27  C   UNL     1      34.537 -24.043 -16.156  0.00  0.00    +0.031 C 
ATOM     28  C   UNL     1      33.249 -23.804 -16.630  0.00  0.00    +0.003 C 
BRANCH  27  31
ATOM     29  N   UNL     1      33.902 -24.954 -13.936  0.00  0.00    -0.343 N 
ATOM     30  N   UNL     1      35.750 -25.813 -15.077  0.00  0.00    -0.285 NA
ATOM     31  C   UNL     1      34.744 -24.959 -15.046  0.00  0.00    +0.117 C 
ATOM     32  H   UNL     1      34.060 -25.583 -13.195  0.00  0.00    +0.144 HD
ATOM     33  H   UNL     1      33.147 -24.323 -13.892  0.00  0.00    +0.144 HD
ATOM     34  H   UNL     1      35.893 -26.434 -14.326  0.00  0.00    +0.188 HD
ENDBRANCH  27  31
ENDBRANCH   3  19
TORSDOF 4
ENDMDL
MODEL 4
REMARK VINA RESULT:     -11.1      2.228     10.449
REMARK  Name = 447731
REMARK  4 active torsions:
REMARK  status: ('A' for Active; 'I' for Inactive)
REMARK    1  A    between atoms: N_2  and  C_13
REMARK    2  A    between atoms: C_3  and  C_19
REMARK    3  A    between atoms: C_6  and  C_17
REMARK    4  A    between atoms: C_27  and  C_31
REMARK                            x       y       z     vdW  Elec       q    Type
REMARK                         _______ _______ _______ _____ _____    ______ ____
ROOT
ATOM      1  O   UNL     1      33.539 -21.272 -20.375  0.00  0.00    -0.270 OA
ATOM      2  N   UNL     1      35.510 -19.989 -20.400  0.00  0.00    -0.280 N 
ATOM      3  C   UNL     1      34.638 -20.974 -19.919  0.00  0.00    +0.249 C 
ATOM      4  H   UNL     1      36.357 -19.884 -19.909  0.00  0.00    +0.155 HD
ENDROOT
BRANCH   2  13
ATOM      5  N   UNL     1      33.793 -15.437 -24.628  0.00  0.00    +0.387 N 
ATOM      6  C   UNL     1      34.004 -15.600 -22.172  0.00  0.00    +0.001 C 
ATOM      7  C   UNL     1      34.611 -16.980 -22.371  0.00  0.00    -0.029 C 
ATOM      8  C   UNL     1      34.173 -14.709 -23.419  0.00  0.00    -0.077 C 
ATOM      9  C   UNL     1      34.926 -17.430 -23.670  0.00  0.00    -0.048 C 
ATOM     10  C   UNL     1      34.736 -16.532 -24.867  0.00  0.00    -0.055 C 
ATOM     11  C   UNL     1      34.795 -17.859 -21.291  0.00  0.00    +0.010 C 
ATOM     12  C   UNL     1      35.469 -18.710 -23.855  0.00  0.00    -0.005 C 
ATOM     13  C   UNL     1      35.325 -19.136 -21.490  0.00  0.00    +0.050 C 
ATOM     14  C   UNL     1      35.667 -19.559 -22.770  0.00  0.00    +0.014 C 
ATOM     15  H   UNL     1      33.805 -14.800 -25.425  0.00  0.00    -0.084 HD
ATOM     16  H   UNL     1      32.855 -15.822 -24.508  0.00  0.00    -0.084 HD
BRANCH   6  17
ATOM     17  C   UNL     1      34.565 -14.850 -20.957  0.00  0.00    +0.002 C 
ATOM     18  C   UNL     1      33.456 -14.210 -20.150  0.00  0.00    +0.000 C 
ENDBRANCH   6  17
ENDBRANCH   2  13
BRANCH   3  19
ATOM     19  C   UNL     1      35.106 -21.706 -18.712  0.00  0.00    +0.054 C 
ATOM     20  C   UNL     1      34.617 -23.120 -16.829  0.00  0.00    +0.000 C 
ATOM     21  C   UNL     1      35.983 -23.071 -16.459  0.00  0.00    +0.000 C 
ATOM     22  C   UNL     1      34.190 -22.424 -17.973  0.00  0.00    +0.005 C 
ATOM     23  C   UNL     1      36.439 -21.642 -18.374  0.00  0.00    +0.005 C 
ATOM     24  C   UNL     1      36.880 -22.327 -17.242  0.00  0.00    +0.000 C 
ATOM     25  C   UNL     1      36.410 -23.767 -15.316  0.00  0.00    +0.003 C 
ATOM     26  C   UNL     1      33.720 -23.864 -16.046  0.00  0.00    +0.000 C 
ATOM     27  C   UNL     1      35.505 -24.501 -14.550  0.00  0.00    +0.031 C 
ATOM     28  C   UNL     1      34.162 -24.549 -14.915  0.00  0.00    +0.003 C 
BRANCH  27  31
ATOM     29  N   UNL     1      35.209 -25.239 -12.198  0.00  0.00    -0.343 N 
ATOM     30  N   UNL     1      37.117 -25.856 -13.395  0.00  0.00    -0.285 NA
ATOM     31  C   UNL     1      35.963 -25.215 -13.370  0.00  0.00    +0.117 C 
ATOM     32  H   UNL     1      35.538 -25.729 -11.410  0.00  0.00    +0.144 HD
ATOM     33  H   UNL     1      34.346 -24.765 -12.158  0.00  0.00    +0.144 HD
ATOM     34  H   UNL     1      37.430 -26.340 -12.597  0.00  0.00    +0.188 HD
ENDBRANCH  27  31
ENDBRANCH   3  19
TORSDOF 4
ENDMDL
MODEL 5
REMARK VINA RESULT:     -11.0      1.109      2.611
REMARK  Name = 447731
REMARK  4 active torsions:
REMARK  status: ('A' for Active; 'I' for Inactive)
REMARK    1  A    between atoms: N_2  and  C_13
REMARK    2  A    between atoms: C_3  and  C_19
REMARK    3  A    between atoms: C_6  and  C_17
REMARK    4  A    between atoms: C_27  and  C_31
REMARK                            x       y       z     vdW  Elec       q    Type
REMARK                         _______ _______ _______ _____ _____    ______ ____
ROOT
ATOM      1  O   UNL     1      34.213 -23.672 -17.815  0.00  0.00    -0.270 OA
ATOM      2  N   UNL     1      35.930 -22.302 -16.976  0.00  0.00    -0.280 N 
ATOM      3  C   UNL     1      34.916 -22.669 -17.870  0.00  0.00    +0.249 C 
ATOM      4  H   UNL     1      36.396 -21.457 -17.174  0.00  0.00    +0.155 HD
ENDROOT
BRANCH   2  13
ATOM      5  N   UNL     1      36.818 -24.957 -11.170  0.00  0.00    +0.387 N 
ATOM      6  C   UNL     1      34.878 -24.315 -12.558  0.00  0.00    +0.001 C 
ATOM      7  C   UNL     1      35.856 -23.998 -13.680  0.00  0.00    -0.029 C 
ATOM      8  C   UNL     1      35.459 -25.332 -11.556  0.00  0.00    -0.077 C 
ATOM      9  C   UNL     1      37.218 -24.335 -13.542  0.00  0.00    -0.048 C 
ATOM     10  C   UNL     1      37.714 -25.073 -12.324  0.00  0.00    -0.055 C 
ATOM     11  C   UNL     1      35.448 -23.300 -14.828  0.00  0.00    +0.010 C 
ATOM     12  C   UNL     1      38.123 -24.026 -14.569  0.00  0.00    -0.005 C 
ATOM     13  C   UNL     1      36.361 -22.986 -15.838  0.00  0.00    +0.050 C 
ATOM     14  C   UNL     1      37.695 -23.354 -15.711  0.00  0.00    +0.014 C 
ATOM     15  H   UNL     1      37.142 -25.576 -10.427  0.00  0.00    -0.084 HD
ATOM     16  H   UNL     1      36.819 -23.991 -10.841  0.00  0.00    -0.084 HD
BRANCH   6  17
ATOM     17  C   UNL     1      33.523 -24.837 -13.053  0.00  0.00    +0.002 C 
ATOM     18  C   UNL     1      32.473 -23.748 -13.019  0.00  0.00    +0.000 C 
ENDBRANCH   6  17
ENDBRANCH   2  13
BRANCH   3  19
ATOM     19  C   UNL     1      34.707 -21.741 -19.012  0.00  0.00    +0.054 C 
ATOM     20  C   UNL     1      35.621 -20.235 -20.651  0.00  0.00    +0.000 C 
ATOM     21  C   UNL     1      34.315 -20.007 -21.146  0.00  0.00    +0.000 C 
ATOM     22  C   UNL     1      35.802 -21.115 -19.570  0.00  0.00    +0.005 C 
ATOM     23  C   UNL     1      33.427 -21.536 -19.475  0.00  0.00    +0.005 C 
ATOM     24  C   UNL     1      33.228 -20.665 -20.546  0.00  0.00    +0.000 C 
ATOM     25  C   UNL     1      34.133 -19.126 -22.225  0.00  0.00    +0.003 C 
ATOM     26  C   UNL     1      36.707 -19.577 -21.249  0.00  0.00    +0.000 C 
ATOM     27  C   UNL     1      35.224 -18.480 -22.808  0.00  0.00    +0.031 C 
ATOM     28  C   UNL     1      36.508 -18.706 -22.320  0.00  0.00    +0.003 C 
BRANCH  27  31
ATOM     29  N   UNL     1      35.497 -16.263 -23.891  0.00  0.00    -0.343 N 
ATOM     30  N   UNL     1      34.365 -17.982 -24.995  0.00  0.00    -0.285 NA
ATOM     31  C   UNL     1      35.019 -17.572 -23.924  0.00  0.00    +0.117 C 
ATOM     32  H   UNL     1      35.347 -15.665 -24.658  0.00  0.00    +0.144 HD
ATOM     33  H   UNL     1      35.985 -15.937 -23.100  0.00  0.00    +0.144 HD
ATOM     34  H   UNL     1      34.224 -17.369 -25.752  0.00  0.00    +0.188 HD
ENDBRANCH  27  31
ENDBRANCH   3  19
TORSDOF 4
ENDMDL
MODEL 6
REMARK VINA RESULT:     -10.8      2.748     10.359
REMARK  Name = 447731
REMARK  4 active torsions:
REMARK  status: ('A' for Active; 'I' for Inactive)
REMARK    1  A    between atoms: N_2  and  C_13
REMARK    2  A    between atoms: C_3  and  C_19
REMARK    3  A    between atoms: C_6  and  C_17
REMARK    4  A    between atoms: C_27  and  C_31
REMARK                            x       y       z     vdW  Elec       q    Type
REMARK                         _______ _______ _______ _____ _____    ______ ____
ROOT
ATOM      1  O   UNL     1      36.622 -21.691 -20.580  0.00  0.00    -0.270 OA
ATOM      2  N   UNL     1      34.931 -20.122 -20.121  0.00  0.00    -0.280 N 
ATOM      3  C   UNL     1      35.743 -21.233 -19.857  0.00  0.00    +0.249 C 
ATOM      4  H   UNL     1      34.273 -19.893 -19.425  0.00  0.00    +0.155 HD
ENDROOT
BRANCH   2  13
ATOM      5  N   UNL     1      34.099 -15.600 -24.638  0.00  0.00    +0.387 N 
ATOM      6  C   UNL     1      34.056 -15.682 -22.169  0.00  0.00    +0.001 C 
ATOM      7  C   UNL     1      34.536 -17.123 -22.264  0.00  0.00    -0.029 C 
ATOM      8  C   UNL     1      34.433 -14.864 -23.420  0.00  0.00    -0.077 C 
ATOM      9  C   UNL     1      34.926 -17.654 -23.511  0.00  0.00    -0.048 C 
ATOM     10  C   UNL     1      34.944 -16.792 -24.748  0.00  0.00    -0.055 C 
ATOM     11  C   UNL     1      34.526 -17.971 -21.145  0.00  0.00    +0.010 C 
ATOM     12  C   UNL     1      35.351 -18.988 -23.601  0.00  0.00    -0.005 C 
ATOM     13  C   UNL     1      34.939 -19.301 -21.250  0.00  0.00    +0.050 C 
ATOM     14  C   UNL     1      35.357 -19.807 -22.475  0.00  0.00    +0.014 C 
ATOM     15  H   UNL     1      34.252 -15.000 -25.449  0.00  0.00    -0.084 HD
ATOM     16  H   UNL     1      33.120 -15.886 -24.599  0.00  0.00    -0.084 HD
BRANCH   6  17
ATOM     17  C   UNL     1      34.571 -14.943 -20.929  0.00  0.00    +0.002 C 
ATOM     18  C   UNL     1      33.461 -14.165 -20.256  0.00  0.00    +0.000 C 
ENDBRANCH   6  17
ENDBRANCH   2  13
BRANCH   3  19
ATOM     19  C   UNL     1      35.476 -21.926 -18.570  0.00  0.00    +0.054 C 
ATOM     20  C   UNL     1      33.922 -23.005 -17.083  0.00  0.00    +0.000 C 
ATOM     21  C   UNL     1      34.978 -23.222 -16.165  0.00  0.00    +0.000 C 
ATOM     22  C   UNL     1      34.191 -22.348 -18.296  0.00  0.00    +0.005 C 
ATOM     23  C   UNL     1      36.519 -22.125 -17.694  0.00  0.00    +0.005 C 
ATOM     24  C   UNL     1      36.270 -22.776 -16.486  0.00  0.00    +0.000 C 
ATOM     25  C   UNL     1      34.709 -23.878 -14.952  0.00  0.00    +0.003 C 
ATOM     26  C   UNL     1      32.630 -23.450 -16.762  0.00  0.00    +0.000 C 
ATOM     27  C   UNL     1      33.419 -24.314 -14.650  0.00  0.00    +0.031 C 
ATOM     28  C   UNL     1      32.382 -24.100 -15.554  0.00  0.00    +0.003 C 
BRANCH  27  31
ATOM     29  N   UNL     1      31.969 -25.687 -13.175  0.00  0.00    -0.343 N 
ATOM     30  N   UNL     1      34.055 -24.953 -12.423  0.00  0.00    -0.285 NA
ATOM     31  C   UNL     1      33.157 -24.992 -13.391  0.00  0.00    +0.117 C 
ATOM     32  H   UNL     1      31.812 -26.139 -12.315  0.00  0.00    +0.144 HD
ATOM     33  H   UNL     1      31.285 -25.726 -13.883  0.00  0.00    +0.144 HD
ATOM     34  H   UNL     1      33.880 -25.411 -11.569  0.00  0.00    +0.188 HD
ENDBRANCH  27  31
ENDBRANCH   3  19
TORSDOF 4
ENDMDL
MODEL 7
REMARK VINA RESULT:     -10.7      9.313     16.171
REMARK  Name = 447731
REMARK  4 active torsions:
REMARK  status: ('A' for Active; 'I' for Inactive)
REMARK    1  A    between atoms: N_2  and  C_13
REMARK    2  A    between atoms: C_3  and  C_19
REMARK    3  A    between atoms: C_6  and  C_17
REMARK    4  A    between atoms: C_27  and  C_31
REMARK                            x       y       z     vdW  Elec       q    Type
REMARK                         _______ _______ _______ _____ _____    ______ ____
ROOT
ATOM      1  O   UNL     1      30.965 -10.601 -21.649  0.00  0.00    -0.270 OA
ATOM      2  N   UNL     1      32.643  -9.497 -22.873  0.00  0.00    -0.280 N 
ATOM      3  C   UNL     1      32.022 -10.600 -22.272  0.00  0.00    +0.249 C 
ATOM      4  H   UNL     1      33.494  -9.679 -23.335  0.00  0.00    +0.155 HD
ENDROOT
BRANCH   2  13
ATOM      5  N   UNL     1      31.833  -3.131 -23.470  0.00  0.00    +0.387 N 
ATOM      6  C   UNL     1      33.111  -4.883 -24.652  0.00  0.00    +0.001 C 
ATOM      7  C   UNL     1      32.407  -5.909 -23.776  0.00  0.00    -0.029 C 
ATOM      8  C   UNL     1      32.299  -3.579 -24.780  0.00  0.00    -0.077 C 
ATOM      9  C   UNL     1      31.351  -5.508 -22.932  0.00  0.00    -0.048 C 
ATOM     10  C   UNL     1      30.856  -4.083 -22.935  0.00  0.00    -0.055 C 
ATOM     11  C   UNL     1      32.838  -7.245 -23.727  0.00  0.00    +0.010 C 
ATOM     12  C   UNL     1      30.714  -6.451 -22.112  0.00  0.00    -0.005 C 
ATOM     13  C   UNL     1      32.205  -8.172 -22.897  0.00  0.00    +0.050 C 
ATOM     14  C   UNL     1      31.140  -7.776 -22.094  0.00  0.00    +0.014 C 
ATOM     15  H   UNL     1      31.395  -2.214 -23.562  0.00  0.00    -0.084 HD
ATOM     16  H   UNL     1      32.628  -3.072 -22.833  0.00  0.00    -0.084 HD
BRANCH   6  17
ATOM     17  C   UNL     1      33.437  -5.396 -26.060  0.00  0.00    +0.002 C 
ATOM     18  C   UNL     1      34.883  -5.129 -26.417  0.00  0.00    +0.000 C 
ENDBRANCH   6  17
ENDBRANCH   2  13
BRANCH   3  19
ATOM     19  C   UNL     1      32.754 -11.888 -22.394  0.00  0.00    +0.054 C 
ATOM     20  C   UNL     1      33.399 -14.001 -21.443  0.00  0.00    +0.000 C 
ATOM     21  C   UNL     1      34.121 -14.294 -22.625  0.00  0.00    +0.000 C 
ATOM     22  C   UNL     1      32.712 -12.779 -21.343  0.00  0.00    +0.005 C 
ATOM     23  C   UNL     1      33.449 -12.148 -23.553  0.00  0.00    +0.005 C 
ATOM     24  C   UNL     1      34.136 -13.356 -23.670  0.00  0.00    +0.000 C 
ATOM     25  C   UNL     1      34.808 -15.515 -22.725  0.00  0.00    +0.003 C 
ATOM     26  C   UNL     1      33.384 -14.938 -20.397  0.00  0.00    +0.000 C 
ATOM     27  C   UNL     1      34.783 -16.434 -21.676  0.00  0.00    +0.031 C 
ATOM     28  C   UNL     1      34.071 -16.146 -20.515  0.00  0.00    +0.003 C 
BRANCH  27  31
ATOM     29  N   UNL     1      35.739 -18.499 -20.685  0.00  0.00    -0.343 N 
ATOM     30  N   UNL     1      35.939 -18.091 -22.976  0.00  0.00    -0.285 NA
ATOM     31  C   UNL     1      35.499 -17.694 -21.796  0.00  0.00    +0.117 C 
ATOM     32  H   UNL     1      36.226 -19.349 -20.788  0.00  0.00    +0.144 HD
ATOM     33  H   UNL     1      35.422 -18.220 -19.795  0.00  0.00    +0.144 HD
ATOM     34  H   UNL     1      36.424 -18.944 -23.059  0.00  0.00    +0.188 HD
ENDBRANCH  27  31
ENDBRANCH   3  19
TORSDOF 4
ENDMDL
MODEL 8
REMARK VINA RESULT:     -10.7      8.676     15.455
REMARK  Name = 447731
REMARK  4 active torsions:
REMARK  status: ('A' for Active; 'I' for Inactive)
REMARK    1  A    between atoms: N_2  and  C_13
REMARK    2  A    between atoms: C_3  and  C_19
REMARK    3  A    between atoms: C_6  and  C_17
REMARK    4  A    between atoms: C_27  and  C_31
REMARK                            x       y       z     vdW  Elec       q    Type
REMARK                         _______ _______ _______ _____ _____    ______ ____
ROOT
ATOM      1  O   UNL     1      30.517 -11.257 -21.354  0.00  0.00    -0.270 OA
ATOM      2  N   UNL     1      32.446 -10.380 -22.376  0.00  0.00    -0.280 N 
ATOM      3  C   UNL     1      31.673 -11.367 -21.751  0.00  0.00    +0.249 C 
ATOM      4  H   UNL     1      33.360 -10.644 -22.630  0.00  0.00    +0.155 HD
ENDROOT
BRANCH   2  13
ATOM      5  N   UNL     1      32.060  -4.086 -23.711  0.00  0.00    +0.387 N 
ATOM      6  C   UNL     1      33.708  -5.889 -24.082  0.00  0.00    +0.001 C 
ATOM      7  C   UNL     1      32.677  -6.867 -23.538  0.00  0.00    -0.029 C 
ATOM      8  C   UNL     1      33.052  -4.613 -24.646  0.00  0.00    -0.077 C 
ATOM      9  C   UNL     1      31.362  -6.431 -23.278  0.00  0.00    -0.048 C 
ATOM     10  C   UNL     1      30.936  -5.020 -23.598  0.00  0.00    -0.055 C 
ATOM     11  C   UNL     1      33.025  -8.188 -23.211  0.00  0.00    +0.010 C 
ATOM     12  C   UNL     1      30.416  -7.328 -22.760  0.00  0.00    -0.005 C 
ATOM     13  C   UNL     1      32.079  -9.068 -22.684  0.00  0.00    +0.050 C 
ATOM     14  C   UNL     1      30.774  -8.641 -22.464  0.00  0.00    +0.014 C 
ATOM     15  H   UNL     1      31.719  -3.187 -24.051  0.00  0.00    -0.084 HD
ATOM     16  H   UNL     1      32.492  -3.969 -22.795  0.00  0.00    -0.084 HD
BRANCH   6  17
ATOM     17  C   UNL     1      34.616  -6.489 -25.161  0.00  0.00    +0.002 C 
ATOM     18  C   UNL     1      35.215  -5.408 -26.035  0.00  0.00    +0.000 C 
ENDBRANCH   6  17
ENDBRANCH   2  13
BRANCH   3  19
ATOM     19  C   UNL     1      32.356 -12.669 -21.533  0.00  0.00    +0.054 C 
ATOM     20  C   UNL     1      33.760 -14.435 -22.368  0.00  0.00    +0.000 C 
ATOM     21  C   UNL     1      33.633 -15.101 -21.125  0.00  0.00    +0.000 C 
ATOM     22  C   UNL     1      33.108 -13.205 -22.558  0.00  0.00    +0.005 C 
ATOM     23  C   UNL     1      32.217 -13.296 -20.316  0.00  0.00    +0.005 C 
ATOM     24  C   UNL     1      32.857 -14.518 -20.110  0.00  0.00    +0.000 C 
ATOM     25  C   UNL     1      34.284 -16.331 -20.935  0.00  0.00    +0.003 C 
ATOM     26  C   UNL     1      34.534 -15.018 -23.383  0.00  0.00    +0.000 C 
ATOM     27  C   UNL     1      35.050 -16.896 -21.955  0.00  0.00    +0.031 C 
ATOM     28  C   UNL     1      35.174 -16.240 -23.177  0.00  0.00    +0.003 C 
BRANCH  27  31
ATOM     29  N   UNL     1      35.253 -19.082 -20.797  0.00  0.00    -0.343 N 
ATOM     30  N   UNL     1      36.789 -18.477 -22.449  0.00  0.00    -0.285 NA
ATOM     31  C   UNL     1      35.718 -18.170 -21.742  0.00  0.00    +0.117 C 
ATOM     32  H   UNL     1      35.721 -19.939 -20.669  0.00  0.00    +0.144 HD
ATOM     33  H   UNL     1      34.457 -18.871 -20.257  0.00  0.00    +0.144 HD
ATOM     34  H   UNL     1      37.243 -19.339 -22.307  0.00  0.00    +0.188 HD
ENDBRANCH  27  31
ENDBRANCH   3  19
TORSDOF 4
ENDMDL
MODEL 9
REMARK VINA RESULT:     -10.6      9.344     14.269
REMARK  Name = 447731
REMARK  4 active torsions:
REMARK  status: ('A' for Active; 'I' for Inactive)
REMARK    1  A    between atoms: N_2  and  C_13
REMARK    2  A    between atoms: C_3  and  C_19
REMARK    3  A    between atoms: C_6  and  C_17
REMARK    4  A    between atoms: C_27  and  C_31
REMARK                            x       y       z     vdW  Elec       q    Type
REMARK                         _______ _______ _______ _____ _____    ______ ____
ROOT
ATOM      1  O   UNL     1      32.086 -11.181 -21.781  0.00  0.00    -0.270 OA
ATOM      2  N   UNL     1      33.502 -11.311 -23.655  0.00  0.00    -0.280 N 
ATOM      3  C   UNL     1      32.712 -10.660 -22.699  0.00  0.00    +0.249 C 
ATOM      4  H   UNL     1      33.936 -10.733 -24.324  0.00  0.00    +0.155 HD
ENDROOT
BRANCH   2  13
ATOM      5  N   UNL     1      35.381 -17.453 -23.116  0.00  0.00    +0.387 N 
ATOM      6  C   UNL     1      34.918 -15.588 -21.563  0.00  0.00    +0.001 C 
ATOM      7  C   UNL     1      34.421 -14.789 -22.759  0.00  0.00    -0.029 C 
ATOM      8  C   UNL     1      34.830 -17.108 -21.807  0.00  0.00    -0.077 C 
ATOM      9  C   UNL     1      34.276 -15.417 -24.013  0.00  0.00    -0.048 C 
ATOM     10  C   UNL     1      34.537 -16.893 -24.175  0.00  0.00    -0.055 C 
ATOM     11  C   UNL     1      34.176 -13.410 -22.664  0.00  0.00    +0.010 C 
ATOM     12  C   UNL     1      33.835 -14.676 -25.120  0.00  0.00    -0.005 C 
ATOM     13  C   UNL     1      33.750 -12.680 -23.776  0.00  0.00    +0.050 C 
ATOM     14  C   UNL     1      33.574 -13.313 -25.001  0.00  0.00    +0.014 C 
ATOM     15  H   UNL     1      35.415 -18.468 -23.212  0.00  0.00    -0.084 HD
ATOM     16  H   UNL     1      36.322 -17.067 -23.197  0.00  0.00    -0.084 HD
BRANCH   6  17
ATOM     17  C   UNL     1      34.186 -15.260 -20.257  0.00  0.00    +0.002 C 
ATOM     18  C   UNL     1      32.686 -15.373 -20.428  0.00  0.00    +0.000 C 
ENDBRANCH   6  17
ENDBRANCH   2  13
BRANCH   3  19
ATOM     19  C   UNL     1      32.618  -9.184 -22.849  0.00  0.00    +0.054 C 
ATOM     20  C   UNL     1      31.417  -7.136 -22.461  0.00  0.00    +0.000 C 
ATOM     21  C   UNL     1      32.443  -6.427 -23.130  0.00  0.00    +0.000 C 
ATOM     22  C   UNL     1      31.521  -8.531 -22.327  0.00  0.00    +0.005 C 
ATOM     23  C   UNL     1      33.628  -8.518 -23.504  0.00  0.00    +0.005 C 
ATOM     24  C   UNL     1      33.542  -7.133 -23.646  0.00  0.00    +0.000 C 
ATOM     25  C   UNL     1      32.339  -5.032 -23.265  0.00  0.00    +0.003 C 
ATOM     26  C   UNL     1      30.318  -6.430 -21.946  0.00  0.00    +0.000 C 
ATOM     27  C   UNL     1      31.240  -4.347 -22.747  0.00  0.00    +0.031 C 
ATOM     28  C   UNL     1      30.232  -5.045 -22.088  0.00  0.00    +0.003 C 
BRANCH  27  31
ATOM     29  N   UNL     1      30.193  -2.164 -22.200  0.00  0.00    -0.343 N 
ATOM     30  N   UNL     1      31.978  -2.270 -23.702  0.00  0.00    -0.285 NA
ATOM     31  C   UNL     1      31.148  -2.904 -22.894  0.00  0.00    +0.117 C 
ATOM     32  H   UNL     1      30.148  -1.187 -22.314  0.00  0.00    +0.144 HD
ATOM     33  H   UNL     1      29.563  -2.618 -21.594  0.00  0.00    +0.144 HD
ATOM     34  H   UNL     1      31.917  -1.293 -23.804  0.00  0.00    +0.188 HD
ENDBRANCH  27  31
ENDBRANCH   3  19
TORSDOF 4
ENDMDL
