MODEL 1
REMARK VINA RESULT:     -11.6      0.000      0.000
REMARK  Name = 3351
REMARK  5 active torsions:
REMARK  status: ('A' for Active; 'I' for Inactive)
REMARK    1  A    between atoms: N_2  and  C_10
REMARK    2  A    between atoms: C_8  and  C_20
REMARK    3  A    between atoms: C_10  and  C_13
REMARK    4  A    between atoms: C_20  and  O_21
REMARK    5  A    between atoms: O_21  and  C_23
REMARK                            x       y       z     vdW  Elec       q    Type
REMARK                         _______ _______ _______ _____ _____    ______ ____
ROOT
ATOM      1  O   UNL     1      35.326 -17.466 -23.561  0.00  0.00    -0.271 OA
ATOM      2  N   UNL     1      32.855 -13.625 -21.546  0.00  0.00    +0.392 N 
ATOM      3  N   UNL     1      34.580 -15.853 -22.065  0.00  0.00    -0.281 N 
ATOM      4  C   UNL     1      32.941 -14.204 -22.895  0.00  0.00    -0.055 C 
ATOM      5  C   UNL     1      33.053 -14.665 -20.527  0.00  0.00    -0.055 C 
ATOM      6  C   UNL     1      34.298 -14.872 -23.112  0.00  0.00    +0.071 C 
ATOM      7  C   UNL     1      34.411 -15.350 -20.699  0.00  0.00    +0.071 C 
ATOM      8  C   UNL     1      35.087 -17.106 -22.405  0.00  0.00    +0.270 C 
ATOM      9  H   UNL     1      33.596 -12.930 -21.446  0.00  0.00    -0.079 HD
ENDROOT
BRANCH   2  10
ATOM     10  C   UNL     1      31.569 -12.957 -21.354  0.00  0.00    -0.050 C 
BRANCH  10  13
ATOM     11  O   UNL     1      32.173  -8.064 -21.631  0.00  0.00    -0.435 OA
ATOM     12  O   UNL     1      32.186  -7.814 -19.234  0.00  0.00    -0.435 OA
ATOM     13  C   UNL     1      31.733 -11.588 -20.749  0.00  0.00    -0.040 C 
ATOM     14  C   UNL     1      31.874 -10.486 -21.587  0.00  0.00    +0.034 C 
ATOM     15  C   UNL     1      31.739 -11.454 -19.356  0.00  0.00    -0.003 C 
ATOM     16  C   UNL     1      32.021  -9.252 -20.987  0.00  0.00    +0.176 C 
ATOM     17  C   UNL     1      32.029  -9.110 -19.618  0.00  0.00    +0.176 C 
ATOM     18  C   UNL     1      31.890 -10.192 -18.774  0.00  0.00    +0.040 C 
ATOM     19  C   UNL     1      32.277  -7.157 -20.516  0.00  0.00    +0.429 C 
ENDBRANCH  10  13
ENDBRANCH   2  10
BRANCH   8  20
ATOM     20  C   UNL     1      35.345 -18.061 -21.268  0.00  0.00    +0.290 C 
BRANCH  20  21
ATOM     21  O   UNL     1      34.921 -19.330 -21.703  0.00  0.00    -0.466 OA
BRANCH  21  23
ATOM     22 CL   UNL     1      33.726 -23.343 -17.586  0.00  0.00    -0.082 Cl
ATOM     23  C   UNL     1      34.642 -20.269 -20.736  0.00  0.00    +0.139 C 
ATOM     24  C   UNL     1      35.682 -20.969 -20.145  0.00  0.00    +0.038 C 
ATOM     25  C   UNL     1      33.323 -20.500 -20.372  0.00  0.00    +0.038 C 
ATOM     26  C   UNL     1      35.399 -21.923 -19.167  0.00  0.00    +0.015 C 
ATOM     27  C   UNL     1      33.040 -21.454 -19.394  0.00  0.00    +0.015 C 
ATOM     28  C   UNL     1      34.076 -22.165 -18.792  0.00  0.00    +0.058 C 
ENDBRANCH  21  23
ENDBRANCH  20  21
ENDBRANCH   8  20
TORSDOF 5
ENDMDL
MODEL 2
REMARK VINA RESULT:     -10.6      3.763      9.689
REMARK  Name = 3351
REMARK  5 active torsions:
REMARK  status: ('A' for Active; 'I' for Inactive)
REMARK    1  A    between atoms: N_2  and  C_10
REMARK    2  A    between atoms: C_8  and  C_20
REMARK    3  A    between atoms: C_10  and  C_13
REMARK    4  A    between atoms: C_20  and  O_21
REMARK    5  A    between atoms: O_21  and  C_23
REMARK                            x       y       z     vdW  Elec       q    Type
REMARK                         _______ _______ _______ _____ _____    ______ ____
ROOT
ATOM      1  O   UNL     1      34.577 -16.807 -25.247  0.00  0.00    -0.271 OA
ATOM      2  N   UNL     1      35.605 -19.664 -21.285  0.00  0.00    +0.392 N 
ATOM      3  N   UNL     1      34.747 -17.591 -23.067  0.00  0.00    -0.281 N 
ATOM      4  C   UNL     1      35.699 -19.846 -22.741  0.00  0.00    -0.055 C 
ATOM      5  C   UNL     1      35.797 -18.251 -20.929  0.00  0.00    -0.055 C 
ATOM      6  C   UNL     1      34.653 -18.996 -23.461  0.00  0.00    +0.071 C 
ATOM      7  C   UNL     1      34.757 -17.366 -21.619  0.00  0.00    +0.071 C 
ATOM      8  C   UNL     1      34.698 -16.592 -24.038  0.00  0.00    +0.270 C 
ATOM      9  H   UNL     1      34.672 -19.948 -20.985  0.00  0.00    -0.079 HD
ENDROOT
BRANCH   2  10
ATOM     10  C   UNL     1      36.584 -20.505 -20.598  0.00  0.00    -0.050 C 
BRANCH  10  13
ATOM     11  O   UNL     1      32.786 -22.764 -18.396  0.00  0.00    -0.435 OA
ATOM     12  O   UNL     1      34.133 -23.449 -16.518  0.00  0.00    -0.435 OA
ATOM     13  C   UNL     1      35.958 -21.298 -19.482  0.00  0.00    -0.040 C 
ATOM     14  C   UNL     1      34.607 -21.624 -19.555  0.00  0.00    +0.034 C 
ATOM     15  C   UNL     1      36.749 -21.690 -18.396  0.00  0.00    -0.003 C 
ATOM     16  C   UNL     1      34.078 -22.353 -18.508  0.00  0.00    +0.176 C 
ATOM     17  C   UNL     1      34.847 -22.743 -17.437  0.00  0.00    +0.176 C 
ATOM     18  C   UNL     1      36.187 -22.427 -17.350  0.00  0.00    +0.040 C 
ATOM     19  C   UNL     1      32.827 -23.459 -17.133  0.00  0.00    +0.429 C 
ENDBRANCH  10  13
ENDBRANCH   2  10
BRANCH   8  20
ATOM     20  C   UNL     1      34.807 -15.170 -23.549  0.00  0.00    +0.290 C 
BRANCH  20  21
ATOM     21  O   UNL     1      33.530 -14.598 -23.688  0.00  0.00    -0.466 OA
BRANCH  21  23
ATOM     22 CL   UNL     1      31.323 -11.784 -19.030  0.00  0.00    -0.082 Cl
ATOM     23  C   UNL     1      33.011 -13.938 -22.596  0.00  0.00    +0.139 C 
ATOM     24  C   UNL     1      32.662 -12.601 -22.711  0.00  0.00    +0.038 C 
ATOM     25  C   UNL     1      32.847 -14.623 -21.401  0.00  0.00    +0.038 C 
ATOM     26  C   UNL     1      32.138 -11.932 -21.604  0.00  0.00    +0.015 C 
ATOM     27  C   UNL     1      32.323 -13.954 -20.295  0.00  0.00    +0.015 C 
ATOM     28  C   UNL     1      31.968 -12.610 -20.395  0.00  0.00    +0.058 C 
ENDBRANCH  21  23
ENDBRANCH  20  21
ENDBRANCH   8  20
TORSDOF 5
ENDMDL
MODEL 3
REMARK VINA RESULT:     -10.5      4.048     10.203
REMARK  Name = 3351
REMARK  5 active torsions:
REMARK  status: ('A' for Active; 'I' for Inactive)
REMARK    1  A    between atoms: N_2  and  C_10
REMARK    2  A    between atoms: C_8  and  C_20
REMARK    3  A    between atoms: C_10  and  C_13
REMARK    4  A    between atoms: C_20  and  O_21
REMARK    5  A    between atoms: O_21  and  C_23
REMARK                            x       y       z     vdW  Elec       q    Type
REMARK                         _______ _______ _______ _____ _____    ______ ____
ROOT
ATOM      1  O   UNL     1      33.468 -13.358 -25.201  0.00  0.00    -0.271 OA
ATOM      2  N   UNL     1      35.019 -17.379 -22.683  0.00  0.00    +0.392 N 
ATOM      3  N   UNL     1      33.813 -14.917 -23.513  0.00  0.00    -0.281 N 
ATOM      4  C   UNL     1      35.099 -16.945 -24.085  0.00  0.00    -0.055 C 
ATOM      5  C   UNL     1      35.009 -16.216 -21.784  0.00  0.00    -0.055 C 
ATOM      6  C   UNL     1      33.918 -16.043 -24.441  0.00  0.00    +0.071 C 
ATOM      7  C   UNL     1      33.829 -15.292 -22.097  0.00  0.00    +0.071 C 
ATOM      8  C   UNL     1      33.590 -13.631 -24.004  0.00  0.00    +0.270 C 
ATOM      9  H   UNL     1      34.147 -17.894 -22.554  0.00  0.00    -0.079 HD
ENDROOT
BRANCH   2  10
ATOM     10  C   UNL     1      36.131 -18.270 -22.357  0.00  0.00    -0.050 C 
BRANCH  10  13
ATOM     11  O   UNL     1      32.803 -21.050 -19.994  0.00  0.00    -0.435 OA
ATOM     12  O   UNL     1      34.496 -22.195 -18.717  0.00  0.00    -0.435 OA
ATOM     13  C   UNL     1      35.728 -19.332 -21.369  0.00  0.00    -0.040 C 
ATOM     14  C   UNL     1      34.379 -19.636 -21.209  0.00  0.00    +0.034 C 
ATOM     15  C   UNL     1      36.718 -19.991 -20.632  0.00  0.00    -0.003 C 
ATOM     16  C   UNL     1      34.058 -20.616 -20.292  0.00  0.00    +0.176 C 
ATOM     17  C   UNL     1      35.025 -21.269 -19.563  0.00  0.00    +0.176 C 
ATOM     18  C   UNL     1      36.366 -20.979 -19.709  0.00  0.00    +0.040 C 
ATOM     19  C   UNL     1      33.088 -22.051 -18.996  0.00  0.00    +0.429 C 
ENDBRANCH  10  13
ENDBRANCH   2  10
BRANCH   8  20
ATOM     20  C   UNL     1      33.500 -12.525 -22.983  0.00  0.00    +0.290 C 
BRANCH  20  21
ATOM     21  O   UNL     1      33.505 -11.315 -23.699  0.00  0.00    -0.466 OA
BRANCH  21  23
ATOM     22 CL   UNL     1      32.243  -6.418 -20.714  0.00  0.00    -0.082 Cl
ATOM     23  C   UNL     1      33.209 -10.166 -23.000  0.00  0.00    +0.139 C 
ATOM     24  C   UNL     1      33.991  -9.036 -23.183  0.00  0.00    +0.038 C 
ATOM     25  C   UNL     1      32.132 -10.159 -22.125  0.00  0.00    +0.038 C 
ATOM     26  C   UNL     1      33.692  -7.872 -22.474  0.00  0.00    +0.015 C 
ATOM     27  C   UNL     1      31.833  -8.996 -21.416  0.00  0.00    +0.015 C 
ATOM     28  C   UNL     1      32.612  -7.853 -21.590  0.00  0.00    +0.058 C 
ENDBRANCH  21  23
ENDBRANCH  20  21
ENDBRANCH   8  20
TORSDOF 5
ENDMDL
MODEL 4
REMARK VINA RESULT:     -10.5      5.612      8.055
REMARK  Name = 3351
REMARK  5 active torsions:
REMARK  status: ('A' for Active; 'I' for Inactive)
REMARK    1  A    between atoms: N_2  and  C_10
REMARK    2  A    between atoms: C_8  and  C_20
REMARK    3  A    between atoms: C_10  and  C_13
REMARK    4  A    between atoms: C_20  and  O_21
REMARK    5  A    between atoms: O_21  and  C_23
REMARK                            x       y       z     vdW  Elec       q    Type
REMARK                         _______ _______ _______ _____ _____    ______ ____
ROOT
ATOM      1  O   UNL     1      31.777 -22.637 -17.339  0.00  0.00    -0.271 OA
ATOM      2  N   UNL     1      35.063 -20.751 -20.589  0.00  0.00    +0.392 N 
ATOM      3  N   UNL     1      33.596 -22.403 -18.766  0.00  0.00    -0.281 N 
ATOM      4  C   UNL     1      33.779 -20.295 -20.038  0.00  0.00    -0.055 C 
ATOM      5  C   UNL     1      35.771 -21.593 -19.614  0.00  0.00    -0.055 C 
ATOM      6  C   UNL     1      32.897 -21.486 -19.665  0.00  0.00    +0.071 C 
ATOM      7  C   UNL     1      34.927 -22.809 -19.226  0.00  0.00    +0.071 C 
ATOM      8  C   UNL     1      32.941 -22.909 -17.644  0.00  0.00    +0.270 C 
ATOM      9  H   UNL     1      34.877 -21.309 -21.422  0.00  0.00    -0.079 HD
ENDROOT
BRANCH   2  10
ATOM     10  C   UNL     1      35.891 -19.609 -20.976  0.00  0.00    -0.050 C 
BRANCH  10  13
ATOM     11  O   UNL     1      34.872 -15.670 -23.773  0.00  0.00    -0.435 OA
ATOM     12  O   UNL     1      34.032 -17.025 -25.580  0.00  0.00    -0.435 OA
ATOM     13  C   UNL     1      35.383 -18.948 -22.230  0.00  0.00    -0.040 C 
ATOM     14  C   UNL     1      35.408 -17.560 -22.325  0.00  0.00    +0.034 C 
ATOM     15  C   UNL     1      34.897 -19.745 -23.273  0.00  0.00    -0.003 C 
ATOM     16  C   UNL     1      34.932 -16.999 -23.493  0.00  0.00    +0.176 C 
ATOM     17  C   UNL     1      34.452 -17.774 -24.524  0.00  0.00    +0.176 C 
ATOM     18  C   UNL     1      34.421 -19.151 -24.445  0.00  0.00    +0.040 C 
ATOM     19  C   UNL     1      34.302 -15.693 -25.097  0.00  0.00    +0.429 C 
ENDBRANCH  10  13
ENDBRANCH   2  10
BRANCH   8  20
ATOM     20  C   UNL     1      33.733 -23.844 -16.765  0.00  0.00    +0.290 C 
BRANCH  20  21
ATOM     21  O   UNL     1      34.575 -23.040 -15.977  0.00  0.00    -0.466 OA
BRANCH  21  23
ATOM     22 CL   UNL     1      39.439 -25.531 -13.829  0.00  0.00    -0.082 Cl
ATOM     23  C   UNL     1      35.716 -23.622 -15.472  0.00  0.00    +0.139 C 
ATOM     24  C   UNL     1      36.951 -23.060 -15.755  0.00  0.00    +0.038 C 
ATOM     25  C   UNL     1      35.609 -24.763 -14.690  0.00  0.00    +0.038 C 
ATOM     26  C   UNL     1      38.107 -23.652 -15.245  0.00  0.00    +0.015 C 
ATOM     27  C   UNL     1      36.765 -25.355 -14.180  0.00  0.00    +0.015 C 
ATOM     28  C   UNL     1      38.013 -24.800 -14.457  0.00  0.00    +0.058 C 
ENDBRANCH  21  23
ENDBRANCH  20  21
ENDBRANCH   8  20
TORSDOF 5
ENDMDL
MODEL 5
REMARK VINA RESULT:     -10.5      5.751     11.831
REMARK  Name = 3351
REMARK  5 active torsions:
REMARK  status: ('A' for Active; 'I' for Inactive)
REMARK    1  A    between atoms: N_2  and  C_10
REMARK    2  A    between atoms: C_8  and  C_20
REMARK    3  A    between atoms: C_10  and  C_13
REMARK    4  A    between atoms: C_20  and  O_21
REMARK    5  A    between atoms: O_21  and  C_23
REMARK                            x       y       z     vdW  Elec       q    Type
REMARK                         _______ _______ _______ _____ _____    ______ ____
ROOT
ATOM      1  O   UNL     1      36.938 -19.935 -20.095  0.00  0.00    -0.271 OA
ATOM      2  N   UNL     1      34.863 -23.334 -17.087  0.00  0.00    +0.392 N 
ATOM      3  N   UNL     1      35.586 -21.639 -19.280  0.00  0.00    -0.281 N 
ATOM      4  C   UNL     1      36.016 -22.429 -16.980  0.00  0.00    -0.055 C 
ATOM      5  C   UNL     1      33.825 -22.747 -17.947  0.00  0.00    -0.055 C 
ATOM      6  C   UNL     1      36.607 -22.141 -18.360  0.00  0.00    +0.071 C 
ATOM      7  C   UNL     1      34.373 -22.457 -19.346  0.00  0.00    +0.071 C 
ATOM      8  C   UNL     1      35.863 -20.539 -20.091  0.00  0.00    +0.270 C 
ATOM      9  H   UNL     1      35.176 -24.208 -17.511  0.00  0.00    -0.079 HD
ENDROOT
BRANCH   2  10
ATOM     10  C   UNL     1      34.322 -23.635 -15.762  0.00  0.00    -0.050 C 
BRANCH  10  13
ATOM     11  O   UNL     1      37.672 -23.334 -12.148  0.00  0.00    -0.435 OA
ATOM     12  O   UNL     1      38.224 -25.674 -12.307  0.00  0.00    -0.435 OA
ATOM     13  C   UNL     1      35.366 -24.218 -14.848  0.00  0.00    -0.040 C 
ATOM     14  C   UNL     1      35.998 -23.392 -13.923  0.00  0.00    +0.034 C 
ATOM     15  C   UNL     1      35.680 -25.578 -14.950  0.00  0.00    -0.003 C 
ATOM     16  C   UNL     1      36.949 -23.971 -13.108  0.00  0.00    +0.176 C 
ATOM     17  C   UNL     1      37.264 -25.308 -13.199  0.00  0.00    +0.176 C 
ATOM     18  C   UNL     1      36.647 -26.139 -14.111  0.00  0.00    +0.040 C 
ATOM     19  C   UNL     1      38.478 -24.418 -11.644  0.00  0.00    +0.429 C 
ENDBRANCH  10  13
ENDBRANCH   2  10
BRANCH   8  20
ATOM     20  C   UNL     1      34.756 -20.082 -21.007  0.00  0.00    +0.290 C 
BRANCH  20  21
ATOM     21  O   UNL     1      35.374 -19.438 -22.094  0.00  0.00    -0.466 OA
BRANCH  21  23
ATOM     22 CL   UNL     1      34.294 -13.710 -22.803  0.00  0.00    -0.082 Cl
ATOM     23  C   UNL     1      35.122 -18.094 -22.260  0.00  0.00    +0.139 C 
ATOM     24  C   UNL     1      34.877 -17.305 -21.147  0.00  0.00    +0.038 C 
ATOM     25  C   UNL     1      35.117 -17.555 -23.538  0.00  0.00    +0.038 C 
ATOM     26  C   UNL     1      34.620 -15.944 -21.315  0.00  0.00    +0.015 C 
ATOM     27  C   UNL     1      34.860 -16.194 -23.706  0.00  0.00    +0.015 C 
ATOM     28  C   UNL     1      34.612 -15.388 -22.596  0.00  0.00    +0.058 C 
ENDBRANCH  21  23
ENDBRANCH  20  21
ENDBRANCH   8  20
TORSDOF 5
ENDMDL
MODEL 6
REMARK VINA RESULT:     -10.4      3.961     10.336
REMARK  Name = 3351
REMARK  5 active torsions:
REMARK  status: ('A' for Active; 'I' for Inactive)
REMARK    1  A    between atoms: N_2  and  C_10
REMARK    2  A    between atoms: C_8  and  C_20
REMARK    3  A    between atoms: C_10  and  C_13
REMARK    4  A    between atoms: C_20  and  O_21
REMARK    5  A    between atoms: O_21  and  C_23
REMARK                            x       y       z     vdW  Elec       q    Type
REMARK                         _______ _______ _______ _____ _____    ______ ____
ROOT
ATOM      1  O   UNL     1      32.175 -13.410 -19.820  0.00  0.00    -0.271 OA
ATOM      2  N   UNL     1      35.164 -16.600 -22.229  0.00  0.00    +0.392 N 
ATOM      3  N   UNL     1      33.682 -14.316 -21.338  0.00  0.00    -0.281 N 
ATOM      4  C   UNL     1      34.377 -16.659 -20.989  0.00  0.00    -0.055 C 
ATOM      5  C   UNL     1      34.525 -15.702 -23.202  0.00  0.00    -0.055 C 
ATOM      6  C   UNL     1      34.231 -15.268 -20.373  0.00  0.00    +0.071 C 
ATOM      7  C   UNL     1      34.375 -14.291 -22.629  0.00  0.00    +0.071 C 
ATOM      8  C   UNL     1      32.665 -13.444 -20.952  0.00  0.00    +0.270 C 
ATOM      9  H   UNL     1      36.089 -16.229 -22.006  0.00  0.00    -0.079 HD
ENDROOT
BRANCH   2  10
ATOM     10  C   UNL     1      35.331 -17.937 -22.796  0.00  0.00    -0.050 C 
BRANCH  10  13
ATOM     11  O   UNL     1      34.079 -21.613 -19.747  0.00  0.00    -0.435 OA
ATOM     12  O   UNL     1      36.312 -21.792 -18.860  0.00  0.00    -0.435 OA
ATOM     13  C   UNL     1      35.632 -18.963 -21.737  0.00  0.00    -0.040 C 
ATOM     14  C   UNL     1      34.611 -19.794 -21.286  0.00  0.00    +0.034 C 
ATOM     15  C   UNL     1      36.932 -19.059 -21.228  0.00  0.00    -0.003 C 
ATOM     16  C   UNL     1      34.934 -20.719 -20.313  0.00  0.00    +0.176 C 
ATOM     17  C   UNL     1      36.209 -20.821 -19.807  0.00  0.00    +0.176 C 
ATOM     18  C   UNL     1      37.232 -20.004 -20.243  0.00  0.00    +0.040 C 
ATOM     19  C   UNL     1      34.959 -22.290 -18.827  0.00  0.00    +0.429 C 
ENDBRANCH  10  13
ENDBRANCH   2  10
BRANCH   8  20
ATOM     20  C   UNL     1      32.151 -12.498 -22.007  0.00  0.00    +0.290 C 
BRANCH  20  21
ATOM     21  O   UNL     1      31.211 -11.664 -21.376  0.00  0.00    -0.466 OA
BRANCH  21  23
ATOM     22 CL   UNL     1      32.451  -5.932 -21.077  0.00  0.00    -0.082 Cl
ATOM     23  C   UNL     1      31.504 -10.320 -21.306  0.00  0.00    +0.139 C 
ATOM     24  C   UNL     1      31.808  -9.752 -20.078  0.00  0.00    +0.038 C 
ATOM     25  C   UNL     1      31.487  -9.558 -22.465  0.00  0.00    +0.038 C 
ATOM     26  C   UNL     1      32.102  -8.390 -20.007  0.00  0.00    +0.015 C 
ATOM     27  C   UNL     1      31.781  -8.196 -22.393  0.00  0.00    +0.015 C 
ATOM     28  C   UNL     1      32.089  -7.612 -21.165  0.00  0.00    +0.058 C 
ENDBRANCH  21  23
ENDBRANCH  20  21
ENDBRANCH   8  20
TORSDOF 5
ENDMDL
MODEL 7
REMARK VINA RESULT:     -10.4      8.085     13.357
REMARK  Name = 3351
REMARK  5 active torsions:
REMARK  status: ('A' for Active; 'I' for Inactive)
REMARK    1  A    between atoms: N_2  and  C_10
REMARK    2  A    between atoms: C_8  and  C_20
REMARK    3  A    between atoms: C_10  and  C_13
REMARK    4  A    between atoms: C_20  and  O_21
REMARK    5  A    between atoms: O_21  and  C_23
REMARK                            x       y       z     vdW  Elec       q    Type
REMARK                         _______ _______ _______ _____ _____    ______ ____
ROOT
ATOM      1  O   UNL     1      31.347 -23.992 -16.359  0.00  0.00    -0.271 OA
ATOM      2  N   UNL     1      34.932 -23.740 -12.895  0.00  0.00    +0.392 N 
ATOM      3  N   UNL     1      33.312 -23.457 -15.240  0.00  0.00    -0.281 N 
ATOM      4  C   UNL     1      33.579 -24.314 -12.940  0.00  0.00    -0.055 C 
ATOM      5  C   UNL     1      35.546 -23.764 -14.230  0.00  0.00    -0.055 C 
ATOM      6  C   UNL     1      32.695 -23.539 -13.917  0.00  0.00    +0.071 C 
ATOM      7  C   UNL     1      34.698 -22.983 -15.237  0.00  0.00    +0.071 C 
ATOM      8  C   UNL     1      32.546 -23.702 -16.379  0.00  0.00    +0.270 C 
ATOM      9  H   UNL     1      34.860 -22.769 -12.590  0.00  0.00    -0.079 HD
ENDROOT
BRANCH   2  10
ATOM     10  C   UNL     1      35.764 -24.462 -11.934  0.00  0.00    -0.050 C 
BRANCH  10  13
ATOM     11  O   UNL     1      40.426 -25.219 -13.376  0.00  0.00    -0.435 OA
ATOM     12  O   UNL     1      39.880 -27.315 -14.433  0.00  0.00    -0.435 OA
ATOM     13  C   UNL     1      36.846 -25.257 -12.615  0.00  0.00    -0.040 C 
ATOM     14  C   UNL     1      38.148 -24.765 -12.623  0.00  0.00    +0.034 C 
ATOM     15  C   UNL     1      36.519 -26.473 -13.226  0.00  0.00    -0.003 C 
ATOM     16  C   UNL     1      39.106 -25.529 -13.261  0.00  0.00    +0.176 C 
ATOM     17  C   UNL     1      38.794 -26.725 -13.864  0.00  0.00    +0.176 C 
ATOM     18  C   UNL     1      37.508 -27.226 -13.864  0.00  0.00    +0.040 C 
ATOM     19  C   UNL     1      40.911 -26.355 -14.120  0.00  0.00    +0.429 C 
ENDBRANCH  10  13
ENDBRANCH   2  10
BRANCH   8  20
ATOM     20  C   UNL     1      33.258 -23.603 -17.705  0.00  0.00    +0.290 C 
BRANCH  20  21
ATOM     21  O   UNL     1      32.709 -22.495 -18.374  0.00  0.00    -0.466 OA
BRANCH  21  23
ATOM     22 CL   UNL     1      36.339 -19.263 -21.671  0.00  0.00    -0.082 Cl
ATOM     23  C   UNL     1      33.561 -21.738 -19.148  0.00  0.00    +0.139 C 
ATOM     24  C   UNL     1      34.927 -21.959 -19.074  0.00  0.00    +0.038 C 
ATOM     25  C   UNL     1      33.036 -20.767 -19.989  0.00  0.00    +0.038 C 
ATOM     26  C   UNL     1      35.790 -21.191 -19.856  0.00  0.00    +0.015 C 
ATOM     27  C   UNL     1      33.899 -19.999 -20.771  0.00  0.00    +0.015 C 
ATOM     28  C   UNL     1      35.275 -20.211 -20.706  0.00  0.00    +0.058 C 
ENDBRANCH  21  23
ENDBRANCH  20  21
ENDBRANCH   8  20
TORSDOF 5
ENDMDL
MODEL 8
REMARK VINA RESULT:     -10.2      3.492      5.679
REMARK  Name = 3351
REMARK  5 active torsions:
REMARK  status: ('A' for Active; 'I' for Inactive)
REMARK    1  A    between atoms: N_2  and  C_10
REMARK    2  A    between atoms: C_8  and  C_20
REMARK    3  A    between atoms: C_10  and  C_13
REMARK    4  A    between atoms: C_20  and  O_21
REMARK    5  A    between atoms: O_21  and  C_23
REMARK                            x       y       z     vdW  Elec       q    Type
REMARK                         _______ _______ _______ _____ _____    ______ ____
ROOT
ATOM      1  O   UNL     1      32.019 -13.668 -19.815  0.00  0.00    -0.271 OA
ATOM      2  N   UNL     1      31.920  -8.747 -20.641  0.00  0.00    +0.392 N 
ATOM      3  N   UNL     1      31.755 -11.600 -20.839  0.00  0.00    -0.281 N 
ATOM      4  C   UNL     1      32.142  -9.590 -19.458  0.00  0.00    -0.055 C 
ATOM      5  C   UNL     1      32.376  -9.435 -21.857  0.00  0.00    -0.055 C 
ATOM      6  C   UNL     1      31.400 -10.919 -19.594  0.00  0.00    +0.071 C 
ATOM      7  C   UNL     1      31.645 -10.767 -22.040  0.00  0.00    +0.071 C 
ATOM      8  C   UNL     1      32.042 -12.964 -20.828  0.00  0.00    +0.270 C 
ATOM      9  H   UNL     1      30.918  -8.569 -20.728  0.00  0.00    -0.079 HD
ENDROOT
BRANCH   2  10
ATOM     10  C   UNL     1      32.602  -7.462 -20.492  0.00  0.00    -0.050 C 
BRANCH  10  13
ATOM     11  O   UNL     1      32.444  -4.264 -24.251  0.00  0.00    -0.435 OA
ATOM     12  O   UNL     1      30.274  -3.436 -23.606  0.00  0.00    -0.435 OA
ATOM     13  C   UNL     1      31.946  -6.380 -21.307  0.00  0.00    -0.040 C 
ATOM     14  C   UNL     1      32.605  -5.874 -22.423  0.00  0.00    +0.034 C 
ATOM     15  C   UNL     1      30.686  -5.906 -20.924  0.00  0.00    -0.003 C 
ATOM     16  C   UNL     1      31.964  -4.882 -23.138  0.00  0.00    +0.176 C 
ATOM     17  C   UNL     1      30.725  -4.410 -22.769  0.00  0.00    +0.176 C 
ATOM     18  C   UNL     1      30.059  -4.901 -21.666  0.00  0.00    +0.040 C 
ATOM     19  C   UNL     1      31.368  -3.349 -24.543  0.00  0.00    +0.429 C 
ENDBRANCH  10  13
ENDBRANCH   2  10
BRANCH   8  20
ATOM     20  C   UNL     1      32.404 -13.588 -22.152  0.00  0.00    +0.290 C 
BRANCH  20  21
ATOM     21  O   UNL     1      33.801 -13.745 -22.154  0.00  0.00    -0.466 OA
BRANCH  21  23
ATOM     22 CL   UNL     1      35.909 -19.209 -22.587  0.00  0.00    -0.082 Cl
ATOM     23  C   UNL     1      34.294 -15.027 -22.255  0.00  0.00    +0.139 C 
ATOM     24  C   UNL     1      34.498 -15.772 -21.104  0.00  0.00    +0.038 C 
ATOM     25  C   UNL     1      34.578 -15.551 -23.508  0.00  0.00    +0.038 C 
ATOM     26  C   UNL     1      34.999 -17.070 -21.206  0.00  0.00    +0.015 C 
ATOM     27  C   UNL     1      35.080 -16.849 -23.610  0.00  0.00    +0.015 C 
ATOM     28  C   UNL     1      35.290 -17.608 -22.461  0.00  0.00    +0.058 C 
ENDBRANCH  21  23
ENDBRANCH  20  21
ENDBRANCH   8  20
TORSDOF 5
ENDMDL
MODEL 9
REMARK VINA RESULT:     -10.1      7.636     11.237
REMARK  Name = 3351
REMARK  5 active torsions:
REMARK  status: ('A' for Active; 'I' for Inactive)
REMARK    1  A    between atoms: N_2  and  C_10
REMARK    2  A    between atoms: C_8  and  C_20
REMARK    3  A    between atoms: C_10  and  C_13
REMARK    4  A    between atoms: C_20  and  O_21
REMARK    5  A    between atoms: O_21  and  C_23
REMARK                            x       y       z     vdW  Elec       q    Type
REMARK                         _______ _______ _______ _____ _____    ______ ____
ROOT
ATOM      1  O   UNL     1      37.569 -21.830 -16.824  0.00  0.00    -0.271 OA
ATOM      2  N   UNL     1      33.687 -24.068 -14.625  0.00  0.00    +0.392 N 
ATOM      3  N   UNL     1      35.662 -23.107 -16.464  0.00  0.00    -0.281 N 
ATOM      4  C   UNL     1      34.836 -23.288 -14.144  0.00  0.00    -0.055 C 
ATOM      5  C   UNL     1      33.297 -23.632 -15.974  0.00  0.00    -0.055 C 
ATOM      6  C   UNL     1      36.028 -23.443 -15.088  0.00  0.00    +0.071 C 
ATOM      7  C   UNL     1      34.460 -23.786 -16.956  0.00  0.00    +0.071 C 
ATOM      8  C   UNL     1      36.502 -22.300 -17.229  0.00  0.00    +0.270 C 
ATOM      9  H   UNL     1      33.959 -25.051 -14.670  0.00  0.00    -0.079 HD
ENDROOT
BRANCH   2  10
ATOM     10  C   UNL     1      32.560 -23.945 -13.701  0.00  0.00    -0.050 C 
BRANCH  10  13
ATOM     11  O   UNL     1      28.888 -22.375 -16.604  0.00  0.00    -0.435 OA
ATOM     12  O   UNL     1      27.659 -24.434 -16.360  0.00  0.00    -0.435 OA
ATOM     13  C   UNL     1      31.238 -24.112 -14.402  0.00  0.00    -0.040 C 
ATOM     14  C   UNL     1      30.747 -23.071 -15.183  0.00  0.00    +0.034 C 
ATOM     15  C   UNL     1      30.533 -25.312 -14.253  0.00  0.00    -0.003 C 
ATOM     16  C   UNL     1      29.531 -23.269 -15.806  0.00  0.00    +0.176 C 
ATOM     17  C   UNL     1      28.830 -24.445 -15.666  0.00  0.00    +0.176 C 
ATOM     18  C   UNL     1      29.304 -25.487 -14.895  0.00  0.00    +0.040 C 
ATOM     19  C   UNL     1      27.703 -23.119 -16.952  0.00  0.00    +0.429 C 
ENDBRANCH  10  13
ENDBRANCH   2  10
BRANCH   8  20
ATOM     20  C   UNL     1      36.050 -21.996 -18.635  0.00  0.00    +0.290 C 
BRANCH  20  21
ATOM     21  O   UNL     1      36.789 -20.879 -19.063  0.00  0.00    -0.466 OA
BRANCH  21  23
ATOM     22 CL   UNL     1      34.868 -18.039 -23.831  0.00  0.00    -0.082 Cl
ATOM     23  C   UNL     1      36.340 -20.215 -20.182  0.00  0.00    +0.139 C 
ATOM     24  C   UNL     1      37.180 -19.319 -20.826  0.00  0.00    +0.038 C 
ATOM     25  C   UNL     1      35.054 -20.451 -20.645  0.00  0.00    +0.038 C 
ATOM     26  C   UNL     1      36.724 -18.644 -21.959  0.00  0.00    +0.015 C 
ATOM     27  C   UNL     1      34.597 -19.776 -21.777  0.00  0.00    +0.015 C 
ATOM     28  C   UNL     1      35.432 -18.873 -22.434  0.00  0.00    +0.058 C 
ENDBRANCH  21  23
ENDBRANCH  20  21
ENDBRANCH   8  20
TORSDOF 5
ENDMDL
