MODEL 1
REMARK VINA RESULT:     -11.5      0.000      0.000
REMARK  Name = 10050566
REMARK  9 active torsions:
REMARK  status: ('A' for Active; 'I' for Inactive)
REMARK    1  A    between atoms: C_2  and  N_11
REMARK    2  A    between atoms: C_3  and  O_22
REMARK    3  A    between atoms: C_12  and  C_14
REMARK    4  A    between atoms: C_19  and  O_20
REMARK    5  A    between atoms: O_22  and  C_24
REMARK    6  A    between atoms: C_24  and  C_25
REMARK    7  A    between atoms: C_30  and  C_32
REMARK    8  A    between atoms: C_32  and  C_33
REMARK    9  A    between atoms: C_34  and  O_39
REMARK                            x       y       z     vdW  Elec       q    Type
REMARK                         _______ _______ _______ _____ _____    ______ ____
ROOT
ATOM      1  N   UNL     1      32.474 -22.428 -14.278  0.00  0.00    +0.385 N 
ATOM      2  C   UNL     1      34.666 -23.240 -15.170  0.00  0.00    +0.091 C 
ATOM      3  C   UNL     1      34.067 -23.803 -16.471  0.00  0.00    +0.185 C 
ATOM      4  C   UNL     1      32.831 -24.697 -16.322  0.00  0.00    +0.043 C 
ATOM      5  C   UNL     1      33.719 -23.132 -13.970  0.00  0.00    -0.058 C 
ATOM      6  C   UNL     1      31.520 -23.962 -16.029  0.00  0.00    -0.020 C 
ATOM      7  C   UNL     1      31.405 -23.363 -14.632  0.00  0.00    -0.082 C 
ATOM      8  H   UNL     1      32.635 -21.797 -15.063  0.00  0.00    -0.084 HD
ATOM      9  H   UNL     1      32.185 -21.910 -13.448  0.00  0.00    -0.084 HD
ENDROOT
BRANCH   2  11
ATOM     10  O   UNL     1      37.422 -22.532 -15.539  0.00  0.00    -0.270 OA
ATOM     11  N   UNL     1      35.821 -24.028 -14.782  0.00  0.00    -0.301 N 
ATOM     12  C   UNL     1      37.114 -23.595 -15.006  0.00  0.00    +0.246 C 
ATOM     13  H   UNL     1      35.679 -24.900 -14.347  0.00  0.00    +0.150 HD
BRANCH  12  14
ATOM     14  C   UNL     1      38.186 -24.529 -14.575  0.00  0.00    +0.054 C 
ATOM     15  C   UNL     1      39.334 -24.620 -15.335  0.00  0.00    +0.008 C 
ATOM     16  C   UNL     1      38.001 -25.277 -13.431  0.00  0.00    +0.008 C 
ATOM     17  C   UNL     1      40.341 -25.497 -14.932  0.00  0.00    +0.037 C 
ATOM     18  C   UNL     1      39.008 -26.153 -13.028  0.00  0.00    +0.037 C 
ATOM     19  C   UNL     1      40.178 -26.263 -13.779  0.00  0.00    +0.134 C 
BRANCH  19  20
ATOM     20  O   UNL     1      41.161 -27.117 -13.384  0.00  0.00    -0.506 OA
ATOM     21  H   UNL     1      41.704 -26.899 -12.651  0.00  0.00    +0.292 HD
ENDBRANCH  19  20
ENDBRANCH  12  14
ENDBRANCH   2  11
BRANCH   3  22
ATOM     22  O   UNL     1      33.785 -22.725 -17.368  0.00  0.00    -0.448 OA
BRANCH  22  24
ATOM     23  O   UNL     1      33.644 -24.073 -19.228  0.00  0.00    -0.245 OA
ATOM     24  C   UNL     1      33.913 -23.011 -18.687  0.00  0.00    +0.341 C 
BRANCH  24  25
ATOM     25  C   UNL     1      34.444 -21.835 -19.421  0.00  0.00    +0.076 C 
ATOM     26  C   UNL     1      35.806 -21.612 -19.428  0.00  0.00    +0.007 C 
ATOM     27  C   UNL     1      33.559 -21.001 -20.073  0.00  0.00    +0.007 C 
ATOM     28  C   UNL     1      36.304 -20.506 -20.117  0.00  0.00    +0.003 C 
ATOM     29  C   UNL     1      34.057 -19.895 -20.762  0.00  0.00    +0.003 C 
ATOM     30  C   UNL     1      35.430 -19.648 -20.784  0.00  0.00    +0.039 C 
BRANCH  30  32
ATOM     31  O   UNL     1      37.072 -18.539 -22.027  0.00  0.00    -0.286 OA
ATOM     32  C   UNL     1      35.950 -18.495 -21.502  0.00  0.00    +0.198 C 
BRANCH  32  33
ATOM     33  C   UNL     1      35.176 -17.224 -21.641  0.00  0.00    +0.073 C 
ATOM     34  C   UNL     1      34.954 -16.698 -22.893  0.00  0.00    +0.137 C 
ATOM     35  C   UNL     1      34.712 -16.627 -20.491  0.00  0.00    +0.006 C 
ATOM     36  C   UNL     1      34.230 -15.512 -23.001  0.00  0.00    +0.037 C 
ATOM     37  C   UNL     1      33.987 -15.441 -20.598  0.00  0.00    +0.000 C 
ATOM     38  C   UNL     1      33.747 -14.883 -21.854  0.00  0.00    +0.003 C 
BRANCH  34  39
ATOM     39  O   UNL     1      35.418 -17.297 -24.026  0.00  0.00    -0.505 OA
ATOM     40  H   UNL     1      36.034 -16.851 -24.574  0.00  0.00    +0.292 HD
ENDBRANCH  34  39
ENDBRANCH  32  33
ENDBRANCH  30  32
ENDBRANCH  24  25
ENDBRANCH  22  24
ENDBRANCH   3  22
TORSDOF 9
ENDMDL
MODEL 2
REMARK VINA RESULT:     -10.3      5.998     13.398
REMARK  Name = 10050566
REMARK  9 active torsions:
REMARK  status: ('A' for Active; 'I' for Inactive)
REMARK    1  A    between atoms: C_2  and  N_11
REMARK    2  A    between atoms: C_3  and  O_22
REMARK    3  A    between atoms: C_12  and  C_14
REMARK    4  A    between atoms: C_19  and  O_20
REMARK    5  A    between atoms: O_22  and  C_24
REMARK    6  A    between atoms: C_24  and  C_25
REMARK    7  A    between atoms: C_30  and  C_32
REMARK    8  A    between atoms: C_32  and  C_33
REMARK    9  A    between atoms: C_34  and  O_39
REMARK                            x       y       z     vdW  Elec       q    Type
REMARK                         _______ _______ _______ _____ _____    ______ ____
ROOT
ATOM      1  N   UNL     1      34.396 -12.752 -26.085  0.00  0.00    +0.385 N 
ATOM      2  C   UNL     1      33.861 -11.643 -23.907  0.00  0.00    +0.091 C 
ATOM      3  C   UNL     1      33.428 -12.945 -23.211  0.00  0.00    +0.185 C 
ATOM      4  C   UNL     1      32.438 -13.831 -23.975  0.00  0.00    +0.043 C 
ATOM      5  C   UNL     1      33.749 -11.613 -25.435  0.00  0.00    -0.058 C 
ATOM      6  C   UNL     1      33.035 -14.639 -25.129  0.00  0.00    -0.020 C 
ATOM      7  C   UNL     1      33.441 -13.828 -26.354  0.00  0.00    -0.082 C 
ATOM      8  H   UNL     1      35.133 -13.108 -25.475  0.00  0.00    -0.084 HD
ATOM      9  H   UNL     1      34.783 -12.437 -26.974  0.00  0.00    -0.084 HD
ENDROOT
BRANCH   2  11
ATOM     10  O   UNL     1      34.900  -9.052 -23.242  0.00  0.00    -0.270 OA
ATOM     11  N   UNL     1      33.114 -10.525 -23.363  0.00  0.00    -0.301 N 
ATOM     12  C   UNL     1      33.711  -9.312 -23.076  0.00  0.00    +0.246 C 
ATOM     13  H   UNL     1      32.150 -10.634 -23.192  0.00  0.00    +0.150 HD
BRANCH  12  14
ATOM     14  C   UNL     1      32.815  -8.277 -22.498  0.00  0.00    +0.054 C 
ATOM     15  C   UNL     1      31.637  -7.977 -23.151  0.00  0.00    +0.008 C 
ATOM     16  C   UNL     1      33.188  -7.649 -21.328  0.00  0.00    +0.008 C 
ATOM     17  C   UNL     1      30.795  -7.006 -22.609  0.00  0.00    +0.037 C 
ATOM     18  C   UNL     1      32.346  -6.679 -20.786  0.00  0.00    +0.037 C 
ATOM     19  C   UNL     1      31.149  -6.357 -21.427  0.00  0.00    +0.134 C 
BRANCH  19  20
ATOM     20  O   UNL     1      30.327  -5.412 -20.897  0.00  0.00    -0.506 OA
ATOM     21  H   UNL     1      29.810  -5.611 -20.140  0.00  0.00    +0.292 HD
ENDBRANCH  19  20
ENDBRANCH  12  14
ENDBRANCH   2  11
BRANCH   3  22
ATOM     22  O   UNL     1      34.590 -13.702 -22.858  0.00  0.00    -0.448 OA
BRANCH  22  24
ATOM     23  O   UNL     1      34.526 -13.588 -20.560  0.00  0.00    -0.245 OA
ATOM     24  C   UNL     1      34.593 -14.219 -21.604  0.00  0.00    +0.341 C 
BRANCH  24  25
ATOM     25  C   UNL     1      34.695 -15.699 -21.656  0.00  0.00    +0.076 C 
ATOM     26  C   UNL     1      35.072 -16.300 -22.840  0.00  0.00    +0.007 C 
ATOM     27  C   UNL     1      34.409 -16.428 -20.520  0.00  0.00    +0.007 C 
ATOM     28  C   UNL     1      35.167 -17.691 -22.889  0.00  0.00    +0.003 C 
ATOM     29  C   UNL     1      34.504 -17.818 -20.569  0.00  0.00    +0.003 C 
ATOM     30  C   UNL     1      34.883 -18.451 -21.754  0.00  0.00    +0.039 C 
BRANCH  30  32
ATOM     31  O   UNL     1      35.039 -20.485 -22.897  0.00  0.00    -0.286 OA
ATOM     32  C   UNL     1      34.981 -19.900 -21.805  0.00  0.00    +0.198 C 
BRANCH  32  33
ATOM     33  C   UNL     1      35.016 -20.744 -20.572  0.00  0.00    +0.073 C 
ATOM     34  C   UNL     1      33.837 -21.199 -20.028  0.00  0.00    +0.137 C 
ATOM     35  C   UNL     1      36.247 -21.034 -20.029  0.00  0.00    +0.006 C 
ATOM     36  C   UNL     1      33.891 -21.985 -18.878  0.00  0.00    +0.037 C 
ATOM     37  C   UNL     1      36.302 -21.821 -18.879  0.00  0.00    +0.000 C 
ATOM     38  C   UNL     1      35.124 -22.296 -18.303  0.00  0.00    +0.003 C 
BRANCH  34  39
ATOM     39  O   UNL     1      32.624 -20.906 -20.575  0.00  0.00    -0.505 OA
ATOM     40  H   UNL     1      32.439 -21.144 -21.462  0.00  0.00    +0.292 HD
ENDBRANCH  34  39
ENDBRANCH  32  33
ENDBRANCH  30  32
ENDBRANCH  24  25
ENDBRANCH  22  24
ENDBRANCH   3  22
TORSDOF 9
ENDMDL
MODEL 3
REMARK VINA RESULT:      -9.4      6.797     14.292
REMARK  Name = 10050566
REMARK  9 active torsions:
REMARK  status: ('A' for Active; 'I' for Inactive)
REMARK    1  A    between atoms: C_2  and  N_11
REMARK    2  A    between atoms: C_3  and  O_22
REMARK    3  A    between atoms: C_12  and  C_14
REMARK    4  A    between atoms: C_19  and  O_20
REMARK    5  A    between atoms: O_22  and  C_24
REMARK    6  A    between atoms: C_24  and  C_25
REMARK    7  A    between atoms: C_30  and  C_32
REMARK    8  A    between atoms: C_32  and  C_33
REMARK    9  A    between atoms: C_34  and  O_39
REMARK                            x       y       z     vdW  Elec       q    Type
REMARK                         _______ _______ _______ _____ _____    ______ ____
ROOT
ATOM      1  N   UNL     1      35.922 -10.791 -25.153  0.00  0.00    +0.385 N 
ATOM      2  C   UNL     1      34.176 -10.081 -23.508  0.00  0.00    +0.091 C 
ATOM      3  C   UNL     1      33.378 -11.394 -23.604  0.00  0.00    +0.185 C 
ATOM      4  C   UNL     1      33.056 -11.895 -25.016  0.00  0.00    +0.043 C 
ATOM      5  C   UNL     1      35.034  -9.711 -24.722  0.00  0.00    -0.058 C 
ATOM      6  C   UNL     1      34.224 -12.543 -25.765  0.00  0.00    -0.020 C 
ATOM      7  C   UNL     1      35.318 -11.585 -26.223  0.00  0.00    -0.082 C 
ATOM      8  H   UNL     1      36.115 -11.399 -24.357  0.00  0.00    -0.084 HD
ATOM      9  H   UNL     1      36.783 -10.375 -25.509  0.00  0.00    -0.084 HD
ENDROOT
BRANCH   2  11
ATOM     10  O   UNL     1      34.730  -7.799 -21.860  0.00  0.00    -0.270 OA
ATOM     11  N   UNL     1      33.274  -8.981 -23.222  0.00  0.00    -0.301 N 
ATOM     12  C   UNL     1      33.640  -7.924 -22.411  0.00  0.00    +0.246 C 
ATOM     13  H   UNL     1      32.372  -8.989 -23.618  0.00  0.00    +0.150 HD
BRANCH  12  14
ATOM     14  C   UNL     1      32.594  -6.891 -22.194  0.00  0.00    +0.054 C 
ATOM     15  C   UNL     1      32.436  -5.896 -23.137  0.00  0.00    +0.008 C 
ATOM     16  C   UNL     1      31.814  -6.959 -21.059  0.00  0.00    +0.008 C 
ATOM     17  C   UNL     1      31.455  -4.926 -22.934  0.00  0.00    +0.037 C 
ATOM     18  C   UNL     1      30.832  -5.989 -20.856  0.00  0.00    +0.037 C 
ATOM     19  C   UNL     1      30.653  -4.972 -21.795  0.00  0.00    +0.134 C 
BRANCH  19  20
ATOM     20  O   UNL     1      29.693  -4.028 -21.598  0.00  0.00    -0.506 OA
ATOM     21  H   UNL     1      29.064  -3.852 -22.270  0.00  0.00    +0.292 HD
ENDBRANCH  19  20
ENDBRANCH  12  14
ENDBRANCH   2  11
BRANCH   3  22
ATOM     22  O   UNL     1      34.056 -12.415 -22.865  0.00  0.00    -0.448 OA
BRANCH  22  24
ATOM     23  O   UNL     1      32.162 -13.029 -21.712  0.00  0.00    -0.245 OA
ATOM     24  C   UNL     1      33.257 -13.279 -22.191  0.00  0.00    +0.341 C 
BRANCH  24  25
ATOM     25  C   UNL     1      33.900 -14.613 -22.101  0.00  0.00    +0.076 C 
ATOM     26  C   UNL     1      34.375 -15.204 -23.255  0.00  0.00    +0.007 C 
ATOM     27  C   UNL     1      34.002 -15.223 -20.868  0.00  0.00    +0.007 C 
ATOM     28  C   UNL     1      34.979 -16.459 -23.170  0.00  0.00    +0.003 C 
ATOM     29  C   UNL     1      34.606 -16.477 -20.783  0.00  0.00    +0.003 C 
ATOM     30  C   UNL     1      35.094 -17.096 -21.935  0.00  0.00    +0.039 C 
BRANCH  30  32
ATOM     31  O   UNL     1      36.769 -18.638 -22.470  0.00  0.00    -0.286 OA
ATOM     32  C   UNL     1      35.723 -18.404 -21.847  0.00  0.00    +0.198 C 
BRANCH  32  33
ATOM     33  C   UNL     1      35.154 -19.511 -21.020  0.00  0.00    +0.073 C 
ATOM     34  C   UNL     1      35.990 -20.267 -20.230  0.00  0.00    +0.137 C 
ATOM     35  C   UNL     1      33.796 -19.728 -21.086  0.00  0.00    +0.006 C 
ATOM     36  C   UNL     1      35.439 -21.295 -19.467  0.00  0.00    +0.037 C 
ATOM     37  C   UNL     1      33.245 -20.756 -20.322  0.00  0.00    +0.000 C 
ATOM     38  C   UNL     1      34.066 -21.540 -19.513  0.00  0.00    +0.003 C 
BRANCH  34  39
ATOM     39  O   UNL     1      37.333 -20.044 -20.172  0.00  0.00    -0.505 OA
ATOM     40  H   UNL     1      37.683 -19.451 -19.536  0.00  0.00    +0.292 HD
ENDBRANCH  34  39
ENDBRANCH  32  33
ENDBRANCH  30  32
ENDBRANCH  24  25
ENDBRANCH  22  24
ENDBRANCH   3  22
TORSDOF 9
ENDMDL
MODEL 4
REMARK VINA RESULT:      -9.4      6.902     11.806
REMARK  Name = 10050566
REMARK  9 active torsions:
REMARK  status: ('A' for Active; 'I' for Inactive)
REMARK    1  A    between atoms: C_2  and  N_11
REMARK    2  A    between atoms: C_3  and  O_22
REMARK    3  A    between atoms: C_12  and  C_14
REMARK    4  A    between atoms: C_19  and  O_20
REMARK    5  A    between atoms: O_22  and  C_24
REMARK    6  A    between atoms: C_24  and  C_25
REMARK    7  A    between atoms: C_30  and  C_32
REMARK    8  A    between atoms: C_32  and  C_33
REMARK    9  A    between atoms: C_34  and  O_39
REMARK                            x       y       z     vdW  Elec       q    Type
REMARK                         _______ _______ _______ _____ _____    ______ ____
ROOT
ATOM      1  N   UNL     1      33.192 -13.849 -25.354  0.00  0.00    +0.385 N 
ATOM      2  C   UNL     1      33.293 -14.923 -23.097  0.00  0.00    +0.091 C 
ATOM      3  C   UNL     1      33.426 -13.592 -22.335  0.00  0.00    +0.185 C 
ATOM      4  C   UNL     1      34.484 -12.611 -22.855  0.00  0.00    +0.043 C 
ATOM      5  C   UNL     1      33.768 -14.929 -24.554  0.00  0.00    -0.058 C 
ATOM      6  C   UNL     1      34.106 -11.852 -24.129  0.00  0.00    -0.020 C 
ATOM      7  C   UNL     1      34.079 -12.687 -25.404  0.00  0.00    -0.082 C 
ATOM      8  H   UNL     1      32.301 -13.569 -24.942  0.00  0.00    -0.084 HD
ATOM      9  H   UNL     1      33.059 -14.192 -26.306  0.00  0.00    -0.084 HD
ENDROOT
BRANCH   2  11
ATOM     10  O   UNL     1      34.520 -17.257 -24.229  0.00  0.00    -0.270 OA
ATOM     11  N   UNL     1      33.990 -15.971 -22.375  0.00  0.00    -0.301 N 
ATOM     12  C   UNL     1      34.548 -17.059 -23.017  0.00  0.00    +0.246 C 
ATOM     13  H   UNL     1      34.067 -15.905 -21.395  0.00  0.00    +0.150 HD
BRANCH  12  14
ATOM     14  C   UNL     1      35.203 -18.058 -22.134  0.00  0.00    +0.054 C 
ATOM     15  C   UNL     1      36.571 -17.998 -21.960  0.00  0.00    +0.008 C 
ATOM     16  C   UNL     1      34.425 -19.014 -21.515  0.00  0.00    +0.008 C 
ATOM     17  C   UNL     1      37.186 -18.935 -21.131  0.00  0.00    +0.037 C 
ATOM     18  C   UNL     1      35.040 -19.951 -20.686  0.00  0.00    +0.037 C 
ATOM     19  C   UNL     1      36.421 -19.911 -20.493  0.00  0.00    +0.134 C 
BRANCH  19  20
ATOM     20  O   UNL     1      37.021 -20.825 -19.682  0.00  0.00    -0.506 OA
ATOM     21  H   UNL     1      37.715 -21.361 -20.014  0.00  0.00    +0.292 HD
ENDBRANCH  19  20
ENDBRANCH  12  14
ENDBRANCH   2  11
BRANCH   3  22
ATOM     22  O   UNL     1      32.149 -12.949 -22.279  0.00  0.00    -0.448 OA
BRANCH  22  24
ATOM     23  O   UNL     1      31.601 -12.932 -20.044  0.00  0.00    -0.245 OA
ATOM     24  C   UNL     1      31.841 -12.361 -21.097  0.00  0.00    +0.341 C 
BRANCH  24  25
ATOM     25  C   UNL     1      31.827 -10.884 -21.243  0.00  0.00    +0.076 C 
ATOM     26  C   UNL     1      31.510 -10.338 -22.471  0.00  0.00    +0.007 C 
ATOM     27  C   UNL     1      32.132 -10.102 -20.148  0.00  0.00    +0.007 C 
ATOM     28  C   UNL     1      31.498  -8.950 -22.609  0.00  0.00    +0.003 C 
ATOM     29  C   UNL     1      32.120  -8.714 -20.286  0.00  0.00    +0.003 C 
ATOM     30  C   UNL     1      31.803  -8.137 -21.517  0.00  0.00    +0.039 C 
BRANCH  30  32
ATOM     31  O   UNL     1      31.354  -5.975 -20.747  0.00  0.00    -0.286 OA
ATOM     32  C   UNL     1      31.791  -6.691 -21.660  0.00  0.00    +0.198 C 
BRANCH  32  33
ATOM     33  C   UNL     1      32.291  -6.005 -22.890  0.00  0.00    +0.073 C 
ATOM     34  C   UNL     1      31.568  -4.966 -23.430  0.00  0.00    +0.137 C 
ATOM     35  C   UNL     1      33.474  -6.449 -23.435  0.00  0.00    +0.006 C 
ATOM     36  C   UNL     1      32.052  -4.339 -24.576  0.00  0.00    +0.037 C 
ATOM     37  C   UNL     1      33.960  -5.822 -24.582  0.00  0.00    +0.000 C 
ATOM     38  C   UNL     1      33.248  -4.767 -25.153  0.00  0.00    +0.003 C 
BRANCH  34  39
ATOM     39  O   UNL     1      30.397  -4.534 -22.881  0.00  0.00    -0.505 OA
ATOM     40  H   UNL     1      29.592  -4.963 -23.096  0.00  0.00    +0.292 HD
ENDBRANCH  34  39
ENDBRANCH  32  33
ENDBRANCH  30  32
ENDBRANCH  24  25
ENDBRANCH  22  24
ENDBRANCH   3  22
TORSDOF 9
ENDMDL
MODEL 5
REMARK VINA RESULT:      -9.0      6.249     13.726
REMARK  Name = 10050566
REMARK  9 active torsions:
REMARK  status: ('A' for Active; 'I' for Inactive)
REMARK    1  A    between atoms: C_2  and  N_11
REMARK    2  A    between atoms: C_3  and  O_22
REMARK    3  A    between atoms: C_12  and  C_14
REMARK    4  A    between atoms: C_19  and  O_20
REMARK    5  A    between atoms: O_22  and  C_24
REMARK    6  A    between atoms: C_24  and  C_25
REMARK    7  A    between atoms: C_30  and  C_32
REMARK    8  A    between atoms: C_32  and  C_33
REMARK    9  A    between atoms: C_34  and  O_39
REMARK                            x       y       z     vdW  Elec       q    Type
REMARK                         _______ _______ _______ _____ _____    ______ ____
ROOT
ATOM      1  N   UNL     1      30.073 -11.909 -20.625  0.00  0.00    +0.385 N 
ATOM      2  C   UNL     1      31.569 -11.033 -22.428  0.00  0.00    +0.091 C 
ATOM      3  C   UNL     1      32.817 -11.781 -21.924  0.00  0.00    +0.185 C 
ATOM      4  C   UNL     1      33.130 -11.656 -20.429  0.00  0.00    +0.043 C 
ATOM      5  C   UNL     1      30.485 -10.732 -21.388  0.00  0.00    -0.058 C 
ATOM      6  C   UNL     1      32.247 -12.492 -19.501  0.00  0.00    -0.020 C 
ATOM      7  C   UNL     1      30.806 -12.012 -19.362  0.00  0.00    -0.082 C 
ATOM      8  H   UNL     1      30.252 -12.745 -21.182  0.00  0.00    -0.084 HD
ATOM      9  H   UNL     1      29.079 -11.821 -20.412  0.00  0.00    -0.084 HD
ENDROOT
BRANCH   2  11
ATOM     10  O   UNL     1      31.928  -8.495 -21.139  0.00  0.00    -0.270 OA
ATOM     11  N   UNL     1      31.967  -9.790 -23.061  0.00  0.00    -0.301 N 
ATOM     12  C   UNL     1      32.113  -8.616 -22.347  0.00  0.00    +0.246 C 
ATOM     13  H   UNL     1      32.139  -9.782 -24.031  0.00  0.00    +0.150 HD
BRANCH  12  14
ATOM     14  C   UNL     1      32.499  -7.424 -23.146  0.00  0.00    +0.054 C 
ATOM     15  C   UNL     1      33.748  -7.392 -23.732  0.00  0.00    +0.008 C 
ATOM     16  C   UNL     1      31.599  -6.387 -23.276  0.00  0.00    +0.008 C 
ATOM     17  C   UNL     1      34.112  -6.274 -24.482  0.00  0.00    +0.037 C 
ATOM     18  C   UNL     1      31.962  -5.269 -24.026  0.00  0.00    +0.037 C 
ATOM     19  C   UNL     1      33.219  -5.213 -24.629  0.00  0.00    +0.134 C 
BRANCH  19  20
ATOM     20  O   UNL     1      33.573  -4.122 -25.363  0.00  0.00    -0.506 OA
ATOM     21  H   UNL     1      34.162  -3.488 -25.004  0.00  0.00    +0.292 HD
ENDBRANCH  19  20
ENDBRANCH  12  14
ENDBRANCH   2  11
BRANCH   3  22
ATOM     22  O   UNL     1      32.721 -13.161 -22.290  0.00  0.00    -0.448 OA
BRANCH  22  24
ATOM     23  O   UNL     1      33.885 -12.968 -24.266  0.00  0.00    -0.245 OA
ATOM     24  C   UNL     1      33.586 -13.575 -23.249  0.00  0.00    +0.341 C 
BRANCH  24  25
ATOM     25  C   UNL     1      34.144 -14.905 -22.901  0.00  0.00    +0.076 C 
ATOM     26  C   UNL     1      34.343 -15.218 -21.572  0.00  0.00    +0.007 C 
ATOM     27  C   UNL     1      34.449 -15.788 -23.917  0.00  0.00    +0.007 C 
ATOM     28  C   UNL     1      34.869 -16.469 -21.245  0.00  0.00    +0.003 C 
ATOM     29  C   UNL     1      34.974 -17.037 -23.591  0.00  0.00    +0.003 C 
ATOM     30  C   UNL     1      35.185 -17.379 -22.254  0.00  0.00    +0.039 C 
BRANCH  30  32
ATOM     31  O   UNL     1      36.851 -19.017 -22.330  0.00  0.00    -0.286 OA
ATOM     32  C   UNL     1      35.733 -18.681 -21.913  0.00  0.00    +0.198 C 
BRANCH  32  33
ATOM     33  C   UNL     1      34.994 -19.663 -21.063  0.00  0.00    +0.073 C 
ATOM     34  C   UNL     1      35.686 -20.430 -20.154  0.00  0.00    +0.137 C 
ATOM     35  C   UNL     1      33.630 -19.756 -21.230  0.00  0.00    +0.006 C 
ATOM     36  C   UNL     1      34.977 -21.340 -19.371  0.00  0.00    +0.037 C 
ATOM     37  C   UNL     1      32.921 -20.666 -20.446  0.00  0.00    +0.000 C 
ATOM     38  C   UNL     1      33.595 -21.458 -19.517  0.00  0.00    +0.003 C 
BRANCH  34  39
ATOM     39  O   UNL     1      37.036 -20.330 -19.998  0.00  0.00    -0.505 OA
ATOM     40  H   UNL     1      37.392 -20.007 -19.193  0.00  0.00    +0.292 HD
ENDBRANCH  34  39
ENDBRANCH  32  33
ENDBRANCH  30  32
ENDBRANCH  24  25
ENDBRANCH  22  24
ENDBRANCH   3  22
TORSDOF 9
ENDMDL
MODEL 6
REMARK VINA RESULT:      -8.9      3.489      8.815
REMARK  Name = 10050566
REMARK  9 active torsions:
REMARK  status: ('A' for Active; 'I' for Inactive)
REMARK    1  A    between atoms: C_2  and  N_11
REMARK    2  A    between atoms: C_3  and  O_22
REMARK    3  A    between atoms: C_12  and  C_14
REMARK    4  A    between atoms: C_19  and  O_20
REMARK    5  A    between atoms: O_22  and  C_24
REMARK    6  A    between atoms: C_24  and  C_25
REMARK    7  A    between atoms: C_30  and  C_32
REMARK    8  A    between atoms: C_32  and  C_33
REMARK    9  A    between atoms: C_34  and  O_39
REMARK                            x       y       z     vdW  Elec       q    Type
REMARK                         _______ _______ _______ _____ _____    ______ ____
ROOT
ATOM      1  N   UNL     1      40.642 -24.968 -14.863  0.00  0.00    +0.385 N 
ATOM      2  C   UNL     1      38.344 -23.993 -15.025  0.00  0.00    +0.091 C 
ATOM      3  C   UNL     1      37.782 -24.809 -13.847  0.00  0.00    +0.185 C 
ATOM      4  C   UNL     1      38.065 -26.315 -13.864  0.00  0.00    +0.043 C 
ATOM      5  C   UNL     1      39.549 -24.589 -15.758  0.00  0.00    -0.058 C 
ATOM      6  C   UNL     1      39.489 -26.720 -13.474  0.00  0.00    -0.020 C 
ATOM      7  C   UNL     1      40.568 -26.383 -14.497  0.00  0.00    -0.082 C 
ATOM      8  H   UNL     1      40.586 -24.403 -14.015  0.00  0.00    -0.084 HD
ATOM      9  H   UNL     1      41.524 -24.808 -15.348  0.00  0.00    -0.084 HD
ENDROOT
BRANCH   2  11
ATOM     10  O   UNL     1      37.678 -21.463 -16.204  0.00  0.00    -0.270 OA
ATOM     11  N   UNL     1      37.290 -23.738 -15.990  0.00  0.00    -0.301 N 
ATOM     12  C   UNL     1      37.050 -22.476 -16.499  0.00  0.00    +0.246 C 
ATOM     13  H   UNL     1      36.728 -24.488 -16.291  0.00  0.00    +0.150 HD
BRANCH  12  14
ATOM     14  C   UNL     1      35.919 -22.376 -17.457  0.00  0.00    +0.054 C 
ATOM     15  C   UNL     1      34.705 -22.935 -17.113  0.00  0.00    +0.008 C 
ATOM     16  C   UNL     1      36.116 -21.729 -18.658  0.00  0.00    +0.008 C 
ATOM     17  C   UNL     1      33.642 -22.842 -18.011  0.00  0.00    +0.037 C 
ATOM     18  C   UNL     1      35.054 -21.634 -19.556  0.00  0.00    +0.037 C 
ATOM     19  C   UNL     1      33.816 -22.191 -19.232  0.00  0.00    +0.134 C 
BRANCH  19  20
ATOM     20  O   UNL     1      32.779 -22.098 -20.108  0.00  0.00    -0.506 OA
ATOM     21  H   UNL     1      31.925 -22.392 -19.856  0.00  0.00    +0.292 HD
ENDBRANCH  19  20
ENDBRANCH  12  14
ENDBRANCH   2  11
BRANCH   3  22
ATOM     22  O   UNL     1      38.238 -24.239 -12.616  0.00  0.00    -0.448 OA
BRANCH  22  24
ATOM     23  O   UNL     1      37.612 -22.497 -11.249  0.00  0.00    -0.245 OA
ATOM     24  C   UNL     1      37.347 -23.445 -11.973  0.00  0.00    +0.341 C 
BRANCH  24  25
ATOM     25  C   UNL     1      35.960 -23.885 -12.263  0.00  0.00    +0.076 C 
ATOM     26  C   UNL     1      35.367 -23.486 -13.444  0.00  0.00    +0.007 C 
ATOM     27  C   UNL     1      35.305 -24.679 -11.344  0.00  0.00    +0.007 C 
ATOM     28  C   UNL     1      34.062 -23.899 -13.716  0.00  0.00    +0.003 C 
ATOM     29  C   UNL     1      34.001 -25.092 -11.616  0.00  0.00    +0.003 C 
ATOM     30  C   UNL     1      33.379 -24.702 -12.803  0.00  0.00    +0.039 C 
BRANCH  30  32
ATOM     31  O   UNL     1      31.498 -26.036 -12.418  0.00  0.00    -0.286 OA
ATOM     32  C   UNL     1      32.020 -25.132 -13.086  0.00  0.00    +0.198 C 
BRANCH  32  33
ATOM     33  C   UNL     1      31.198 -24.521 -14.175  0.00  0.00    +0.073 C 
ATOM     34  C   UNL     1      30.164 -25.240 -14.730  0.00  0.00    +0.137 C 
ATOM     35  C   UNL     1      31.517 -23.245 -14.580  0.00  0.00    +0.006 C 
ATOM     36  C   UNL     1      29.410 -24.652 -15.744  0.00  0.00    +0.037 C 
ATOM     37  C   UNL     1      30.762 -22.656 -15.594  0.00  0.00    +0.000 C 
ATOM     38  C   UNL     1      29.709 -23.360 -16.176  0.00  0.00    +0.003 C 
BRANCH  34  39
ATOM     39  O   UNL     1      29.857 -26.504 -14.321  0.00  0.00    -0.505 OA
ATOM     40  H   UNL     1      29.502 -26.647 -13.465  0.00  0.00    +0.292 HD
ENDBRANCH  34  39
ENDBRANCH  32  33
ENDBRANCH  30  32
ENDBRANCH  24  25
ENDBRANCH  22  24
ENDBRANCH   3  22
TORSDOF 9
ENDMDL
MODEL 7
REMARK VINA RESULT:      -8.7     11.478     16.592
REMARK  Name = 10050566
REMARK  9 active torsions:
REMARK  status: ('A' for Active; 'I' for Inactive)
REMARK    1  A    between atoms: C_2  and  N_11
REMARK    2  A    between atoms: C_3  and  O_22
REMARK    3  A    between atoms: C_12  and  C_14
REMARK    4  A    between atoms: C_19  and  O_20
REMARK    5  A    between atoms: O_22  and  C_24
REMARK    6  A    between atoms: C_24  and  C_25
REMARK    7  A    between atoms: C_30  and  C_32
REMARK    8  A    between atoms: C_32  and  C_33
REMARK    9  A    between atoms: C_34  and  O_39
REMARK                            x       y       z     vdW  Elec       q    Type
REMARK                         _______ _______ _______ _____ _____    ______ ____
ROOT
ATOM      1  N   UNL     1      32.928  -7.302 -20.374  0.00  0.00    +0.385 N 
ATOM      2  C   UNL     1      33.214  -8.547 -22.524  0.00  0.00    +0.091 C 
ATOM      3  C   UNL     1      32.399  -7.541 -23.356  0.00  0.00    +0.185 C 
ATOM      4  C   UNL     1      31.034  -7.135 -22.789  0.00  0.00    +0.043 C 
ATOM      5  C   UNL     1      32.900  -8.611 -21.026  0.00  0.00    -0.058 C 
ATOM      6  C   UNL     1      31.076  -6.145 -21.622  0.00  0.00    -0.020 C 
ATOM      7  C   UNL     1      31.592  -6.711 -20.303  0.00  0.00    -0.082 C 
ATOM      8  H   UNL     1      33.539  -6.680 -20.904  0.00  0.00    -0.084 HD
ATOM      9  H   UNL     1      33.274  -7.426 -19.422  0.00  0.00    -0.084 HD
ENDROOT
BRANCH   2  11
ATOM     10  O   UNL     1      35.278 -10.113 -23.758  0.00  0.00    -0.270 OA
ATOM     11  N   UNL     1      33.072  -9.877 -23.088  0.00  0.00    -0.301 N 
ATOM     12  C   UNL     1      34.134 -10.549 -23.662  0.00  0.00    +0.246 C 
ATOM     13  H   UNL     1      32.190 -10.314 -23.061  0.00  0.00    +0.150 HD
BRANCH  12  14
ATOM     14  C   UNL     1      33.818 -11.890 -24.218  0.00  0.00    +0.054 C 
ATOM     15  C   UNL     1      33.544 -12.924 -23.346  0.00  0.00    +0.008 C 
ATOM     16  C   UNL     1      33.811 -12.061 -25.586  0.00  0.00    +0.008 C 
ATOM     17  C   UNL     1      33.247 -14.183 -23.866  0.00  0.00    +0.037 C 
ATOM     18  C   UNL     1      33.513 -13.320 -26.107  0.00  0.00    +0.037 C 
ATOM     19  C   UNL     1      33.232 -14.381 -25.247  0.00  0.00    +0.134 C 
BRANCH  19  20
ATOM     20  O   UNL     1      32.941 -15.609 -25.755  0.00  0.00    -0.506 OA
ATOM     21  H   UNL     1      32.525 -15.683 -26.592  0.00  0.00    +0.292 HD
ENDBRANCH  19  20
ENDBRANCH  12  14
ENDBRANCH   2  11
BRANCH   3  22
ATOM     22  O   UNL     1      33.193  -6.377 -23.602  0.00  0.00    -0.448 OA
BRANCH  22  24
ATOM     23  O   UNL     1      31.571  -5.013 -24.502  0.00  0.00    -0.245 OA
ATOM     24  C   UNL     1      32.689  -5.506 -24.512  0.00  0.00    +0.341 C 
BRANCH  24  25
ATOM     25  C   UNL     1      33.697  -5.216 -25.562  0.00  0.00    +0.076 C 
ATOM     26  C   UNL     1      33.296  -4.558 -26.707  0.00  0.00    +0.007 C 
ATOM     27  C   UNL     1      35.003  -5.614 -25.362  0.00  0.00    +0.007 C 
ATOM     28  C   UNL     1      34.244  -4.286 -27.695  0.00  0.00    +0.003 C 
ATOM     29  C   UNL     1      35.950  -5.343 -26.349  0.00  0.00    +0.003 C 
ATOM     30  C   UNL     1      35.570  -4.678 -27.516  0.00  0.00    +0.039 C 
BRANCH  30  32
ATOM     31  O   UNL     1      36.511  -3.332 -29.181  0.00  0.00    -0.286 OA
ATOM     32  C   UNL     1      36.558  -4.396 -28.545  0.00  0.00    +0.198 C 
BRANCH  32  33
ATOM     33  C   UNL     1      37.655  -5.351 -28.885  0.00  0.00    +0.073 C 
ATOM     34  C   UNL     1      38.926  -5.122 -28.410  0.00  0.00    +0.137 C 
ATOM     35  C   UNL     1      37.340  -6.437 -29.670  0.00  0.00    +0.006 C 
ATOM     36  C   UNL     1      39.936  -6.025 -28.738  0.00  0.00    +0.037 C 
ATOM     37  C   UNL     1      38.349  -7.341 -29.999  0.00  0.00    +0.000 C 
ATOM     38  C   UNL     1      39.647  -7.135 -29.533  0.00  0.00    +0.003 C 
BRANCH  34  39
ATOM     39  O   UNL     1      39.228  -4.043 -27.633  0.00  0.00    -0.505 OA
ATOM     40  H   UNL     1      39.854  -4.125 -26.940  0.00  0.00    +0.292 HD
ENDBRANCH  34  39
ENDBRANCH  32  33
ENDBRANCH  30  32
ENDBRANCH  24  25
ENDBRANCH  22  24
ENDBRANCH   3  22
TORSDOF 9
ENDMDL
MODEL 8
REMARK VINA RESULT:      -8.5      8.038     13.232
REMARK  Name = 10050566
REMARK  9 active torsions:
REMARK  status: ('A' for Active; 'I' for Inactive)
REMARK    1  A    between atoms: C_2  and  N_11
REMARK    2  A    between atoms: C_3  and  O_22
REMARK    3  A    between atoms: C_12  and  C_14
REMARK    4  A    between atoms: C_19  and  O_20
REMARK    5  A    between atoms: O_22  and  C_24
REMARK    6  A    between atoms: C_24  and  C_25
REMARK    7  A    between atoms: C_30  and  C_32
REMARK    8  A    between atoms: C_32  and  C_33
REMARK    9  A    between atoms: C_34  and  O_39
REMARK                            x       y       z     vdW  Elec       q    Type
REMARK                         _______ _______ _______ _____ _____    ______ ____
ROOT
ATOM      1  N   UNL     1      31.645 -11.833 -18.994  0.00  0.00    +0.385 N 
ATOM      2  C   UNL     1      33.061 -13.044 -20.665  0.00  0.00    +0.091 C 
ATOM      3  C   UNL     1      32.511 -12.268 -21.875  0.00  0.00    +0.185 C 
ATOM      4  C   UNL     1      30.986 -12.158 -21.979  0.00  0.00    +0.043 C 
ATOM      5  C   UNL     1      32.149 -13.133 -19.437  0.00  0.00    -0.058 C 
ATOM      6  C   UNL     1      30.333 -11.151 -21.029  0.00  0.00    -0.020 C 
ATOM      7  C   UNL     1      30.325 -11.551 -19.558  0.00  0.00    -0.082 C 
ATOM      8  H   UNL     1      32.296 -11.106 -19.294  0.00  0.00    -0.084 HD
ATOM      9  H   UNL     1      31.563 -11.850 -17.978  0.00  0.00    -0.084 HD
ENDROOT
BRANCH   2  11
ATOM     10  O   UNL     1      34.897 -13.757 -22.751  0.00  0.00    -0.270 OA
ATOM     11  N   UNL     1      33.428 -14.387 -21.071  0.00  0.00    -0.301 N 
ATOM     12  C   UNL     1      34.328 -14.624 -22.093  0.00  0.00    +0.246 C 
ATOM     13  H   UNL     1      33.024 -15.154 -20.605  0.00  0.00    +0.150 HD
BRANCH  12  14
ATOM     14  C   UNL     1      34.578 -16.055 -22.407  0.00  0.00    +0.054 C 
ATOM     15  C   UNL     1      34.806 -16.934 -21.368  0.00  0.00    +0.008 C 
ATOM     16  C   UNL     1      34.576 -16.459 -23.726  0.00  0.00    +0.008 C 
ATOM     17  C   UNL     1      35.041 -18.277 -21.662  0.00  0.00    +0.037 C 
ATOM     18  C   UNL     1      34.810 -17.802 -24.019  0.00  0.00    +0.037 C 
ATOM     19  C   UNL     1      35.043 -18.711 -22.987  0.00  0.00    +0.134 C 
BRANCH  19  20
ATOM     20  O   UNL     1      35.270 -20.022 -23.273  0.00  0.00    -0.506 OA
ATOM     21  H   UNL     1      36.095 -20.412 -23.059  0.00  0.00    +0.292 HD
ENDBRANCH  19  20
ENDBRANCH  12  14
ENDBRANCH   2  11
BRANCH   3  22
ATOM     22  O   UNL     1      33.098 -10.963 -21.907  0.00  0.00    -0.448 OA
BRANCH  22  24
ATOM     23  O   UNL     1      33.727 -11.048 -24.120  0.00  0.00    -0.245 OA
ATOM     24  C   UNL     1      33.307 -10.446 -23.143  0.00  0.00    +0.341 C 
BRANCH  24  25
ATOM     25  C   UNL     1      32.954  -9.004 -23.166  0.00  0.00    +0.076 C 
ATOM     26  C   UNL     1      31.660  -8.639 -23.476  0.00  0.00    +0.007 C 
ATOM     27  C   UNL     1      33.931  -8.073 -22.877  0.00  0.00    +0.007 C 
ATOM     28  C   UNL     1      31.328  -7.284 -23.498  0.00  0.00    +0.003 C 
ATOM     29  C   UNL     1      33.600  -6.719 -22.899  0.00  0.00    +0.003 C 
ATOM     30  C   UNL     1      32.297  -6.324 -23.209  0.00  0.00    +0.039 C 
BRANCH  30  32
ATOM     31  O   UNL     1      31.636  -4.328 -22.185  0.00  0.00    -0.286 OA
ATOM     32  C   UNL     1      31.952  -4.912 -23.233  0.00  0.00    +0.198 C 
BRANCH  32  33
ATOM     33  C   UNL     1      31.958  -4.107 -24.492  0.00  0.00    +0.073 C 
ATOM     34  C   UNL     1      30.967  -3.177 -24.708  0.00  0.00    +0.137 C 
ATOM     35  C   UNL     1      32.974  -4.336 -25.393  0.00  0.00    +0.006 C 
ATOM     36  C   UNL     1      30.992  -2.437 -25.889  0.00  0.00    +0.037 C 
ATOM     37  C   UNL     1      32.998  -3.594 -26.574  0.00  0.00    +0.000 C 
ATOM     38  C   UNL     1      32.007  -2.646 -26.822  0.00  0.00    +0.003 C 
BRANCH  34  39
ATOM     39  O   UNL     1      29.967  -2.959 -23.808  0.00  0.00    -0.505 OA
ATOM     40  H   UNL     1      29.694  -3.648 -23.234  0.00  0.00    +0.292 HD
ENDBRANCH  34  39
ENDBRANCH  32  33
ENDBRANCH  30  32
ENDBRANCH  24  25
ENDBRANCH  22  24
ENDBRANCH   3  22
TORSDOF 9
ENDMDL
MODEL 9
REMARK VINA RESULT:      -8.5      3.125      8.298
REMARK  Name = 10050566
REMARK  9 active torsions:
REMARK  status: ('A' for Active; 'I' for Inactive)
REMARK    1  A    between atoms: C_2  and  N_11
REMARK    2  A    between atoms: C_3  and  O_22
REMARK    3  A    between atoms: C_12  and  C_14
REMARK    4  A    between atoms: C_19  and  O_20
REMARK    5  A    between atoms: O_22  and  C_24
REMARK    6  A    between atoms: C_24  and  C_25
REMARK    7  A    between atoms: C_30  and  C_32
REMARK    8  A    between atoms: C_32  and  C_33
REMARK    9  A    between atoms: C_34  and  O_39
REMARK                            x       y       z     vdW  Elec       q    Type
REMARK                         _______ _______ _______ _____ _____    ______ ____
ROOT
ATOM      1  N   UNL     1      38.615 -25.069 -13.781  0.00  0.00    +0.385 N 
ATOM      2  C   UNL     1      36.515 -24.188 -14.815  0.00  0.00    +0.091 C 
ATOM      3  C   UNL     1      35.685 -25.444 -14.495  0.00  0.00    +0.185 C 
ATOM      4  C   UNL     1      36.313 -26.790 -14.871  0.00  0.00    +0.043 C 
ATOM      5  C   UNL     1      38.031 -24.379 -14.930  0.00  0.00    -0.058 C 
ATOM      6  C   UNL     1      37.425 -27.280 -13.940  0.00  0.00    -0.020 C 
ATOM      7  C   UNL     1      38.737 -26.507 -14.025  0.00  0.00    -0.082 C 
ATOM      8  H   UNL     1      38.019 -24.921 -12.966  0.00  0.00    -0.084 HD
ATOM      9  H   UNL     1      39.549 -24.691 -13.621  0.00  0.00    -0.084 HD
ENDROOT
BRANCH   2  11
ATOM     10  O   UNL     1      37.764 -22.063 -16.285  0.00  0.00    -0.270 OA
ATOM     11  N   UNL     1      36.027 -23.579 -16.038  0.00  0.00    -0.301 N 
ATOM     12  C   UNL     1      36.708 -22.556 -16.671  0.00  0.00    +0.246 C 
ATOM     13  H   UNL     1      35.185 -23.904 -16.430  0.00  0.00    +0.150 HD
BRANCH  12  14
ATOM     14  C   UNL     1      36.063 -22.022 -17.899  0.00  0.00    +0.054 C 
ATOM     15  C   UNL     1      36.815 -21.252 -18.764  0.00  0.00    +0.008 C 
ATOM     16  C   UNL     1      34.736 -22.310 -18.136  0.00  0.00    +0.008 C 
ATOM     17  C   UNL     1      36.211 -20.750 -19.916  0.00  0.00    +0.037 C 
ATOM     18  C   UNL     1      34.132 -21.809 -19.289  0.00  0.00    +0.037 C 
ATOM     19  C   UNL     1      34.870 -21.029 -20.179  0.00  0.00    +0.134 C 
BRANCH  19  20
ATOM     20  O   UNL     1      34.281 -20.541 -21.305  0.00  0.00    -0.506 OA
ATOM     21  H   UNL     1      34.469 -19.669 -21.591  0.00  0.00    +0.292 HD
ENDBRANCH  19  20
ENDBRANCH  12  14
ENDBRANCH   2  11
BRANCH   3  22
ATOM     22  O   UNL     1      35.334 -25.439 -13.108  0.00  0.00    -0.448 OA
BRANCH  22  24
ATOM     23  O   UNL     1      34.658 -23.614 -11.879  0.00  0.00    -0.245 OA
ATOM     24  C   UNL     1      34.464 -24.471 -12.727  0.00  0.00    +0.341 C 
BRANCH  24  25
ATOM     25  C   UNL     1      33.198 -24.586 -13.494  0.00  0.00    +0.076 C 
ATOM     26  C   UNL     1      32.977 -23.726 -14.550  0.00  0.00    +0.007 C 
ATOM     27  C   UNL     1      32.280 -25.549 -13.126  0.00  0.00    +0.007 C 
ATOM     28  C   UNL     1      31.787 -23.833 -15.270  0.00  0.00    +0.003 C 
ATOM     29  C   UNL     1      31.090 -25.657 -13.846  0.00  0.00    +0.003 C 
ATOM     30  C   UNL     1      30.843 -24.798 -14.918  0.00  0.00    +0.039 C 
BRANCH  30  32
ATOM     31  O   UNL     1      29.409 -25.880 -16.416  0.00  0.00    -0.286 OA
ATOM     32  C   UNL     1      29.603 -24.910 -15.668  0.00  0.00    +0.198 C 
BRANCH  32  33
ATOM     33  C   UNL     1      28.520 -23.884 -15.581  0.00  0.00    +0.073 C 
ATOM     34  C   UNL     1      27.875 -23.478 -16.727  0.00  0.00    +0.137 C 
ATOM     35  C   UNL     1      28.209 -23.384 -14.336  0.00  0.00    +0.006 C 
ATOM     36  C   UNL     1      26.868 -22.520 -16.623  0.00  0.00    +0.037 C 
ATOM     37  C   UNL     1      27.201 -22.427 -14.232  0.00  0.00    +0.000 C 
ATOM     38  C   UNL     1      26.530 -21.994 -15.376  0.00  0.00    +0.003 C 
BRANCH  34  39
ATOM     39  O   UNL     1      28.191 -23.979 -17.954  0.00  0.00    -0.505 OA
ATOM     40  H   UNL     1      27.552 -23.978 -18.640  0.00  0.00    +0.292 HD
ENDBRANCH  34  39
ENDBRANCH  32  33
ENDBRANCH  30  32
ENDBRANCH  24  25
ENDBRANCH  22  24
ENDBRANCH   3  22
TORSDOF 9
ENDMDL
