MODEL 1
REMARK VINA RESULT:     -11.7      0.000      0.000
REMARK  Name = 25023705
REMARK  6 active torsions:
REMARK  status: ('A' for Active; 'I' for Inactive)
REMARK    1  A    between atoms: C_1  and  C_8
REMARK    2  A    between atoms: C_1  and  C_20
REMARK    3  A    between atoms: C_20  and  N_22
REMARK    4  A    between atoms: C_23  and  C_25
REMARK    5  A    between atoms: C_30  and  O_31
REMARK    6  A    between atoms: O_31  and  C_32
REMARK                            x       y       z     vdW  Elec       q    Type
REMARK                         _______ _______ _______ _____ _____    ______ ____
ROOT
ATOM      1  C   UNL     1      32.739 -24.112 -14.853  0.00  0.00    +0.066 C 
ATOM      2  C   UNL     1      32.242 -22.651 -14.738  0.00  0.00    +0.009 C 
ATOM      3  C   UNL     1      31.614 -25.005 -14.275  0.00  0.00    +0.009 C 
ENDROOT
BRANCH   1   8
ATOM      4  N   UNL     1      35.170 -24.513 -14.863  0.00  0.00    -0.347 NA
ATOM      5  N   UNL     1      37.448 -24.904 -15.004  0.00  0.00    -0.266 NA
ATOM      6  N   UNL     1      38.851 -24.886 -13.048  0.00  0.00    -0.316 NA
ATOM      7  N   UNL     1      39.755 -25.302 -15.167  0.00  0.00    -0.283 N 
ATOM      8  C   UNL     1      34.081 -24.237 -14.105  0.00  0.00    +0.122 C 
ATOM      9  C   UNL     1      34.111 -24.068 -12.738  0.00  0.00    +0.026 C 
ATOM     10  C   UNL     1      35.341 -24.191 -12.114  0.00  0.00    +0.001 C 
ATOM     11  C   UNL     1      36.364 -24.632 -14.267  0.00  0.00    +0.137 C 
ATOM     12  C   UNL     1      36.480 -24.476 -12.881  0.00  0.00    +0.199 C 
ATOM     13  C   UNL     1      37.750 -24.614 -12.327  0.00  0.00    +0.187 C 
ATOM     14  C   UNL     1      38.630 -25.016 -14.364  0.00  0.00    +0.207 C 
ATOM     15  H   UNL     1      39.650 -25.409 -16.140  0.00  0.00    +0.156 HD
ATOM     16  H   UNL     1      40.644 -25.396 -14.754  0.00  0.00    +0.156 HD
ATOM     17  N   UNL     1      37.920 -24.464 -10.929  0.00  0.00    -0.334 N 
ATOM     18  H   UNL     1      38.815 -24.561 -10.529  0.00  0.00    +0.144 HD
ATOM     19  H   UNL     1      37.144 -24.265 -10.357  0.00  0.00    +0.144 HD
ENDBRANCH   1   8
BRANCH   1  20
ATOM     20  C   UNL     1      32.911 -24.449 -16.361  0.00  0.00    +0.096 C 
BRANCH  20  22
ATOM     21  O   UNL     1      33.698 -24.546 -19.120  0.00  0.00    -0.270 OA
ATOM     22  N   UNL     1      33.430 -23.358 -17.146  0.00  0.00    -0.300 N 
ATOM     23  C   UNL     1      33.786 -23.501 -18.481  0.00  0.00    +0.246 C 
ATOM     24  H   UNL     1      33.537 -22.477 -16.719  0.00  0.00    +0.150 HD
BRANCH  23  25
ATOM     25  C   UNL     1      34.330 -22.287 -19.143  0.00  0.00    +0.054 C 
ATOM     26  C   UNL     1      33.462 -21.321 -19.651  0.00  0.00    +0.008 C 
ATOM     27  C   UNL     1      35.711 -22.116 -19.257  0.00  0.00    +0.008 C 
ATOM     28  C   UNL     1      33.974 -20.183 -20.273  0.00  0.00    +0.038 C 
ATOM     29  C   UNL     1      36.222 -20.977 -19.879  0.00  0.00    +0.038 C 
ATOM     30  C   UNL     1      35.354 -20.011 -20.388  0.00  0.00    +0.145 C 
BRANCH  30  31
ATOM     31  O   UNL     1      35.853 -18.901 -20.997  0.00  0.00    -0.453 OA
BRANCH  31  32
ATOM     32  C   UNL     1      35.351 -18.571 -22.245  0.00  0.00    +0.145 C 
ATOM     33  C   UNL     1      35.318 -17.237 -22.651  0.00  0.00    +0.037 C 
ATOM     34  C   UNL     1      34.877 -19.571 -23.094  0.00  0.00    +0.037 C 
ATOM     35  C   UNL     1      34.811 -16.903 -23.907  0.00  0.00    +0.003 C 
ATOM     36  C   UNL     1      34.370 -19.237 -24.350  0.00  0.00    +0.003 C 
ATOM     37  C   UNL     1      34.337 -17.903 -24.756  0.00  0.00    +0.000 C 
ENDBRANCH  31  32
ENDBRANCH  30  31
ENDBRANCH  23  25
ENDBRANCH  20  22
ENDBRANCH   1  20
TORSDOF 6
ENDMDL
MODEL 2
REMARK VINA RESULT:     -11.6      4.748      7.986
REMARK  Name = 25023705
REMARK  6 active torsions:
REMARK  status: ('A' for Active; 'I' for Inactive)
REMARK    1  A    between atoms: C_1  and  C_8
REMARK    2  A    between atoms: C_1  and  C_20
REMARK    3  A    between atoms: C_20  and  N_22
REMARK    4  A    between atoms: C_23  and  C_25
REMARK    5  A    between atoms: C_30  and  O_31
REMARK    6  A    between atoms: O_31  and  C_32
REMARK                            x       y       z     vdW  Elec       q    Type
REMARK                         _______ _______ _______ _____ _____    ______ ____
ROOT
ATOM      1  C   UNL     1      35.241 -19.763 -21.508  0.00  0.00    +0.066 C 
ATOM      2  C   UNL     1      33.782 -19.505 -21.959  0.00  0.00    +0.009 C 
ATOM      3  C   UNL     1      35.976 -20.368 -22.729  0.00  0.00    +0.009 C 
ENDROOT
BRANCH   1   8
ATOM      4  N   UNL     1      34.002 -21.108 -19.857  0.00  0.00    -0.347 NA
ATOM      5  N   UNL     1      32.726 -22.339 -18.368  0.00  0.00    -0.266 NA
ATOM      6  N   UNL     1      33.738 -23.577 -16.568  0.00  0.00    -0.316 NA
ATOM      7  N   UNL     1      31.416 -23.581 -16.867  0.00  0.00    -0.283 N 
ATOM      8  C   UNL     1      35.220 -20.684 -20.272  0.00  0.00    +0.122 C 
ATOM      9  C   UNL     1      36.408 -21.022 -19.662  0.00  0.00    +0.026 C 
ATOM     10  C   UNL     1      36.335 -21.851 -18.555  0.00  0.00    +0.001 C 
ATOM     11  C   UNL     1      33.923 -21.912 -18.788  0.00  0.00    +0.137 C 
ATOM     12  C   UNL     1      35.084 -22.302 -18.111  0.00  0.00    +0.199 C 
ATOM     13  C   UNL     1      34.929 -23.137 -17.007  0.00  0.00    +0.187 C 
ATOM     14  C   UNL     1      32.692 -23.146 -17.286  0.00  0.00    +0.207 C 
ATOM     15  H   UNL     1      30.613 -23.293 -17.358  0.00  0.00    +0.156 HD
ATOM     16  H   UNL     1      31.330 -24.171 -16.084  0.00  0.00    +0.156 HD
ATOM     17  N   UNL     1      36.074 -23.560 -16.288  0.00  0.00    -0.334 N 
ATOM     18  H   UNL     1      35.974 -24.150 -15.506  0.00  0.00    +0.144 HD
ATOM     19  H   UNL     1      36.970 -23.264 -16.569  0.00  0.00    +0.144 HD
ENDBRANCH   1   8
BRANCH   1  20
ATOM     20  C   UNL     1      35.893 -18.393 -21.168  0.00  0.00    +0.096 C 
BRANCH  20  22
ATOM     21  O   UNL     1      35.551 -16.177 -22.961  0.00  0.00    -0.270 OA
ATOM     22  N   UNL     1      34.947 -17.316 -21.032  0.00  0.00    -0.300 N 
ATOM     23  C   UNL     1      34.854 -16.282 -21.955  0.00  0.00    +0.246 C 
ATOM     24  H   UNL     1      34.342 -17.312 -20.255  0.00  0.00    +0.150 HD
BRANCH  23  25
ATOM     25  C   UNL     1      33.845 -15.232 -21.657  0.00  0.00    +0.054 C 
ATOM     26  C   UNL     1      33.293 -15.137 -20.381  0.00  0.00    +0.008 C 
ATOM     27  C   UNL     1      33.451 -14.341 -22.657  0.00  0.00    +0.008 C 
ATOM     28  C   UNL     1      32.346 -14.152 -20.102  0.00  0.00    +0.038 C 
ATOM     29  C   UNL     1      32.504 -13.356 -22.378  0.00  0.00    +0.038 C 
ATOM     30  C   UNL     1      31.951 -13.262 -21.101  0.00  0.00    +0.145 C 
BRANCH  30  31
ATOM     31  O   UNL     1      31.025 -12.303 -20.830  0.00  0.00    -0.453 OA
BRANCH  31  32
ATOM     32  C   UNL     1      31.480 -11.015 -20.599  0.00  0.00    +0.145 C 
ATOM     33  C   UNL     1      31.723 -10.159 -21.673  0.00  0.00    +0.037 C 
ATOM     34  C   UNL     1      31.698 -10.576 -19.293  0.00  0.00    +0.037 C 
ATOM     35  C   UNL     1      32.183  -8.863 -21.441  0.00  0.00    +0.003 C 
ATOM     36  C   UNL     1      32.158  -9.279 -19.061  0.00  0.00    +0.003 C 
ATOM     37  C   UNL     1      32.400  -8.423 -20.135  0.00  0.00    +0.000 C 
ENDBRANCH  31  32
ENDBRANCH  30  31
ENDBRANCH  23  25
ENDBRANCH  20  22
ENDBRANCH   1  20
TORSDOF 6
ENDMDL
MODEL 3
REMARK VINA RESULT:     -11.6      4.910     10.949
REMARK  Name = 25023705
REMARK  6 active torsions:
REMARK  status: ('A' for Active; 'I' for Inactive)
REMARK    1  A    between atoms: C_1  and  C_8
REMARK    2  A    between atoms: C_1  and  C_20
REMARK    3  A    between atoms: C_20  and  N_22
REMARK    4  A    between atoms: C_23  and  C_25
REMARK    5  A    between atoms: C_30  and  O_31
REMARK    6  A    between atoms: O_31  and  C_32
REMARK                            x       y       z     vdW  Elec       q    Type
REMARK                         _______ _______ _______ _____ _____    ______ ____
ROOT
ATOM      1  C   UNL     1      35.769 -19.153 -21.844  0.00  0.00    +0.066 C 
ATOM      2  C   UNL     1      37.118 -19.028 -21.096  0.00  0.00    +0.009 C 
ATOM      3  C   UNL     1      36.092 -19.756 -23.233  0.00  0.00    +0.009 C 
ENDROOT
BRANCH   1   8
ATOM      4  N   UNL     1      34.898 -17.249 -23.142  0.00  0.00    -0.347 NA
ATOM      5  N   UNL     1      34.111 -15.525 -24.473  0.00  0.00    -0.266 NA
ATOM      6  N   UNL     1      33.142 -13.539 -23.517  0.00  0.00    -0.316 NA
ATOM      7  N   UNL     1      33.320 -13.788 -25.839  0.00  0.00    -0.283 N 
ATOM      8  C   UNL     1      35.108 -17.762 -21.906  0.00  0.00    +0.122 C 
ATOM      9  C   UNL     1      34.772 -17.120 -20.733  0.00  0.00    +0.026 C 
ATOM     10  C   UNL     1      34.181 -15.874 -20.844  0.00  0.00    +0.001 C 
ATOM     11  C   UNL     1      34.325 -16.043 -23.258  0.00  0.00    +0.137 C 
ATOM     12  C   UNL     1      33.955 -15.326 -22.115  0.00  0.00    +0.199 C 
ATOM     13  C   UNL     1      33.366 -14.078 -22.307  0.00  0.00    +0.187 C 
ATOM     14  C   UNL     1      33.534 -14.308 -24.544  0.00  0.00    +0.207 C 
ATOM     15  H   UNL     1      33.589 -14.310 -26.629  0.00  0.00    +0.156 HD
ATOM     16  H   UNL     1      32.902 -12.903 -25.951  0.00  0.00    +0.156 HD
ATOM     17  N   UNL     1      32.972 -13.313 -21.182  0.00  0.00    -0.334 N 
ATOM     18  H   UNL     1      32.555 -12.430 -21.309  0.00  0.00    +0.144 HD
ATOM     19  H   UNL     1      33.115 -13.664 -20.273  0.00  0.00    +0.144 HD
ENDBRANCH   1   8
BRANCH   1  20
ATOM     20  C   UNL     1      34.874 -20.158 -21.066  0.00  0.00    +0.096 C 
BRANCH  20  22
ATOM     21  O   UNL     1      34.047 -22.448 -19.545  0.00  0.00    -0.270 OA
ATOM     22  N   UNL     1      35.463 -20.635 -19.841  0.00  0.00    -0.300 N 
ATOM     23  C   UNL     1      34.992 -21.758 -19.173  0.00  0.00    +0.246 C 
ATOM     24  H   UNL     1      36.229 -20.146 -19.463  0.00  0.00    +0.150 HD
BRANCH  23  25
ATOM     25  C   UNL     1      35.691 -22.104 -17.908  0.00  0.00    +0.054 C 
ATOM     26  C   UNL     1      36.994 -21.659 -17.687  0.00  0.00    +0.008 C 
ATOM     27  C   UNL     1      35.043 -22.875 -16.942  0.00  0.00    +0.008 C 
ATOM     28  C   UNL     1      37.650 -21.985 -16.500  0.00  0.00    +0.038 C 
ATOM     29  C   UNL     1      35.699 -23.200 -15.755  0.00  0.00    +0.038 C 
ATOM     30  C   UNL     1      37.002 -22.756 -15.534  0.00  0.00    +0.145 C 
BRANCH  30  31
ATOM     31  O   UNL     1      37.643 -23.076 -14.377  0.00  0.00    -0.453 OA
BRANCH  31  32
ATOM     32  C   UNL     1      37.525 -24.376 -13.914  0.00  0.00    +0.145 C 
ATOM     33  C   UNL     1      36.917 -24.624 -12.683  0.00  0.00    +0.037 C 
ATOM     34  C   UNL     1      38.014 -25.436 -14.677  0.00  0.00    +0.037 C 
ATOM     35  C   UNL     1      36.799 -25.933 -12.215  0.00  0.00    +0.003 C 
ATOM     36  C   UNL     1      37.896 -26.745 -14.209  0.00  0.00    +0.003 C 
ATOM     37  C   UNL     1      37.288 -26.993 -12.978  0.00  0.00    +0.000 C 
ENDBRANCH  31  32
ENDBRANCH  30  31
ENDBRANCH  23  25
ENDBRANCH  20  22
ENDBRANCH   1  20
TORSDOF 6
ENDMDL
MODEL 4
REMARK VINA RESULT:     -11.6      8.909     13.706
REMARK  Name = 25023705
REMARK  6 active torsions:
REMARK  status: ('A' for Active; 'I' for Inactive)
REMARK    1  A    between atoms: C_1  and  C_8
REMARK    2  A    between atoms: C_1  and  C_20
REMARK    3  A    between atoms: C_20  and  N_22
REMARK    4  A    between atoms: C_23  and  C_25
REMARK    5  A    between atoms: C_30  and  O_31
REMARK    6  A    between atoms: O_31  and  C_32
REMARK                            x       y       z     vdW  Elec       q    Type
REMARK                         _______ _______ _______ _____ _____    ______ ____
ROOT
ATOM      1  C   UNL     1      31.594 -11.823 -20.809  0.00  0.00    +0.066 C 
ATOM      2  C   UNL     1      30.086 -12.081 -20.570  0.00  0.00    +0.009 C 
ATOM      3  C   UNL     1      32.347 -12.523 -19.652  0.00  0.00    +0.009 C 
ENDROOT
BRANCH   1   8
ATOM      4  N   UNL     1      31.913  -9.758 -22.116  0.00  0.00    -0.347 NA
ATOM      5  N   UNL     1      32.199  -7.891 -23.454  0.00  0.00    -0.266 NA
ATOM      6  N   UNL     1      32.543  -5.704 -22.506  0.00  0.00    -0.316 NA
ATOM      7  N   UNL     1      32.488  -6.009 -24.827  0.00  0.00    -0.283 N 
ATOM      8  C   UNL     1      31.830 -10.301 -20.877  0.00  0.00    +0.122 C 
ATOM      9  C   UNL     1      31.945  -9.582 -19.707  0.00  0.00    +0.026 C 
ATOM     10  C   UNL     1      32.157  -8.219 -19.822  0.00  0.00    +0.001 C 
ATOM     11  C   UNL     1      32.117  -8.440 -22.236  0.00  0.00    +0.137 C 
ATOM     12  C   UNL     1      32.244  -7.639 -21.096  0.00  0.00    +0.199 C 
ATOM     13  C   UNL     1      32.456  -6.276 -21.293  0.00  0.00    +0.187 C 
ATOM     14  C   UNL     1      32.406  -6.559 -23.529  0.00  0.00    +0.207 C 
ATOM     15  H   UNL     1      32.396  -6.592 -25.615  0.00  0.00    +0.156 HD
ATOM     16  H   UNL     1      32.639  -5.043 -24.943  0.00  0.00    +0.156 HD
ATOM     17  N   UNL     1      32.591  -5.422 -20.171  0.00  0.00    -0.334 N 
ATOM     18  H   UNL     1      32.741  -4.458 -20.301  0.00  0.00    +0.144 HD
ATOM     19  H   UNL     1      32.536  -5.793 -19.260  0.00  0.00    +0.144 HD
ENDBRANCH   1   8
BRANCH   1  20
ATOM     20  C   UNL     1      31.997 -12.506 -22.146  0.00  0.00    +0.096 C 
BRANCH  20  22
ATOM     21  O   UNL     1      34.311 -13.432 -23.571  0.00  0.00    -0.270 OA
ATOM     22  N   UNL     1      32.661 -13.773 -21.976  0.00  0.00    -0.300 N 
ATOM     23  C   UNL     1      33.781 -14.135 -22.715  0.00  0.00    +0.246 C 
ATOM     24  H   UNL     1      32.308 -14.406 -21.310  0.00  0.00    +0.150 HD
BRANCH  23  25
ATOM     25  C   UNL     1      34.333 -15.487 -22.439  0.00  0.00    +0.054 C 
ATOM     26  C   UNL     1      34.709 -16.315 -23.496  0.00  0.00    +0.008 C 
ATOM     27  C   UNL     1      34.474 -15.926 -21.122  0.00  0.00    +0.008 C 
ATOM     28  C   UNL     1      35.226 -17.584 -23.236  0.00  0.00    +0.038 C 
ATOM     29  C   UNL     1      34.992 -17.195 -20.863  0.00  0.00    +0.038 C 
ATOM     30  C   UNL     1      35.367 -18.024 -21.920  0.00  0.00    +0.145 C 
BRANCH  30  31
ATOM     31  O   UNL     1      35.870 -19.263 -21.667  0.00  0.00    -0.453 OA
BRANCH  31  32
ATOM     32  C   UNL     1      35.134 -20.101 -20.845  0.00  0.00    +0.145 C 
ATOM     33  C   UNL     1      35.788 -20.981 -19.984  0.00  0.00    +0.037 C 
ATOM     34  C   UNL     1      33.740 -20.065 -20.881  0.00  0.00    +0.037 C 
ATOM     35  C   UNL     1      35.048 -21.827 -19.156  0.00  0.00    +0.003 C 
ATOM     36  C   UNL     1      33.000 -20.910 -20.053  0.00  0.00    +0.003 C 
ATOM     37  C   UNL     1      33.654 -21.791 -19.192  0.00  0.00    +0.000 C 
ENDBRANCH  31  32
ENDBRANCH  30  31
ENDBRANCH  23  25
ENDBRANCH  20  22
ENDBRANCH   1  20
TORSDOF 6
ENDMDL
MODEL 5
REMARK VINA RESULT:     -11.5      4.900      8.176
REMARK  Name = 25023705
REMARK  6 active torsions:
REMARK  status: ('A' for Active; 'I' for Inactive)
REMARK    1  A    between atoms: C_1  and  C_8
REMARK    2  A    between atoms: C_1  and  C_20
REMARK    3  A    between atoms: C_20  and  N_22
REMARK    4  A    between atoms: C_23  and  C_25
REMARK    5  A    between atoms: C_30  and  O_31
REMARK    6  A    between atoms: O_31  and  C_32
REMARK                            x       y       z     vdW  Elec       q    Type
REMARK                         _______ _______ _______ _____ _____    ______ ____
ROOT
ATOM      1  C   UNL     1      35.340 -19.424 -21.843  0.00  0.00    +0.066 C 
ATOM      2  C   UNL     1      34.173 -19.056 -22.791  0.00  0.00    +0.009 C 
ATOM      3  C   UNL     1      36.424 -20.095 -22.723  0.00  0.00    +0.009 C 
ENDROOT
BRANCH   1   8
ATOM      4  N   UNL     1      35.715 -20.849 -19.869  0.00  0.00    -0.347 NA
ATOM      5  N   UNL     1      36.198 -22.162 -18.024  0.00  0.00    -0.266 NA
ATOM      6  N   UNL     1      34.463 -23.300 -16.801  0.00  0.00    -0.316 NA
ATOM      7  N   UNL     1      36.706 -23.489 -16.156  0.00  0.00    -0.283 N 
ATOM      8  C   UNL     1      34.798 -20.331 -20.721  0.00  0.00    +0.122 C 
ATOM      9  C   UNL     1      33.443 -20.567 -20.639  0.00  0.00    +0.026 C 
ATOM     10  C   UNL     1      33.008 -21.389 -19.613  0.00  0.00    +0.001 C 
ATOM     11  C   UNL     1      35.302 -21.644 -18.873  0.00  0.00    +0.137 C 
ATOM     12  C   UNL     1      33.942 -21.934 -18.721  0.00  0.00    +0.199 C 
ATOM     13  C   UNL     1      33.581 -22.769 -17.665  0.00  0.00    +0.187 C 
ATOM     14  C   UNL     1      35.738 -22.958 -17.036  0.00  0.00    +0.207 C 
ATOM     15  H   UNL     1      37.658 -23.272 -16.283  0.00  0.00    +0.156 HD
ATOM     16  H   UNL     1      36.429 -24.077 -15.416  0.00  0.00    +0.156 HD
ATOM     17  N   UNL     1      32.216 -23.092 -17.467  0.00  0.00    -0.334 N 
ATOM     18  H   UNL     1      31.953 -23.681 -16.723  0.00  0.00    +0.144 HD
ATOM     19  H   UNL     1      31.531 -22.728 -18.074  0.00  0.00    +0.144 HD
ENDBRANCH   1   8
BRANCH   1  20
ATOM     20  C   UNL     1      35.925 -18.107 -21.259  0.00  0.00    +0.096 C 
BRANCH  20  22
ATOM     21  O   UNL     1      35.530 -15.911 -23.065  0.00  0.00    -0.270 OA
ATOM     22  N   UNL     1      34.957 -17.049 -21.127  0.00  0.00    -0.300 N 
ATOM     23  C   UNL     1      34.839 -16.023 -22.056  0.00  0.00    +0.246 C 
ATOM     24  H   UNL     1      34.355 -17.053 -20.348  0.00  0.00    +0.150 HD
BRANCH  23  25
ATOM     25  C   UNL     1      33.810 -14.993 -21.762  0.00  0.00    +0.054 C 
ATOM     26  C   UNL     1      33.270 -14.892 -20.480  0.00  0.00    +0.008 C 
ATOM     27  C   UNL     1      33.383 -14.127 -22.770  0.00  0.00    +0.008 C 
ATOM     28  C   UNL     1      32.303 -13.925 -20.205  0.00  0.00    +0.038 C 
ATOM     29  C   UNL     1      32.417 -13.160 -22.494  0.00  0.00    +0.038 C 
ATOM     30  C   UNL     1      31.876 -13.060 -21.212  0.00  0.00    +0.145 C 
BRANCH  30  31
ATOM     31  O   UNL     1      30.931 -12.118 -20.944  0.00  0.00    -0.453 OA
BRANCH  31  32
ATOM     32  C   UNL     1      31.364 -10.830 -20.673  0.00  0.00    +0.145 C 
ATOM     33  C   UNL     1      31.564 -10.427 -19.353  0.00  0.00    +0.037 C 
ATOM     34  C   UNL     1      31.596  -9.938 -21.719  0.00  0.00    +0.037 C 
ATOM     35  C   UNL     1      31.999  -9.130 -19.079  0.00  0.00    +0.003 C 
ATOM     36  C   UNL     1      32.031  -8.640 -21.445  0.00  0.00    +0.003 C 
ATOM     37  C   UNL     1      32.232  -8.237 -20.125  0.00  0.00    +0.000 C 
ENDBRANCH  31  32
ENDBRANCH  30  31
ENDBRANCH  23  25
ENDBRANCH  20  22
ENDBRANCH   1  20
TORSDOF 6
ENDMDL
MODEL 6
REMARK VINA RESULT:     -11.3      4.839     10.831
REMARK  Name = 25023705
REMARK  6 active torsions:
REMARK  status: ('A' for Active; 'I' for Inactive)
REMARK    1  A    between atoms: C_1  and  C_8
REMARK    2  A    between atoms: C_1  and  C_20
REMARK    3  A    between atoms: C_20  and  N_22
REMARK    4  A    between atoms: C_23  and  C_25
REMARK    5  A    between atoms: C_30  and  O_31
REMARK    6  A    between atoms: O_31  and  C_32
REMARK                            x       y       z     vdW  Elec       q    Type
REMARK                         _______ _______ _______ _____ _____    ______ ____
ROOT
ATOM      1  C   UNL     1      35.393 -19.386 -21.762  0.00  0.00    +0.066 C 
ATOM      2  C   UNL     1      36.602 -19.383 -20.795  0.00  0.00    +0.009 C 
ATOM      3  C   UNL     1      35.848 -20.149 -23.030  0.00  0.00    +0.009 C 
ENDROOT
BRANCH   1   8
ATOM      4  N   UNL     1      34.758 -17.589 -23.323  0.00  0.00    -0.347 NA
ATOM      5  N   UNL     1      34.175 -15.988 -24.890  0.00  0.00    -0.266 NA
ATOM      6  N   UNL     1      33.622 -13.736 -24.242  0.00  0.00    -0.316 NA
ATOM      7  N   UNL     1      33.586 -14.377 -26.493  0.00  0.00    -0.283 N 
ATOM      8  C   UNL     1      34.970 -17.928 -22.029  0.00  0.00    +0.122 C 
ATOM      9  C   UNL     1      34.832 -17.059 -20.968  0.00  0.00    +0.026 C 
ATOM     10  C   UNL     1      34.451 -15.762 -21.261  0.00  0.00    +0.001 C 
ATOM     11  C   UNL     1      34.388 -16.335 -23.615  0.00  0.00    +0.137 C 
ATOM     12  C   UNL     1      34.226 -15.392 -22.595  0.00  0.00    +0.199 C 
ATOM     13  C   UNL     1      33.841 -14.106 -22.969  0.00  0.00    +0.187 C 
ATOM     14  C   UNL     1      33.804 -14.714 -25.140  0.00  0.00    +0.207 C 
ATOM     15  H   UNL     1      33.706 -15.057 -27.195  0.00  0.00    +0.156 HD
ATOM     16  H   UNL     1      33.314 -13.462 -26.735  0.00  0.00    +0.156 HD
ATOM     17  N   UNL     1      33.663 -13.115 -21.972  0.00  0.00    -0.334 N 
ATOM     18  H   UNL     1      33.391 -12.204 -22.228  0.00  0.00    +0.144 HD
ATOM     19  H   UNL     1      33.812 -13.337 -21.025  0.00  0.00    +0.144 HD
ENDBRANCH   1   8
BRANCH   1  20
ATOM     20  C   UNL     1      34.239 -20.185 -21.093  0.00  0.00    +0.096 C 
BRANCH  20  22
ATOM     21  O   UNL     1      32.929 -22.406 -19.833  0.00  0.00    -0.270 OA
ATOM     22  N   UNL     1      34.607 -20.806 -19.846  0.00  0.00    -0.300 N 
ATOM     23  C   UNL     1      33.909 -21.882 -19.313  0.00  0.00    +0.246 C 
ATOM     24  H   UNL     1      35.383 -20.453 -19.353  0.00  0.00    +0.150 HD
BRANCH  23  25
ATOM     25  C   UNL     1      34.399 -22.391 -18.005  0.00  0.00    +0.054 C 
ATOM     26  C   UNL     1      33.513 -23.004 -17.120  0.00  0.00    +0.008 C 
ATOM     27  C   UNL     1      35.745 -22.255 -17.665  0.00  0.00    +0.008 C 
ATOM     28  C   UNL     1      33.973 -23.480 -15.892  0.00  0.00    +0.038 C 
ATOM     29  C   UNL     1      36.205 -22.732 -16.437  0.00  0.00    +0.038 C 
ATOM     30  C   UNL     1      35.319 -23.344 -15.551  0.00  0.00    +0.145 C 
BRANCH  30  31
ATOM     31  O   UNL     1      35.767 -23.808 -14.353  0.00  0.00    -0.453 OA
BRANCH  31  32
ATOM     32  C   UNL     1      36.609 -24.907 -14.362  0.00  0.00    +0.145 C 
ATOM     33  C   UNL     1      37.925 -24.781 -13.916  0.00  0.00    +0.037 C 
ATOM     34  C   UNL     1      36.142 -26.140 -14.818  0.00  0.00    +0.037 C 
ATOM     35  C   UNL     1      38.774 -25.888 -13.926  0.00  0.00    +0.003 C 
ATOM     36  C   UNL     1      36.991 -27.247 -14.827  0.00  0.00    +0.003 C 
ATOM     37  C   UNL     1      38.307 -27.121 -14.382  0.00  0.00    +0.000 C 
ENDBRANCH  31  32
ENDBRANCH  30  31
ENDBRANCH  23  25
ENDBRANCH  20  22
ENDBRANCH   1  20
TORSDOF 6
ENDMDL
MODEL 7
REMARK VINA RESULT:     -11.1      4.551     10.803
REMARK  Name = 25023705
REMARK  6 active torsions:
REMARK  status: ('A' for Active; 'I' for Inactive)
REMARK    1  A    between atoms: C_1  and  C_8
REMARK    2  A    between atoms: C_1  and  C_20
REMARK    3  A    between atoms: C_20  and  N_22
REMARK    4  A    between atoms: C_23  and  C_25
REMARK    5  A    between atoms: C_30  and  O_31
REMARK    6  A    between atoms: O_31  and  C_32
REMARK                            x       y       z     vdW  Elec       q    Type
REMARK                         _______ _______ _______ _____ _____    ______ ____
ROOT
ATOM      1  C   UNL     1      35.568 -19.280 -21.910  0.00  0.00    +0.066 C 
ATOM      2  C   UNL     1      36.969 -19.210 -21.255  0.00  0.00    +0.009 C 
ATOM      3  C   UNL     1      35.720 -20.155 -23.178  0.00  0.00    +0.009 C 
ENDROOT
BRANCH   1   8
ATOM      4  N   UNL     1      34.408 -17.227 -21.197  0.00  0.00    -0.347 NA
ATOM      5  N   UNL     1      33.295 -15.355 -20.410  0.00  0.00    -0.266 NA
ATOM      6  N   UNL     1      33.030 -13.385 -21.769  0.00  0.00    -0.316 NA
ATOM      7  N   UNL     1      32.164 -13.467 -19.596  0.00  0.00    -0.283 N 
ATOM      8  C   UNL     1      35.084 -17.845 -22.196  0.00  0.00    +0.122 C 
ATOM      9  C   UNL     1      35.352 -17.273 -23.421  0.00  0.00    +0.026 C 
ATOM     10  C   UNL     1      34.895 -15.983 -23.627  0.00  0.00    +0.001 C 
ATOM     11  C   UNL     1      33.964 -15.977 -21.389  0.00  0.00    +0.137 C 
ATOM     12  C   UNL     1      34.194 -15.325 -22.606  0.00  0.00    +0.199 C 
ATOM     13  C   UNL     1      33.703 -14.028 -22.738  0.00  0.00    +0.187 C 
ATOM     14  C   UNL     1      32.865 -14.098 -20.646  0.00  0.00    +0.207 C 
ATOM     15  H   UNL     1      32.013 -13.945 -18.749  0.00  0.00    +0.156 HD
ATOM     16  H   UNL     1      31.826 -12.549 -19.711  0.00  0.00    +0.156 HD
ATOM     17  N   UNL     1      33.912 -13.325 -23.950  0.00  0.00    -0.334 N 
ATOM     18  H   UNL     1      33.568 -12.408 -24.052  0.00  0.00    +0.144 HD
ATOM     19  H   UNL     1      34.399 -13.754 -24.691  0.00  0.00    +0.144 HD
ENDBRANCH   1   8
BRANCH   1  20
ATOM     20  C   UNL     1      34.608 -20.003 -20.923  0.00  0.00    +0.096 C 
BRANCH  20  22
ATOM     21  O   UNL     1      33.918 -22.404 -19.509  0.00  0.00    -0.270 OA
ATOM     22  N   UNL     1      35.263 -20.530 -19.754  0.00  0.00    -0.300 N 
ATOM     23  C   UNL     1      34.856 -21.705 -19.135  0.00  0.00    +0.246 C 
ATOM     24  H   UNL     1      36.029 -20.039 -19.379  0.00  0.00    +0.150 HD
BRANCH  23  25
ATOM     25  C   UNL     1      35.619 -22.101 -17.923  0.00  0.00    +0.054 C 
ATOM     26  C   UNL     1      36.954 -21.724 -17.785  0.00  0.00    +0.008 C 
ATOM     27  C   UNL     1      34.998 -22.851 -16.923  0.00  0.00    +0.008 C 
ATOM     28  C   UNL     1      37.670 -22.096 -16.647  0.00  0.00    +0.038 C 
ATOM     29  C   UNL     1      35.714 -23.223 -15.785  0.00  0.00    +0.038 C 
ATOM     30  C   UNL     1      37.050 -22.846 -15.648  0.00  0.00    +0.145 C 
BRANCH  30  31
ATOM     31  O   UNL     1      37.748 -23.212 -14.539  0.00  0.00    -0.453 OA
BRANCH  31  32
ATOM     32  C   UNL     1      37.553 -24.492 -14.048  0.00  0.00    +0.145 C 
ATOM     33  C   UNL     1      37.003 -24.675 -12.779  0.00  0.00    +0.037 C 
ATOM     34  C   UNL     1      37.908 -25.597 -14.821  0.00  0.00    +0.037 C 
ATOM     35  C   UNL     1      36.808 -25.964 -12.283  0.00  0.00    +0.003 C 
ATOM     36  C   UNL     1      37.712 -26.887 -14.324  0.00  0.00    +0.003 C 
ATOM     37  C   UNL     1      37.162 -27.069 -13.056  0.00  0.00    +0.000 C 
ENDBRANCH  31  32
ENDBRANCH  30  31
ENDBRANCH  23  25
ENDBRANCH  20  22
ENDBRANCH   1  20
TORSDOF 6
ENDMDL
MODEL 8
REMARK VINA RESULT:     -11.1      2.326      4.683
REMARK  Name = 25023705
REMARK  6 active torsions:
REMARK  status: ('A' for Active; 'I' for Inactive)
REMARK    1  A    between atoms: C_1  and  C_8
REMARK    2  A    between atoms: C_1  and  C_20
REMARK    3  A    between atoms: C_20  and  N_22
REMARK    4  A    between atoms: C_23  and  C_25
REMARK    5  A    between atoms: C_30  and  O_31
REMARK    6  A    between atoms: O_31  and  C_32
REMARK                            x       y       z     vdW  Elec       q    Type
REMARK                         _______ _______ _______ _____ _____    ______ ____
ROOT
ATOM      1  C   UNL     1      34.196 -22.759 -18.632  0.00  0.00    +0.066 C 
ATOM      2  C   UNL     1      32.878 -21.989 -18.891  0.00  0.00    +0.009 C 
ATOM      3  C   UNL     1      34.180 -23.986 -19.576  0.00  0.00    +0.009 C 
ENDROOT
BRANCH   1   8
ATOM      4  N   UNL     1      33.159 -23.677 -16.596  0.00  0.00    -0.347 NA
ATOM      5  N   UNL     1      32.074 -24.565 -14.752  0.00  0.00    -0.266 NA
ATOM      6  N   UNL     1      33.158 -24.718 -12.608  0.00  0.00    -0.316 NA
ATOM      7  N   UNL     1      30.958 -25.467 -12.895  0.00  0.00    -0.283 N 
ATOM      8  C   UNL     1      34.270 -23.122 -17.137  0.00  0.00    +0.122 C 
ATOM      9  C   UNL     1      35.430 -22.871 -16.436  0.00  0.00    +0.026 C 
ATOM     10  C   UNL     1      35.445 -23.216 -15.096  0.00  0.00    +0.001 C 
ATOM     11  C   UNL     1      33.165 -24.014 -15.299  0.00  0.00    +0.137 C 
ATOM     12  C   UNL     1      34.305 -23.792 -14.518  0.00  0.00    +0.199 C 
ATOM     13  C   UNL     1      34.242 -24.165 -13.177  0.00  0.00    +0.187 C 
ATOM     14  C   UNL     1      32.123 -24.888 -13.443  0.00  0.00    +0.207 C 
ATOM     15  H   UNL     1      30.168 -25.613 -13.463  0.00  0.00    +0.156 HD
ATOM     16  H   UNL     1      30.936 -25.723 -11.944  0.00  0.00    +0.156 HD
ATOM     17  N   UNL     1      35.370 -23.961 -12.344  0.00  0.00    -0.334 N 
ATOM     18  H   UNL     1      35.335 -24.222 -11.396  0.00  0.00    +0.144 HD
ATOM     19  H   UNL     1      36.189 -23.559 -12.714  0.00  0.00    +0.144 HD
ENDBRANCH   1   8
BRANCH   1  20
ATOM     20  C   UNL     1      35.382 -21.839 -19.039  0.00  0.00    +0.096 C 
BRANCH  20  22
ATOM     21  O   UNL     1      37.017 -19.705 -20.047  0.00  0.00    -0.270 OA
ATOM     22  N   UNL     1      35.123 -21.035 -20.205  0.00  0.00    -0.300 N 
ATOM     23  C   UNL     1      35.976 -20.019 -20.618  0.00  0.00    +0.246 C 
ATOM     24  H   UNL     1      34.308 -21.211 -20.730  0.00  0.00    +0.150 HD
BRANCH  23  25
ATOM     25  C   UNL     1      35.552 -19.263 -21.825  0.00  0.00    +0.054 C 
ATOM     26  C   UNL     1      34.793 -19.893 -22.811  0.00  0.00    +0.008 C 
ATOM     27  C   UNL     1      35.915 -17.924 -21.971  0.00  0.00    +0.008 C 
ATOM     28  C   UNL     1      34.397 -19.183 -23.944  0.00  0.00    +0.038 C 
ATOM     29  C   UNL     1      35.518 -17.214 -23.105  0.00  0.00    +0.038 C 
ATOM     30  C   UNL     1      34.760 -17.844 -24.091  0.00  0.00    +0.145 C 
BRANCH  30  31
ATOM     31  O   UNL     1      34.375 -17.152 -25.198  0.00  0.00    -0.453 OA
BRANCH  31  32
ATOM     32  C   UNL     1      34.063 -15.812 -25.043  0.00  0.00    +0.145 C 
ATOM     33  C   UNL     1      34.158 -15.215 -23.787  0.00  0.00    +0.037 C 
ATOM     34  C   UNL     1      33.651 -15.059 -26.144  0.00  0.00    +0.037 C 
ATOM     35  C   UNL     1      33.843 -13.865 -23.629  0.00  0.00    +0.003 C 
ATOM     36  C   UNL     1      33.336 -13.710 -25.987  0.00  0.00    +0.003 C 
ATOM     37  C   UNL     1      33.431 -13.113 -24.730  0.00  0.00    +0.000 C 
ENDBRANCH  31  32
ENDBRANCH  30  31
ENDBRANCH  23  25
ENDBRANCH  20  22
ENDBRANCH   1  20
TORSDOF 6
ENDMDL
MODEL 9
REMARK VINA RESULT:     -11.0      2.620      5.119
REMARK  Name = 25023705
REMARK  6 active torsions:
REMARK  status: ('A' for Active; 'I' for Inactive)
REMARK    1  A    between atoms: C_1  and  C_8
REMARK    2  A    between atoms: C_1  and  C_20
REMARK    3  A    between atoms: C_20  and  N_22
REMARK    4  A    between atoms: C_23  and  C_25
REMARK    5  A    between atoms: C_30  and  O_31
REMARK    6  A    between atoms: O_31  and  C_32
REMARK                            x       y       z     vdW  Elec       q    Type
REMARK                         _______ _______ _______ _____ _____    ______ ____
ROOT
ATOM      1  C   UNL     1      34.607 -23.857 -15.320  0.00  0.00    +0.066 C 
ATOM      2  C   UNL     1      35.469 -24.701 -14.350  0.00  0.00    +0.009 C 
ATOM      3  C   UNL     1      35.000 -22.379 -15.084  0.00  0.00    +0.009 C 
ENDROOT
BRANCH   1   8
ATOM      4  N   UNL     1      32.224 -23.556 -15.867  0.00  0.00    -0.347 NA
ATOM      5  N   UNL     1      30.021 -23.193 -16.481  0.00  0.00    -0.266 NA
ATOM      6  N   UNL     1      28.198 -24.235 -15.302  0.00  0.00    -0.316 NA
ATOM      7  N   UNL     1      27.794 -22.812 -17.118  0.00  0.00    -0.283 N 
ATOM      8  C   UNL     1      33.120 -24.158 -15.049  0.00  0.00    +0.122 C 
ATOM      9  C   UNL     1      32.779 -25.003 -14.014  0.00  0.00    +0.026 C 
ATOM     10  C   UNL     1      31.430 -25.240 -13.813  0.00  0.00    +0.001 C 
ATOM     11  C   UNL     1      30.917 -23.781 -15.679  0.00  0.00    +0.137 C 
ATOM     12  C   UNL     1      30.488 -24.626 -14.649  0.00  0.00    +0.199 C 
ATOM     13  C   UNL     1      29.115 -24.815 -14.509  0.00  0.00    +0.187 C 
ATOM     14  C   UNL     1      28.715 -23.446 -16.256  0.00  0.00    +0.207 C 
ATOM     15  H   UNL     1      28.119 -22.221 -17.835  0.00  0.00    +0.156 HD
ATOM     16  H   UNL     1      26.827 -22.960 -17.000  0.00  0.00    +0.156 HD
ATOM     17  N   UNL     1      28.630 -25.662 -13.482  0.00  0.00    -0.334 N 
ATOM     18  H   UNL     1      27.661 -25.801 -13.376  0.00  0.00    +0.144 HD
ATOM     19  H   UNL     1      29.261 -26.110 -12.874  0.00  0.00    +0.144 HD
ENDBRANCH   1   8
BRANCH   1  20
ATOM     20  C   UNL     1      34.995 -24.245 -16.775  0.00  0.00    +0.096 C 
BRANCH  20  22
ATOM     21  O   UNL     1      33.445 -23.371 -19.028  0.00  0.00    -0.270 OA
ATOM     22  N   UNL     1      35.274 -23.115 -17.624  0.00  0.00    -0.300 N 
ATOM     23  C   UNL     1      34.462 -22.768 -18.696  0.00  0.00    +0.246 C 
ATOM     24  H   UNL     1      36.071 -22.568 -17.437  0.00  0.00    +0.150 HD
BRANCH  23  25
ATOM     25  C   UNL     1      34.901 -21.592 -19.491  0.00  0.00    +0.054 C 
ATOM     26  C   UNL     1      33.968 -20.851 -20.215  0.00  0.00    +0.008 C 
ATOM     27  C   UNL     1      36.249 -21.230 -19.513  0.00  0.00    +0.008 C 
ATOM     28  C   UNL     1      34.381 -19.748 -20.962  0.00  0.00    +0.038 C 
ATOM     29  C   UNL     1      36.662 -20.127 -20.260  0.00  0.00    +0.038 C 
ATOM     30  C   UNL     1      35.728 -19.387 -20.985  0.00  0.00    +0.145 C 
BRANCH  30  31
ATOM     31  O   UNL     1      36.132 -18.312 -21.716  0.00  0.00    -0.453 OA
BRANCH  31  32
ATOM     32  C   UNL     1      35.298 -17.206 -21.749  0.00  0.00    +0.145 C 
ATOM     33  C   UNL     1      35.005 -16.591 -22.966  0.00  0.00    +0.037 C 
ATOM     34  C   UNL     1      34.754 -16.707 -20.565  0.00  0.00    +0.037 C 
ATOM     35  C   UNL     1      34.166 -15.477 -23.000  0.00  0.00    +0.003 C 
ATOM     36  C   UNL     1      33.916 -15.592 -20.600  0.00  0.00    +0.003 C 
ATOM     37  C   UNL     1      33.622 -14.977 -21.816  0.00  0.00    +0.000 C 
ENDBRANCH  31  32
ENDBRANCH  30  31
ENDBRANCH  23  25
ENDBRANCH  20  22
ENDBRANCH   1  20
TORSDOF 6
ENDMDL
