MODEL 1
REMARK VINA RESULT:     -12.8      0.000      0.000
REMARK  Name = 5073
REMARK  4 active torsions:
REMARK  status: ('A' for Active; 'I' for Inactive)
REMARK    1  A    between atoms: N_1  and  C_18
REMARK    2  A    between atoms: C_2  and  C_11
REMARK    3  A    between atoms: C_18  and  C_19
REMARK    4  A    between atoms: C_19  and  C_23
REMARK                            x       y       z     vdW  Elec       q    Type
REMARK                         _______ _______ _______ _____ _____    ______ ____
ROOT
ATOM      1  N   UNL     1      35.983 -19.969 -20.185  0.00  0.00    +0.387 N 
ATOM      2  C   UNL     1      35.412 -18.805 -22.817  0.00  0.00    +0.039 C 
ATOM      3  C   UNL     1      34.323 -19.457 -21.948  0.00  0.00    -0.017 C 
ATOM      4  C   UNL     1      36.561 -18.308 -21.926  0.00  0.00    -0.017 C 
ATOM      5  C   UNL     1      34.914 -20.526 -21.027  0.00  0.00    -0.077 C 
ATOM      6  C   UNL     1      37.071 -19.419 -21.005  0.00  0.00    -0.077 C 
ATOM      7  H   UNL     1      35.586 -19.207 -19.636  0.00  0.00    -0.080 HD
ENDROOT
BRANCH   2  11
ATOM      8  F   UNL     1      33.497 -12.423 -23.722  0.00  0.00    -0.204 F 
ATOM      9  O   UNL     1      34.104 -16.836 -25.536  0.00  0.00    -0.354 OA
ATOM     10  N   UNL     1      34.573 -18.023 -24.989  0.00  0.00    -0.081 NA
ATOM     11  C   UNL     1      34.866 -17.726 -23.724  0.00  0.00    +0.100 A 
ATOM     12  C   UNL     1      34.613 -16.385 -23.402  0.00  0.00    +0.054 A 
ATOM     13  C   UNL     1      34.130 -15.859 -24.588  0.00  0.00    +0.179 A 
ATOM     14  C   UNL     1      34.725 -15.547 -22.282  0.00  0.00    +0.007 C 
ATOM     15  C   UNL     1      33.738 -14.534 -24.757  0.00  0.00    +0.070 C 
ATOM     16  C   UNL     1      34.339 -14.206 -22.416  0.00  0.00    +0.030 C 
ATOM     17  C   UNL     1      33.856 -13.711 -23.632  0.00  0.00    +0.143 C 
ENDBRANCH   2  11
BRANCH   1  18
ATOM     18  C   UNL     1      36.497 -20.989 -19.271  0.00  0.00    -0.076 C 
BRANCH  18  19
ATOM     19  C   UNL     1      35.643 -22.246 -19.366  0.00  0.00    -0.007 C 
BRANCH  19  23
ATOM     20  O   UNL     1      32.932 -22.736 -18.976  0.00  0.00    -0.274 OA
ATOM     21  N   UNL     1      33.121 -23.203 -16.702  0.00  0.00    -0.237 N 
ATOM     22  N   UNL     1      35.238 -23.047 -15.657  0.00  0.00    -0.399 NA
ATOM     23  C   UNL     1      35.094 -22.622 -18.021  0.00  0.00    +0.123 C 
ATOM     24  C   UNL     1      31.667 -23.359 -16.583  0.00  0.00    +0.100 C 
ATOM     25  C   UNL     1      31.205 -24.075 -15.328  0.00  0.00    +0.022 C 
ATOM     26  C   UNL     1      33.962 -23.261 -15.605  0.00  0.00    +0.165 C 
ATOM     27  C   UNL     1      31.894 -23.463 -14.126  0.00  0.00    +0.011 C 
ATOM     28  C   UNL     1      33.389 -23.666 -14.259  0.00  0.00    +0.075 C 
ATOM     29  C   UNL     1      33.618 -22.860 -17.961  0.00  0.00    +0.237 C 
ATOM     30  C   UNL     1      35.794 -22.732 -16.874  0.00  0.00    +0.096 C 
ATOM     31  C   UNL     1      37.287 -22.547 -16.806  0.00  0.00    +0.062 C 
ENDBRANCH  19  23
ENDBRANCH  18  19
ENDBRANCH   1  18
TORSDOF 4
ENDMDL
MODEL 2
REMARK VINA RESULT:     -12.3      1.703      2.435
REMARK  Name = 5073
REMARK  4 active torsions:
REMARK  status: ('A' for Active; 'I' for Inactive)
REMARK    1  A    between atoms: N_1  and  C_18
REMARK    2  A    between atoms: C_2  and  C_11
REMARK    3  A    between atoms: C_18  and  C_19
REMARK    4  A    between atoms: C_19  and  C_23
REMARK                            x       y       z     vdW  Elec       q    Type
REMARK                         _______ _______ _______ _____ _____    ______ ____
ROOT
ATOM      1  N   UNL     1      34.496 -22.281 -19.679  0.00  0.00    +0.387 N 
ATOM      2  C   UNL     1      34.804 -19.536 -20.669  0.00  0.00    +0.039 C 
ATOM      3  C   UNL     1      35.960 -20.550 -20.673  0.00  0.00    -0.017 C 
ATOM      4  C   UNL     1      33.459 -20.279 -20.701  0.00  0.00    -0.017 C 
ATOM      5  C   UNL     1      35.789 -21.591 -19.564  0.00  0.00    -0.077 C 
ATOM      6  C   UNL     1      33.379 -21.330 -19.591  0.00  0.00    -0.077 C 
ATOM      7  H   UNL     1      34.458 -22.727 -20.595  0.00  0.00    -0.080 HD
ENDROOT
BRANCH   2  11
ATOM      8  F   UNL     1      34.412 -13.128 -22.670  0.00  0.00    -0.204 F 
ATOM      9  O   UNL     1      35.303 -17.730 -23.746  0.00  0.00    -0.354 OA
ATOM     10  N   UNL     1      35.280 -18.896 -22.991  0.00  0.00    -0.081 NA
ATOM     11  C   UNL     1      34.929 -18.505 -21.768  0.00  0.00    +0.100 A 
ATOM     12  C   UNL     1      34.716 -17.122 -21.672  0.00  0.00    +0.054 A 
ATOM     13  C   UNL     1      34.967 -16.673 -22.958  0.00  0.00    +0.179 A 
ATOM     14  C   UNL     1      34.350 -16.194 -20.686  0.00  0.00    +0.007 C 
ATOM     15  C   UNL     1      34.881 -15.342 -23.354  0.00  0.00    +0.070 C 
ATOM     16  C   UNL     1      34.253 -14.844 -21.050  0.00  0.00    +0.030 C 
ATOM     17  C   UNL     1      34.514 -14.428 -22.360  0.00  0.00    +0.143 C 
ENDBRANCH   2  11
BRANCH   1  18
ATOM     18  C   UNL     1      34.373 -23.311 -18.648  0.00  0.00    -0.076 C 
BRANCH  18  19
ATOM     19  C   UNL     1      34.694 -22.719 -17.284  0.00  0.00    -0.007 C 
BRANCH  19  23
ATOM     20  O   UNL     1      31.916 -22.803 -17.141  0.00  0.00    -0.274 OA
ATOM     21  N   UNL     1      31.838 -24.124 -15.224  0.00  0.00    -0.237 N 
ATOM     22  N   UNL     1      33.859 -24.775 -14.179  0.00  0.00    -0.399 NA
ATOM     23  C   UNL     1      33.982 -23.467 -16.195  0.00  0.00    +0.123 C 
ATOM     24  C   UNL     1      30.374 -24.038 -15.189  0.00  0.00    +0.100 C 
ATOM     25  C   UNL     1      29.697 -25.077 -14.314  0.00  0.00    +0.022 C 
ATOM     26  C   UNL     1      32.565 -24.750 -14.227  0.00  0.00    +0.165 C 
ATOM     27  C   UNL     1      30.379 -25.107 -12.963  0.00  0.00    +0.011 C 
ATOM     28  C   UNL     1      31.824 -25.520 -13.149  0.00  0.00    +0.075 C 
ATOM     29  C   UNL     1      32.486 -23.428 -16.247  0.00  0.00    +0.237 C 
ATOM     30  C   UNL     1      34.557 -24.132 -15.173  0.00  0.00    +0.096 C 
ATOM     31  C   UNL     1      36.049 -24.269 -15.024  0.00  0.00    +0.062 C 
ENDBRANCH  19  23
ENDBRANCH  18  19
ENDBRANCH   1  18
TORSDOF 4
ENDMDL
MODEL 3
REMARK VINA RESULT:     -12.3      4.452     10.479
REMARK  Name = 5073
REMARK  4 active torsions:
REMARK  status: ('A' for Active; 'I' for Inactive)
REMARK    1  A    between atoms: N_1  and  C_18
REMARK    2  A    between atoms: C_2  and  C_11
REMARK    3  A    between atoms: C_18  and  C_19
REMARK    4  A    between atoms: C_19  and  C_23
REMARK                            x       y       z     vdW  Elec       q    Type
REMARK                         _______ _______ _______ _____ _____    ______ ____
ROOT
ATOM      1  N   UNL     1      34.862 -15.396 -23.040  0.00  0.00    +0.387 N 
ATOM      2  C   UNL     1      34.724 -18.025 -21.743  0.00  0.00    +0.039 C 
ATOM      3  C   UNL     1      35.391 -17.813 -23.112  0.00  0.00    -0.017 C 
ATOM      4  C   UNL     1      34.743 -16.710 -20.945  0.00  0.00    -0.017 C 
ATOM      5  C   UNL     1      34.778 -16.620 -23.850  0.00  0.00    -0.077 C 
ATOM      6  C   UNL     1      34.155 -15.557 -21.762  0.00  0.00    -0.077 C 
ATOM      7  H   UNL     1      35.845 -15.221 -22.836  0.00  0.00    -0.080 HD
ENDROOT
BRANCH   2  11
ATOM      8  F   UNL     1      33.883 -23.717 -18.264  0.00  0.00    -0.204 F 
ATOM      9  O   UNL     1      36.859 -20.412 -20.093  0.00  0.00    -0.354 OA
ATOM     10  N   UNL     1      36.644 -19.255 -20.831  0.00  0.00    -0.081 NA
ATOM     11  C   UNL     1      35.322 -19.182 -20.976  0.00  0.00    +0.100 A 
ATOM     12  C   UNL     1      34.643 -20.246 -20.365  0.00  0.00    +0.054 A 
ATOM     13  C   UNL     1      35.665 -21.002 -19.816  0.00  0.00    +0.179 A 
ATOM     14  C   UNL     1      33.316 -20.673 -20.200  0.00  0.00    +0.007 C 
ATOM     15  C   UNL     1      35.472 -22.179 -19.099  0.00  0.00    +0.070 C 
ATOM     16  C   UNL     1      33.085 -21.854 -19.482  0.00  0.00    +0.030 C 
ATOM     17  C   UNL     1      34.144 -22.592 -18.943  0.00  0.00    +0.143 C 
ENDBRANCH   2  11
BRANCH   1  18
ATOM     18  C   UNL     1      34.325 -14.255 -23.781  0.00  0.00    -0.076 C 
BRANCH  18  19
ATOM     19  C   UNL     1      33.004 -13.815 -23.167  0.00  0.00    -0.007 C 
BRANCH  19  23
ATOM     20  O   UNL     1      31.775 -12.762 -20.904  0.00  0.00    -0.274 OA
ATOM     21  N   UNL     1      32.331 -10.547 -21.365  0.00  0.00    -0.237 N 
ATOM     22  N   UNL     1      33.512 -10.038 -23.351  0.00  0.00    -0.399 NA
ATOM     23  C   UNL     1      33.014 -12.343 -22.876  0.00  0.00    +0.123 C 
ATOM     24  C   UNL     1      31.584 -10.084 -20.191  0.00  0.00    +0.100 C 
ATOM     25  C   UNL     1      31.916  -8.673 -19.743  0.00  0.00    +0.022 C 
ATOM     26  C   UNL     1      32.917  -9.671 -22.261  0.00  0.00    +0.165 C 
ATOM     27  C   UNL     1      31.879  -7.750 -20.943  0.00  0.00    +0.011 C 
ATOM     28  C   UNL     1      32.937  -8.189 -21.934  0.00  0.00    +0.075 C 
ATOM     29  C   UNL     1      32.317 -11.921 -21.620  0.00  0.00    +0.237 C 
ATOM     30  C   UNL     1      33.558 -11.379 -23.645  0.00  0.00    +0.096 C 
ATOM     31  C   UNL     1      34.311 -11.675 -24.916  0.00  0.00    +0.062 C 
ENDBRANCH  19  23
ENDBRANCH  18  19
ENDBRANCH   1  18
TORSDOF 4
ENDMDL
MODEL 4
REMARK VINA RESULT:     -12.2      2.502      3.959
REMARK  Name = 5073
REMARK  4 active torsions:
REMARK  status: ('A' for Active; 'I' for Inactive)
REMARK    1  A    between atoms: N_1  and  C_18
REMARK    2  A    between atoms: C_2  and  C_11
REMARK    3  A    between atoms: C_18  and  C_19
REMARK    4  A    between atoms: C_19  and  C_23
REMARK                            x       y       z     vdW  Elec       q    Type
REMARK                         _______ _______ _______ _____ _____    ______ ____
ROOT
ATOM      1  N   UNL     1      34.300 -22.686 -18.968  0.00  0.00    +0.387 N 
ATOM      2  C   UNL     1      34.682 -20.144 -20.383  0.00  0.00    +0.039 C 
ATOM      3  C   UNL     1      35.803 -21.188 -20.244  0.00  0.00    -0.017 C 
ATOM      4  C   UNL     1      33.312 -20.833 -20.278  0.00  0.00    -0.017 C 
ATOM      5  C   UNL     1      35.619 -22.035 -18.983  0.00  0.00    -0.077 C 
ATOM      6  C   UNL     1      33.218 -21.693 -19.015  0.00  0.00    -0.077 C 
ATOM      7  H   UNL     1      34.229 -23.270 -19.801  0.00  0.00    -0.080 HD
ENDROOT
BRANCH   2  11
ATOM      8  F   UNL     1      34.780 -14.092 -23.312  0.00  0.00    -0.204 F 
ATOM      9  O   UNL     1      35.106 -18.872 -23.727  0.00  0.00    -0.354 OA
ATOM     10  N   UNL     1      35.028 -19.905 -22.803  0.00  0.00    -0.081 NA
ATOM     11  C   UNL     1      34.820 -19.304 -21.633  0.00  0.00    +0.100 A 
ATOM     12  C   UNL     1      34.757 -17.907 -21.736  0.00  0.00    +0.054 A 
ATOM     13  C   UNL     1      34.945 -17.680 -23.089  0.00  0.00    +0.179 A 
ATOM     14  C   UNL     1      34.570 -16.811 -20.882  0.00  0.00    +0.007 C 
ATOM     15  C   UNL     1      34.963 -16.420 -23.678  0.00  0.00    +0.070 C 
ATOM     16  C   UNL     1      34.581 -15.525 -21.442  0.00  0.00    +0.030 C 
ATOM     17  C   UNL     1      34.775 -15.336 -22.814  0.00  0.00    +0.143 C 
ENDBRANCH   2  11
BRANCH   1  18
ATOM     18  C   UNL     1      34.163 -23.536 -17.786  0.00  0.00    -0.076 C 
BRANCH  18  19
ATOM     19  C   UNL     1      34.324 -22.699 -16.525  0.00  0.00    -0.007 C 
BRANCH  19  23
ATOM     20  O   UNL     1      37.045 -23.169 -16.178  0.00  0.00    -0.274 OA
ATOM     21  N   UNL     1      36.797 -24.483 -14.270  0.00  0.00    -0.237 N 
ATOM     22  N   UNL     1      34.624 -24.949 -13.458  0.00  0.00    -0.399 NA
ATOM     23  C   UNL     1      34.843 -23.534 -15.391  0.00  0.00    +0.123 C 
ATOM     24  C   UNL     1      38.240 -24.739 -14.223  0.00  0.00    +0.100 C 
ATOM     25  C   UNL     1      38.748 -25.269 -12.895  0.00  0.00    +0.022 C 
ATOM     26  C   UNL     1      35.910 -25.086 -13.396  0.00  0.00    +0.165 C 
ATOM     27  C   UNL     1      37.868 -26.418 -12.450  0.00  0.00    +0.011 C 
ATOM     28  C   UNL     1      36.457 -25.907 -12.243  0.00  0.00    +0.075 C 
ATOM     29  C   UNL     1      36.329 -23.698 -15.327  0.00  0.00    +0.237 C 
ATOM     30  C   UNL     1      34.102 -24.166 -14.460  0.00  0.00    +0.096 C 
ATOM     31  C   UNL     1      32.601 -24.058 -14.397  0.00  0.00    +0.062 C 
ENDBRANCH  19  23
ENDBRANCH  18  19
ENDBRANCH   1  18
TORSDOF 4
ENDMDL
MODEL 5
REMARK VINA RESULT:     -12.0      3.283     10.048
REMARK  Name = 5073
REMARK  4 active torsions:
REMARK  status: ('A' for Active; 'I' for Inactive)
REMARK    1  A    between atoms: N_1  and  C_18
REMARK    2  A    between atoms: C_2  and  C_11
REMARK    3  A    between atoms: C_18  and  C_19
REMARK    4  A    between atoms: C_19  and  C_23
REMARK                            x       y       z     vdW  Elec       q    Type
REMARK                         _______ _______ _______ _____ _____    ______ ____
ROOT
ATOM      1  N   UNL     1      35.733 -19.326 -20.916  0.00  0.00    +0.387 N 
ATOM      2  C   UNL     1      35.010 -21.805 -19.522  0.00  0.00    +0.039 C 
ATOM      3  C   UNL     1      36.356 -21.094 -19.299  0.00  0.00    -0.017 C 
ATOM      4  C   UNL     1      33.959 -20.792 -20.005  0.00  0.00    -0.017 C 
ATOM      5  C   UNL     1      36.772 -20.294 -20.535  0.00  0.00    -0.077 C 
ATOM      6  C   UNL     1      34.463 -20.003 -21.215  0.00  0.00    -0.077 C 
ATOM      7  H   UNL     1      35.579 -18.702 -20.125  0.00  0.00    -0.080 HD
ENDROOT
BRANCH   2  11
ATOM      8  F   UNL     1      36.243 -24.132 -13.335  0.00  0.00    -0.204 F 
ATOM      9  O   UNL     1      33.245 -23.778 -17.079  0.00  0.00    -0.354 OA
ATOM     10  N   UNL     1      33.349 -23.149 -18.313  0.00  0.00    -0.081 NA
ATOM     11  C   UNL     1      34.556 -22.587 -18.311  0.00  0.00    +0.100 A 
ATOM     12  C   UNL     1      35.266 -22.813 -17.123  0.00  0.00    +0.054 A 
ATOM     13  C   UNL     1      34.389 -23.576 -16.370  0.00  0.00    +0.179 A 
ATOM     14  C   UNL     1      36.517 -22.482 -16.582  0.00  0.00    +0.007 C 
ATOM     15  C   UNL     1      34.661 -24.049 -15.089  0.00  0.00    +0.070 C 
ATOM     16  C   UNL     1      36.825 -22.943 -15.294  0.00  0.00    +0.030 C 
ATOM     17  C   UNL     1      35.913 -23.711 -14.564  0.00  0.00    +0.143 C 
ENDBRANCH   2  11
BRANCH   1  18
ATOM     18  C   UNL     1      36.171 -18.531 -22.063  0.00  0.00    -0.076 C 
BRANCH  18  19
ATOM     19  C   UNL     1      35.022 -18.365 -23.047  0.00  0.00    -0.007 C 
BRANCH  19  23
ATOM     20  O   UNL     1      34.545 -17.259 -25.555  0.00  0.00    -0.274 OA
ATOM     21  N   UNL     1      34.114 -15.109 -24.767  0.00  0.00    -0.237 N 
ATOM     22  N   UNL     1      34.283 -14.669 -22.448  0.00  0.00    -0.399 NA
ATOM     23  C   UNL     1      34.669 -16.916 -23.217  0.00  0.00    +0.123 C 
ATOM     24  C   UNL     1      33.964 -14.605 -26.136  0.00  0.00    +0.100 C 
ATOM     25  C   UNL     1      33.270 -13.261 -26.245  0.00  0.00    +0.022 C 
ATOM     26  C   UNL     1      34.072 -14.276 -23.664  0.00  0.00    +0.165 C 
ATOM     27  C   UNL     1      33.900 -12.296 -25.262  0.00  0.00    +0.011 C 
ATOM     28  C   UNL     1      33.691 -12.819 -23.856  0.00  0.00    +0.075 C 
ATOM     29  C   UNL     1      34.436 -16.461 -24.624  0.00  0.00    +0.237 C 
ATOM     30  C   UNL     1      34.577 -15.995 -22.237  0.00  0.00    +0.096 C 
ATOM     31  C   UNL     1      34.759 -16.331 -20.780  0.00  0.00    +0.062 C 
ENDBRANCH  19  23
ENDBRANCH  18  19
ENDBRANCH   1  18
TORSDOF 4
ENDMDL
MODEL 6
REMARK VINA RESULT:     -12.0      3.590      9.603
REMARK  Name = 5073
REMARK  4 active torsions:
REMARK  status: ('A' for Active; 'I' for Inactive)
REMARK    1  A    between atoms: N_1  and  C_18
REMARK    2  A    between atoms: C_2  and  C_11
REMARK    3  A    between atoms: C_18  and  C_19
REMARK    4  A    between atoms: C_19  and  C_23
REMARK                            x       y       z     vdW  Elec       q    Type
REMARK                         _______ _______ _______ _____ _____    ______ ____
ROOT
ATOM      1  N   UNL     1      34.869 -19.926 -20.994  0.00  0.00    +0.387 N 
ATOM      2  C   UNL     1      34.877 -22.096 -19.018  0.00  0.00    +0.039 C 
ATOM      3  C   UNL     1      36.147 -21.312 -19.390  0.00  0.00    -0.017 C 
ATOM      4  C   UNL     1      33.633 -21.234 -19.293  0.00  0.00    -0.017 C 
ATOM      5  C   UNL     1      36.064 -20.764 -20.816  0.00  0.00    -0.077 C 
ATOM      6  C   UNL     1      33.642 -20.688 -20.723  0.00  0.00    -0.077 C 
ATOM      7  H   UNL     1      34.919 -19.161 -20.321  0.00  0.00    -0.080 HD
ENDROOT
BRANCH   2  11
ATOM      8  F   UNL     1      31.640 -24.632 -13.698  0.00  0.00    -0.204 F 
ATOM      9  O   UNL     1      35.773 -23.227 -15.717  0.00  0.00    -0.354 OA
ATOM     10  N   UNL     1      36.081 -22.702 -16.965  0.00  0.00    -0.081 NA
ATOM     11  C   UNL     1      34.915 -22.632 -17.605  0.00  0.00    +0.100 A 
ATOM     12  C   UNL     1      33.837 -23.091 -16.835  0.00  0.00    +0.054 A 
ATOM     13  C   UNL     1      34.434 -23.459 -15.641  0.00  0.00    +0.179 A 
ATOM     14  C   UNL     1      32.450 -23.247 -16.979  0.00  0.00    +0.007 C 
ATOM     15  C   UNL     1      33.748 -23.984 -14.550  0.00  0.00    +0.070 C 
ATOM     16  C   UNL     1      31.726 -23.772 -15.898  0.00  0.00    +0.030 C 
ATOM     17  C   UNL     1      32.365 -24.133 -14.708  0.00  0.00    +0.143 C 
ENDBRANCH   2  11
BRANCH   1  18
ATOM     18  C   UNL     1      34.835 -19.364 -22.344  0.00  0.00    -0.076 C 
BRANCH  18  19
ATOM     19  C   UNL     1      35.738 -18.141 -22.418  0.00  0.00    -0.007 C 
BRANCH  19  23
ATOM     20  O   UNL     1      34.707 -16.877 -20.163  0.00  0.00    -0.274 OA
ATOM     21  N   UNL     1      33.683 -15.144 -21.336  0.00  0.00    -0.237 N 
ATOM     22  N   UNL     1      33.801 -15.114 -23.699  0.00  0.00    -0.399 NA
ATOM     23  C   UNL     1      34.927 -16.883 -22.520  0.00  0.00    +0.123 C 
ATOM     24  C   UNL     1      33.115 -14.602 -20.097  0.00  0.00    +0.100 C 
ATOM     25  C   UNL     1      32.622 -13.171 -20.197  0.00  0.00    +0.022 C 
ATOM     26  C   UNL     1      33.386 -14.614 -22.579  0.00  0.00    +0.165 C 
ATOM     27  C   UNL     1      31.751 -13.031 -21.428  0.00  0.00    +0.011 C 
ATOM     28  C   UNL     1      32.584 -13.328 -22.658  0.00  0.00    +0.075 C 
ATOM     29  C   UNL     1      34.441 -16.312 -21.224  0.00  0.00    +0.237 C 
ATOM     30  C   UNL     1      34.576 -16.248 -23.656  0.00  0.00    +0.096 C 
ATOM     31  C   UNL     1      35.025 -16.704 -25.019  0.00  0.00    +0.062 C 
ENDBRANCH  19  23
ENDBRANCH  18  19
ENDBRANCH   1  18
TORSDOF 4
ENDMDL
MODEL 7
REMARK VINA RESULT:     -11.9      3.595      9.570
REMARK  Name = 5073
REMARK  4 active torsions:
REMARK  status: ('A' for Active; 'I' for Inactive)
REMARK    1  A    between atoms: N_1  and  C_18
REMARK    2  A    between atoms: C_2  and  C_11
REMARK    3  A    between atoms: C_18  and  C_19
REMARK    4  A    between atoms: C_19  and  C_23
REMARK                            x       y       z     vdW  Elec       q    Type
REMARK                         _______ _______ _______ _____ _____    ______ ____
ROOT
ATOM      1  N   UNL     1      34.747 -19.842 -21.046  0.00  0.00    +0.387 N 
ATOM      2  C   UNL     1      34.545 -22.093 -19.174  0.00  0.00    +0.039 C 
ATOM      3  C   UNL     1      35.868 -21.355 -19.439  0.00  0.00    -0.017 C 
ATOM      4  C   UNL     1      33.359 -21.163 -19.478  0.00  0.00    -0.017 C 
ATOM      5  C   UNL     1      35.891 -20.742 -20.841  0.00  0.00    -0.077 C 
ATOM      6  C   UNL     1      33.474 -20.557 -20.879  0.00  0.00    -0.077 C 
ATOM      7  H   UNL     1      34.793 -19.110 -20.338  0.00  0.00    -0.080 HD
ENDROOT
BRANCH   2  11
ATOM      8  F   UNL     1      37.598 -23.668 -13.394  0.00  0.00    -0.204 F 
ATOM      9  O   UNL     1      33.600 -23.651 -16.067  0.00  0.00    -0.354 OA
ATOM     10  N   UNL     1      33.325 -23.191 -17.348  0.00  0.00    -0.081 NA
ATOM     11  C   UNL     1      34.479 -22.691 -17.787  0.00  0.00    +0.100 A 
ATOM     12  C   UNL     1      35.517 -22.798 -16.851  0.00  0.00    +0.054 A 
ATOM     13  C   UNL     1      34.908 -23.415 -15.771  0.00  0.00    +0.179 A 
ATOM     14  C   UNL     1      36.875 -22.461 -16.765  0.00  0.00    +0.007 C 
ATOM     15  C   UNL     1      35.556 -23.733 -14.582  0.00  0.00    +0.070 C 
ATOM     16  C   UNL     1      37.560 -22.767 -15.580  0.00  0.00    +0.030 C 
ATOM     17  C   UNL     1      36.911 -23.391 -14.510  0.00  0.00    +0.143 C 
ENDBRANCH   2  11
BRANCH   1  18
ATOM     18  C   UNL     1      34.815 -19.221 -22.369  0.00  0.00    -0.076 C 
BRANCH  18  19
ATOM     19  C   UNL     1      35.704 -17.987 -22.315  0.00  0.00    -0.007 C 
BRANCH  19  23
ATOM     20  O   UNL     1      34.641 -16.698 -20.089  0.00  0.00    -0.274 OA
ATOM     21  N   UNL     1      33.621 -14.987 -21.296  0.00  0.00    -0.237 N 
ATOM     22  N   UNL     1      33.764 -14.988 -23.658  0.00  0.00    -0.399 NA
ATOM     23  C   UNL     1      34.887 -16.734 -22.443  0.00  0.00    +0.123 C 
ATOM     24  C   UNL     1      33.036 -14.432 -20.071  0.00  0.00    +0.100 C 
ATOM     25  C   UNL     1      32.537 -13.004 -20.196  0.00  0.00    +0.022 C 
ATOM     26  C   UNL     1      33.335 -14.475 -22.549  0.00  0.00    +0.165 C 
ATOM     27  C   UNL     1      31.678 -12.886 -21.437  0.00  0.00    +0.011 C 
ATOM     28  C   UNL     1      32.527 -13.194 -22.654  0.00  0.00    +0.075 C 
ATOM     29  C   UNL     1      34.384 -16.149 -21.161  0.00  0.00    +0.237 C 
ATOM     30  C   UNL     1      34.545 -16.117 -23.591  0.00  0.00    +0.096 C 
ATOM     31  C   UNL     1      35.011 -16.588 -24.943  0.00  0.00    +0.062 C 
ENDBRANCH  19  23
ENDBRANCH  18  19
ENDBRANCH   1  18
TORSDOF 4
ENDMDL
MODEL 8
REMARK VINA RESULT:     -11.9      3.466     10.232
REMARK  Name = 5073
REMARK  4 active torsions:
REMARK  status: ('A' for Active; 'I' for Inactive)
REMARK    1  A    between atoms: N_1  and  C_18
REMARK    2  A    between atoms: C_2  and  C_11
REMARK    3  A    between atoms: C_18  and  C_19
REMARK    4  A    between atoms: C_19  and  C_23
REMARK                            x       y       z     vdW  Elec       q    Type
REMARK                         _______ _______ _______ _____ _____    ______ ____
ROOT
ATOM      1  N   UNL     1      34.679 -20.786 -19.936  0.00  0.00    +0.387 N 
ATOM      2  C   UNL     1      34.442 -22.895 -17.909  0.00  0.00    +0.039 C 
ATOM      3  C   UNL     1      35.751 -22.126 -18.152  0.00  0.00    -0.017 C 
ATOM      4  C   UNL     1      33.245 -22.039 -18.355  0.00  0.00    -0.017 C 
ATOM      5  C   UNL     1      35.840 -21.621 -19.594  0.00  0.00    -0.077 C 
ATOM      6  C   UNL     1      33.425 -21.537 -19.789  0.00  0.00    -0.077 C 
ATOM      7  H   UNL     1      34.654 -20.001 -19.285  0.00  0.00    -0.080 HD
ENDROOT
BRANCH   2  11
ATOM      8  F   UNL     1      30.535 -24.601 -12.709  0.00  0.00    -0.204 F 
ATOM      9  O   UNL     1      34.949 -24.086 -14.547  0.00  0.00    -0.354 OA
ATOM     10  N   UNL     1      35.410 -23.666 -15.788  0.00  0.00    -0.081 NA
ATOM     11  C   UNL     1      34.310 -23.389 -16.486  0.00  0.00    +0.100 A 
ATOM     12  C   UNL     1      33.130 -23.607 -15.762  0.00  0.00    +0.054 A 
ATOM     13  C   UNL     1      33.588 -24.051 -14.533  0.00  0.00    +0.179 A 
ATOM     14  C   UNL     1      31.747 -23.493 -15.972  0.00  0.00    +0.007 C 
ATOM     15  C   UNL     1      32.764 -24.400 -13.468  0.00  0.00    +0.070 C 
ATOM     16  C   UNL     1      30.887 -23.836 -14.919  0.00  0.00    +0.030 C 
ATOM     17  C   UNL     1      31.388 -24.282 -13.692  0.00  0.00    +0.143 C 
ENDBRANCH   2  11
BRANCH   1  18
ATOM     18  C   UNL     1      34.808 -20.265 -21.296  0.00  0.00    -0.076 C 
BRANCH  18  19
ATOM     19  C   UNL     1      35.504 -18.912 -21.268  0.00  0.00    -0.007 C 
BRANCH  19  23
ATOM     20  O   UNL     1      34.926 -16.206 -20.967  0.00  0.00    -0.274 OA
ATOM     21  N   UNL     1      34.387 -15.848 -23.205  0.00  0.00    -0.237 N 
ATOM     22  N   UNL     1      34.442 -17.668 -24.716  0.00  0.00    -0.399 NA
ATOM     23  C   UNL     1      35.069 -18.063 -22.427  0.00  0.00    +0.123 C 
ATOM     24  C   UNL     1      34.027 -14.455 -22.925  0.00  0.00    +0.100 C 
ATOM     25  C   UNL     1      33.946 -13.562 -24.150  0.00  0.00    +0.022 C 
ATOM     26  C   UNL     1      34.213 -16.421 -24.452  0.00  0.00    +0.165 C 
ATOM     27  C   UNL     1      33.112 -14.250 -25.210  0.00  0.00    +0.011 C 
ATOM     28  C   UNL     1      33.796 -15.540 -25.615  0.00  0.00    +0.075 C 
ATOM     29  C   UNL     1      34.796 -16.624 -22.117  0.00  0.00    +0.237 C 
ATOM     30  C   UNL     1      34.874 -18.479 -23.694  0.00  0.00    +0.096 C 
ATOM     31  C   UNL     1      35.141 -19.893 -24.141  0.00  0.00    +0.062 C 
ENDBRANCH  19  23
ENDBRANCH  18  19
ENDBRANCH   1  18
TORSDOF 4
ENDMDL
MODEL 9
REMARK VINA RESULT:     -11.6      1.312      2.189
REMARK  Name = 5073
REMARK  4 active torsions:
REMARK  status: ('A' for Active; 'I' for Inactive)
REMARK    1  A    between atoms: N_1  and  C_18
REMARK    2  A    between atoms: C_2  and  C_11
REMARK    3  A    between atoms: C_18  and  C_19
REMARK    4  A    between atoms: C_19  and  C_23
REMARK                            x       y       z     vdW  Elec       q    Type
REMARK                         _______ _______ _______ _____ _____    ______ ____
ROOT
ATOM      1  N   UNL     1      36.219 -19.699 -20.243  0.00  0.00    +0.387 N 
ATOM      2  C   UNL     1      35.437 -18.695 -22.888  0.00  0.00    +0.039 C 
ATOM      3  C   UNL     1      34.417 -19.248 -21.879  0.00  0.00    -0.017 C 
ATOM      4  C   UNL     1      36.680 -18.179 -22.142  0.00  0.00    -0.017 C 
ATOM      5  C   UNL     1      35.061 -20.273 -20.942  0.00  0.00    -0.077 C 
ATOM      6  C   UNL     1      37.241 -19.244 -21.196  0.00  0.00    -0.077 C 
ATOM      7  H   UNL     1      35.897 -18.889 -19.715  0.00  0.00    -0.080 HD
ENDROOT
BRANCH   2  11
ATOM      8  F   UNL     1      33.418 -12.375 -23.977  0.00  0.00    -0.204 F 
ATOM      9  O   UNL     1      33.989 -16.857 -25.626  0.00  0.00    -0.354 OA
ATOM     10  N   UNL     1      34.493 -18.015 -25.050  0.00  0.00    -0.081 NA
ATOM     11  C   UNL     1      34.840 -17.661 -23.814  0.00  0.00    +0.100 A 
ATOM     12  C   UNL     1      34.588 -16.309 -23.539  0.00  0.00    +0.054 A 
ATOM     13  C   UNL     1      34.047 -15.840 -24.723  0.00  0.00    +0.179 A 
ATOM     14  C   UNL     1      34.743 -15.423 -22.462  0.00  0.00    +0.007 C 
ATOM     15  C   UNL     1      33.635 -14.527 -24.931  0.00  0.00    +0.070 C 
ATOM     16  C   UNL     1      34.337 -14.092 -22.636  0.00  0.00    +0.030 C 
ATOM     17  C   UNL     1      33.794 -13.655 -23.849  0.00  0.00    +0.143 C 
ENDBRANCH   2  11
BRANCH   1  18
ATOM     18  C   UNL     1      36.787 -20.673 -19.311  0.00  0.00    -0.076 C 
BRANCH  18  19
ATOM     19  C   UNL     1      36.096 -22.018 -19.483  0.00  0.00    -0.007 C 
BRANCH  19  23
ATOM     20  O   UNL     1      37.663 -22.460 -17.226  0.00  0.00    -0.274 OA
ATOM     21  N   UNL     1      35.893 -23.112 -15.858  0.00  0.00    -0.237 N 
ATOM     22  N   UNL     1      33.709 -23.223 -16.761  0.00  0.00    -0.399 NA
ATOM     23  C   UNL     1      35.500 -22.482 -18.186  0.00  0.00    +0.123 C 
ATOM     24  C   UNL     1      36.814 -23.396 -14.752  0.00  0.00    +0.100 C 
ATOM     25  C   UNL     1      36.155 -23.509 -13.390  0.00  0.00    +0.022 C 
ATOM     26  C   UNL     1      34.539 -23.382 -15.779  0.00  0.00    +0.165 C 
ATOM     27  C   UNL     1      34.958 -24.431 -13.493  0.00  0.00    +0.011 C 
ATOM     28  C   UNL     1      33.953 -23.828 -14.452  0.00  0.00    +0.075 C 
ATOM     29  C   UNL     1      36.462 -22.674 -17.056  0.00  0.00    +0.237 C 
ATOM     30  C   UNL     1      34.202 -22.767 -17.960  0.00  0.00    +0.096 C 
ATOM     31  C   UNL     1      33.131 -22.588 -19.004  0.00  0.00    +0.062 C 
ENDBRANCH  19  23
ENDBRANCH  18  19
ENDBRANCH   1  18
TORSDOF 4
ENDMDL
