MODEL 1
REMARK VINA RESULT:     -11.6      0.000      0.000
REMARK  Name = 208951
REMARK  4 active torsions:
REMARK  status: ('A' for Active; 'I' for Inactive)
REMARK    1  A    between atoms: N_1  and  C_19
REMARK    2  A    between atoms: N_2  and  C_11
REMARK    3  A    between atoms: C_19  and  C_20
REMARK    4  A    between atoms: C_23  and  C_26
REMARK                            x       y       z     vdW  Elec       q    Type
REMARK                         _______ _______ _______ _____ _____    ______ ____
ROOT
ATOM      1  N   UNL     1      34.758 -16.427 -23.648  0.00  0.00    +0.392 N 
ATOM      2  N   UNL     1      33.980 -13.692 -23.376  0.00  0.00    -0.309 N 
ATOM      3  C   UNL     1      34.359 -15.895 -22.340  0.00  0.00    -0.055 C 
ATOM      4  C   UNL     1      33.994 -15.764 -24.712  0.00  0.00    -0.055 C 
ATOM      5  C   UNL     1      34.620 -14.389 -22.256  0.00  0.00    +0.068 C 
ATOM      6  C   UNL     1      34.244 -14.253 -24.707  0.00  0.00    +0.068 C 
ATOM      7  H   UNL     1      35.751 -16.241 -23.791  0.00  0.00    -0.079 HD
ENDROOT
BRANCH   2  11
ATOM      8  O   UNL     1      31.866 -12.557 -21.669  0.00  0.00    -0.406 OA
ATOM      9  O   UNL     1      30.165 -11.839 -20.275  0.00  0.00    -0.223 OA
ATOM     10  N   UNL     1      31.422 -10.308 -21.503  0.00  0.00    -0.287 N 
ATOM     11  C   UNL     1      33.715 -12.321 -23.282  0.00  0.00    +0.084 C 
ATOM     12  C   UNL     1      32.712 -11.807 -22.469  0.00  0.00    +0.179 A 
ATOM     13  C   UNL     1      34.460 -11.373 -24.012  0.00  0.00    +0.018 C 
ATOM     14  C   UNL     1      32.462 -10.454 -22.384  0.00  0.00    +0.098 A 
ATOM     15  C   UNL     1      34.194  -9.991 -23.918  0.00  0.00    +0.003 C 
ATOM     16  C   UNL     1      33.177  -9.514 -23.089  0.00  0.00    +0.020 C 
ATOM     17  C   UNL     1      31.059 -11.572 -21.069  0.00  0.00    +0.419 A 
ATOM     18  H   UNL     1      31.008  -9.458 -21.229  0.00  0.00    +0.172 HD
ENDBRANCH   2  11
BRANCH   1  19
ATOM     19  C   UNL     1      34.554 -17.874 -23.697  0.00  0.00    -0.050 C 
BRANCH  19  20
ATOM     20  C   UNL     1      35.340 -18.569 -22.618  0.00  0.00    -0.043 C 
ATOM     21  C   UNL     1      34.694 -19.450 -21.761  0.00  0.00    -0.006 C 
ATOM     22  C   UNL     1      36.701 -18.321 -22.495  0.00  0.00    -0.006 C 
ATOM     23  C   UNL     1      35.424 -20.095 -20.762  0.00  0.00    -0.000 C 
ATOM     24  C   UNL     1      37.429 -18.965 -21.496  0.00  0.00    -0.000 C 
ATOM     25  C   UNL     1      36.791 -19.851 -20.629  0.00  0.00    -0.000 C 
BRANCH  23  26
ATOM     26  C   UNL     1      34.763 -21.016 -19.863  0.00  0.00    -0.000 C 
ATOM     27  C   UNL     1      35.517 -21.895 -19.086  0.00  0.00    -0.000 C 
ATOM     28  C   UNL     1      33.370 -21.025 -19.773  0.00  0.00    -0.000 C 
ATOM     29  C   UNL     1      34.880 -22.783 -18.219  0.00  0.00    -0.000 C 
ATOM     30  C   UNL     1      32.734 -21.914 -18.907  0.00  0.00    -0.000 C 
ATOM     31  C   UNL     1      33.489 -22.792 -18.130  0.00  0.00    +0.000 C 
ENDBRANCH  23  26
ENDBRANCH  19  20
ENDBRANCH   1  19
TORSDOF 4
ENDMDL
MODEL 2
REMARK VINA RESULT:     -11.3      3.253     10.892
REMARK  Name = 208951
REMARK  4 active torsions:
REMARK  status: ('A' for Active; 'I' for Inactive)
REMARK    1  A    between atoms: N_1  and  C_19
REMARK    2  A    between atoms: N_2  and  C_11
REMARK    3  A    between atoms: C_19  and  C_20
REMARK    4  A    between atoms: C_23  and  C_26
REMARK                            x       y       z     vdW  Elec       q    Type
REMARK                         _______ _______ _______ _____ _____    ______ ____
ROOT
ATOM      1  N   UNL     1      32.090 -11.268 -21.247  0.00  0.00    +0.392 N 
ATOM      2  N   UNL     1      33.243 -13.831 -21.755  0.00  0.00    -0.309 N 
ATOM      3  C   UNL     1      32.657 -11.580 -22.565  0.00  0.00    -0.055 C 
ATOM      4  C   UNL     1      31.500 -12.476 -20.658  0.00  0.00    -0.055 C 
ATOM      5  C   UNL     1      33.749 -12.646 -22.455  0.00  0.00    +0.068 C 
ATOM      6  C   UNL     1      32.554 -13.572 -20.484  0.00  0.00    +0.068 C 
ATOM      7  H   UNL     1      32.837 -10.935 -20.638  0.00  0.00    -0.079 HD
ENDROOT
BRANCH   2  11
ATOM      8  O   UNL     1      33.646 -15.136 -24.364  0.00  0.00    -0.406 OA
ATOM      9  O   UNL     1      33.876 -16.017 -26.491  0.00  0.00    -0.223 OA
ATOM     10  N   UNL     1      34.711 -17.155 -24.637  0.00  0.00    -0.287 N 
ATOM     11  C   UNL     1      33.891 -15.062 -21.912  0.00  0.00    +0.084 C 
ATOM     12  C   UNL     1      34.071 -15.660 -23.153  0.00  0.00    +0.179 A 
ATOM     13  C   UNL     1      34.407 -15.771 -20.809  0.00  0.00    +0.018 C 
ATOM     14  C   UNL     1      34.713 -16.871 -23.296  0.00  0.00    +0.098 A 
ATOM     15  C   UNL     1      35.061 -17.010 -20.967  0.00  0.00    +0.003 C 
ATOM     16  C   UNL     1      35.222 -17.579 -22.232  0.00  0.00    +0.020 C 
ATOM     17  C   UNL     1      34.069 -16.113 -25.285  0.00  0.00    +0.419 A 
ATOM     18  H   UNL     1      35.095 -17.955 -25.061  0.00  0.00    +0.172 HD
ENDBRANCH   2  11
BRANCH   1  19
ATOM     19  C   UNL     1      31.087 -10.210 -21.359  0.00  0.00    -0.050 C 
BRANCH  19  20
ATOM     20  C   UNL     1      31.715  -8.850 -21.221  0.00  0.00    -0.043 C 
ATOM     21  C   UNL     1      31.945  -8.084 -22.356  0.00  0.00    -0.006 C 
ATOM     22  C   UNL     1      32.056  -8.378 -19.960  0.00  0.00    -0.006 C 
ATOM     23  C   UNL     1      32.528  -6.823 -22.227  0.00  0.00    -0.000 C 
ATOM     24  C   UNL     1      32.638  -7.118 -19.832  0.00  0.00    -0.000 C 
ATOM     25  C   UNL     1      32.874  -6.340 -20.965  0.00  0.00    -0.000 C 
BRANCH  23  26
ATOM     26  C   UNL     1      32.771  -6.014 -23.403  0.00  0.00    -0.000 C 
ATOM     27  C   UNL     1      33.811  -6.343 -24.272  0.00  0.00    -0.000 C 
ATOM     28  C   UNL     1      31.964  -4.907 -23.667  0.00  0.00    -0.000 C 
ATOM     29  C   UNL     1      34.045  -5.564 -25.405  0.00  0.00    -0.000 C 
ATOM     30  C   UNL     1      32.199  -4.128 -24.800  0.00  0.00    -0.000 C 
ATOM     31  C   UNL     1      33.239  -4.457 -25.669  0.00  0.00    +0.000 C 
ENDBRANCH  23  26
ENDBRANCH  19  20
ENDBRANCH   1  19
TORSDOF 4
ENDMDL
MODEL 3
REMARK VINA RESULT:     -11.2      6.900     12.291
REMARK  Name = 208951
REMARK  4 active torsions:
REMARK  status: ('A' for Active; 'I' for Inactive)
REMARK    1  A    between atoms: N_1  and  C_19
REMARK    2  A    between atoms: N_2  and  C_11
REMARK    3  A    between atoms: C_19  and  C_20
REMARK    4  A    between atoms: C_23  and  C_26
REMARK                            x       y       z     vdW  Elec       q    Type
REMARK                         _______ _______ _______ _____ _____    ______ ____
ROOT
ATOM      1  N   UNL     1      36.311 -22.091 -17.576  0.00  0.00    +0.392 N 
ATOM      2  N   UNL     1      36.309 -23.540 -15.114  0.00  0.00    -0.309 N 
ATOM      3  C   UNL     1      37.571 -22.376 -16.880  0.00  0.00    -0.055 C 
ATOM      4  C   UNL     1      35.363 -23.192 -17.364  0.00  0.00    -0.055 C 
ATOM      5  C   UNL     1      37.345 -22.536 -15.375  0.00  0.00    +0.068 C 
ATOM      6  C   UNL     1      35.062 -23.379 -15.874  0.00  0.00    +0.068 C 
ATOM      7  H   UNL     1      35.910 -21.234 -17.194  0.00  0.00    -0.079 HD
ENDROOT
BRANCH   2  11
ATOM      8  O   UNL     1      38.375 -25.364 -14.078  0.00  0.00    -0.406 OA
ATOM      9  O   UNL     1      40.091 -26.771 -13.422  0.00  0.00    -0.223 OA
ATOM     10  N   UNL     1      38.272 -26.381 -12.018  0.00  0.00    -0.287 N 
ATOM     11  C   UNL     1      36.238 -24.155 -13.859  0.00  0.00    +0.084 C 
ATOM     12  C   UNL     1      37.225 -25.013 -13.389  0.00  0.00    +0.179 A 
ATOM     13  C   UNL     1      35.150 -23.937 -12.989  0.00  0.00    +0.018 C 
ATOM     14  C   UNL     1      37.144 -25.612 -12.151  0.00  0.00    +0.098 A 
ATOM     15  C   UNL     1      35.078 -24.556 -11.725  0.00  0.00    +0.003 C 
ATOM     16  C   UNL     1      36.091 -25.412 -11.289  0.00  0.00    +0.020 C 
ATOM     17  C   UNL     1      39.017 -26.234 -13.177  0.00  0.00    +0.419 A 
ATOM     18  H   UNL     1      38.509 -26.935 -11.241  0.00  0.00    +0.172 HD
ENDBRANCH   2  11
BRANCH   1  19
ATOM     19  C   UNL     1      36.548 -21.888 -19.004  0.00  0.00    -0.050 C 
BRANCH  19  20
ATOM     20  C   UNL     1      35.357 -21.250 -19.666  0.00  0.00    -0.043 C 
ATOM     21  C   UNL     1      35.553 -20.289 -20.650  0.00  0.00    -0.006 C 
ATOM     22  C   UNL     1      34.077 -21.630 -19.286  0.00  0.00    -0.006 C 
ATOM     23  C   UNL     1      34.448 -19.699 -21.264  0.00  0.00    -0.000 C 
ATOM     24  C   UNL     1      32.973 -21.040 -19.899  0.00  0.00    -0.000 C 
ATOM     25  C   UNL     1      33.158 -20.074 -20.888  0.00  0.00    -0.000 C 
BRANCH  23  26
ATOM     26  C   UNL     1      34.640 -18.699 -22.292  0.00  0.00    -0.000 C 
ATOM     27  C   UNL     1      34.460 -19.033 -23.634  0.00  0.00    -0.000 C 
ATOM     28  C   UNL     1      35.005 -17.398 -21.940  0.00  0.00    -0.000 C 
ATOM     29  C   UNL     1      34.644 -18.068 -24.624  0.00  0.00    -0.000 C 
ATOM     30  C   UNL     1      35.189 -16.434 -22.930  0.00  0.00    -0.000 C 
ATOM     31  C   UNL     1      35.008 -16.769 -24.273  0.00  0.00    +0.000 C 
ENDBRANCH  23  26
ENDBRANCH  19  20
ENDBRANCH   1  19
TORSDOF 4
ENDMDL
MODEL 4
REMARK VINA RESULT:     -11.0      2.892      5.627
REMARK  Name = 208951
REMARK  4 active torsions:
REMARK  status: ('A' for Active; 'I' for Inactive)
REMARK    1  A    between atoms: N_1  and  C_19
REMARK    2  A    between atoms: N_2  and  C_11
REMARK    3  A    between atoms: C_19  and  C_20
REMARK    4  A    between atoms: C_23  and  C_26
REMARK                            x       y       z     vdW  Elec       q    Type
REMARK                         _______ _______ _______ _____ _____    ______ ____
ROOT
ATOM      1  N   UNL     1      36.035 -20.802 -19.817  0.00  0.00    +0.392 N 
ATOM      2  N   UNL     1      35.346 -18.816 -21.751  0.00  0.00    -0.309 N 
ATOM      3  C   UNL     1      34.798 -20.923 -20.599  0.00  0.00    -0.055 C 
ATOM      4  C   UNL     1      37.078 -20.163 -20.628  0.00  0.00    -0.055 C 
ATOM      5  C   UNL     1      34.291 -19.549 -21.043  0.00  0.00    +0.068 C 
ATOM      6  C   UNL     1      36.647 -18.762 -21.072  0.00  0.00    +0.068 C 
ATOM      7  H   UNL     1      35.851 -20.220 -18.999  0.00  0.00    -0.079 HD
ENDROOT
BRANCH   2  11
ATOM      8  O   UNL     1      34.683 -16.108 -20.800  0.00  0.00    -0.406 OA
ATOM      9  O   UNL     1      34.191 -14.043 -19.881  0.00  0.00    -0.223 OA
ATOM     10  N   UNL     1      34.124 -14.363 -22.188  0.00  0.00    -0.287 N 
ATOM     11  C   UNL     1      35.006 -17.759 -22.603  0.00  0.00    +0.084 C 
ATOM     12  C   UNL     1      34.696 -16.488 -22.133  0.00  0.00    +0.179 A 
ATOM     13  C   UNL     1      34.958 -17.923 -24.002  0.00  0.00    +0.018 C 
ATOM     14  C   UNL     1      34.364 -15.455 -22.982  0.00  0.00    +0.098 A 
ATOM     15  C   UNL     1      34.616 -16.859 -24.861  0.00  0.00    +0.003 C 
ATOM     16  C   UNL     1      34.312 -15.596 -24.349  0.00  0.00    +0.020 C 
ATOM     17  C   UNL     1      34.315 -14.752 -20.872  0.00  0.00    +0.419 A 
ATOM     18  H   UNL     1      33.864 -13.467 -22.498  0.00  0.00    +0.172 HD
ENDBRANCH   2  11
BRANCH   1  19
ATOM     19  C   UNL     1      36.478 -22.115 -19.353  0.00  0.00    -0.050 C 
BRANCH  19  20
ATOM     20  C   UNL     1      36.247 -22.274 -17.874  0.00  0.00    -0.043 C 
ATOM     21  C   UNL     1      35.040 -22.792 -17.423  0.00  0.00    -0.006 C 
ATOM     22  C   UNL     1      37.243 -21.903 -16.982  0.00  0.00    -0.006 C 
ATOM     23  C   UNL     1      34.827 -22.940 -16.052  0.00  0.00    -0.000 C 
ATOM     24  C   UNL     1      37.030 -22.051 -15.612  0.00  0.00    -0.000 C 
ATOM     25  C   UNL     1      35.822 -22.569 -15.147  0.00  0.00    -0.000 C 
BRANCH  23  26
ATOM     26  C   UNL     1      33.574 -23.479 -15.568  0.00  0.00    -0.000 C 
ATOM     27  C   UNL     1      33.522 -24.125 -14.333  0.00  0.00    -0.000 C 
ATOM     28  C   UNL     1      32.417 -23.353 -16.338  0.00  0.00    -0.000 C 
ATOM     29  C   UNL     1      32.314 -24.644 -13.867  0.00  0.00    -0.000 C 
ATOM     30  C   UNL     1      31.210 -23.873 -15.872  0.00  0.00    -0.000 C 
ATOM     31  C   UNL     1      31.158 -24.518 -14.636  0.00  0.00    +0.000 C 
ENDBRANCH  23  26
ENDBRANCH  19  20
ENDBRANCH   1  19
TORSDOF 4
ENDMDL
MODEL 5
REMARK VINA RESULT:     -11.0      6.681     12.127
REMARK  Name = 208951
REMARK  4 active torsions:
REMARK  status: ('A' for Active; 'I' for Inactive)
REMARK    1  A    between atoms: N_1  and  C_19
REMARK    2  A    between atoms: N_2  and  C_11
REMARK    3  A    between atoms: C_19  and  C_20
REMARK    4  A    between atoms: C_23  and  C_26
REMARK                            x       y       z     vdW  Elec       q    Type
REMARK                         _______ _______ _______ _____ _____    ______ ____
ROOT
ATOM      1  N   UNL     1      34.490 -22.507 -17.714  0.00  0.00    +0.392 N 
ATOM      2  N   UNL     1      35.198 -23.827 -15.282  0.00  0.00    -0.309 N 
ATOM      3  C   UNL     1      35.898 -22.764 -17.390  0.00  0.00    -0.055 C 
ATOM      4  C   UNL     1      33.651 -23.589 -17.186  0.00  0.00    -0.055 C 
ATOM      5  C   UNL     1      36.110 -22.845 -15.876  0.00  0.00    +0.068 C 
ATOM      6  C   UNL     1      33.786 -23.697 -15.665  0.00  0.00    +0.068 C 
ATOM      7  H   UNL     1      34.207 -21.629 -17.279  0.00  0.00    -0.079 HD
ENDROOT
BRANCH   2  11
ATOM      8  O   UNL     1      37.444 -25.669 -14.797  0.00  0.00    -0.406 OA
ATOM      9  O   UNL     1      39.250 -27.101 -14.597  0.00  0.00    -0.223 OA
ATOM     10  N   UNL     1      37.936 -26.578 -12.744  0.00  0.00    -0.287 N 
ATOM     11  C   UNL     1      35.491 -24.377 -14.028  0.00  0.00    +0.084 C 
ATOM     12  C   UNL     1      36.556 -25.245 -13.822  0.00  0.00    +0.179 A 
ATOM     13  C   UNL     1      34.714 -24.078 -12.890  0.00  0.00    +0.018 C 
ATOM     14  C   UNL     1      36.835 -25.779 -12.583  0.00  0.00    +0.098 A 
ATOM     15  C   UNL     1      35.008 -24.631 -11.627  0.00  0.00    +0.003 C 
ATOM     16  C   UNL     1      36.089 -25.499 -11.461  0.00  0.00    +0.020 C 
ATOM     17  C   UNL     1      38.307 -26.516 -14.078  0.00  0.00    +0.419 A 
ATOM     18  H   UNL     1      38.383 -27.101 -12.041  0.00  0.00    +0.172 HD
ENDBRANCH   2  11
BRANCH   1  19
ATOM     19  C   UNL     1      34.311 -22.378 -19.159  0.00  0.00    -0.050 C 
BRANCH  19  20
ATOM     20  C   UNL     1      35.238 -21.339 -19.730  0.00  0.00    -0.043 C 
ATOM     21  C   UNL     1      34.815 -20.556 -20.795  0.00  0.00    -0.006 C 
ATOM     22  C   UNL     1      36.504 -21.176 -19.183  0.00  0.00    -0.006 C 
ATOM     23  C   UNL     1      35.674 -19.592 -21.323  0.00  0.00    -0.000 C 
ATOM     24  C   UNL     1      37.362 -20.213 -19.710  0.00  0.00    -0.000 C 
ATOM     25  C   UNL     1      36.948 -19.421 -20.781  0.00  0.00    -0.000 C 
BRANCH  23  26
ATOM     26  C   UNL     1      35.244 -18.768 -22.432  0.00  0.00    -0.000 C 
ATOM     27  C   UNL     1      34.685 -19.360 -23.565  0.00  0.00    -0.000 C 
ATOM     28  C   UNL     1      35.389 -17.381 -22.369  0.00  0.00    -0.000 C 
ATOM     29  C   UNL     1      34.270 -18.566 -24.634  0.00  0.00    -0.000 C 
ATOM     30  C   UNL     1      34.975 -16.588 -23.438  0.00  0.00    -0.000 C 
ATOM     31  C   UNL     1      34.414 -17.181 -24.571  0.00  0.00    +0.000 C 
ENDBRANCH  23  26
ENDBRANCH  19  20
ENDBRANCH   1  19
TORSDOF 4
ENDMDL
MODEL 6
REMARK VINA RESULT:     -10.8      1.770      3.193
REMARK  Name = 208951
REMARK  4 active torsions:
REMARK  status: ('A' for Active; 'I' for Inactive)
REMARK    1  A    between atoms: N_1  and  C_19
REMARK    2  A    between atoms: N_2  and  C_11
REMARK    3  A    between atoms: C_19  and  C_20
REMARK    4  A    between atoms: C_23  and  C_26
REMARK                            x       y       z     vdW  Elec       q    Type
REMARK                         _______ _______ _______ _____ _____    ______ ____
ROOT
ATOM      1  N   UNL     1      34.221 -15.248 -22.512  0.00  0.00    +0.392 N 
ATOM      2  N   UNL     1      33.006 -13.018 -21.203  0.00  0.00    -0.309 N 
ATOM      3  C   UNL     1      33.912 -14.025 -23.261  0.00  0.00    -0.055 C 
ATOM      4  C   UNL     1      34.585 -14.910 -21.131  0.00  0.00    -0.055 C 
ATOM      5  C   UNL     1      32.744 -13.269 -22.624  0.00  0.00    +0.068 C 
ATOM      6  C   UNL     1      33.438 -14.185 -20.422  0.00  0.00    +0.068 C 
ATOM      7  H   UNL     1      33.392 -15.843 -22.497  0.00  0.00    -0.079 HD
ENDROOT
BRANCH   2  11
ATOM      8  O   UNL     1      32.783 -10.264 -22.221  0.00  0.00    -0.406 OA
ATOM      9  O   UNL     1      32.708  -8.155 -23.168  0.00  0.00    -0.223 OA
ATOM     10  N   UNL     1      31.646  -8.585 -21.138  0.00  0.00    -0.287 N 
ATOM     11  C   UNL     1      32.313 -12.002 -20.537  0.00  0.00    +0.084 C 
ATOM     12  C   UNL     1      32.220 -10.708 -21.035  0.00  0.00    +0.179 A 
ATOM     13  C   UNL     1      31.660 -12.234 -19.309  0.00  0.00    +0.018 C 
ATOM     14  C   UNL     1      31.533  -9.716 -20.371  0.00  0.00    +0.098 A 
ATOM     15  C   UNL     1      30.961 -11.210 -18.637  0.00  0.00    +0.003 C 
ATOM     16  C   UNL     1      30.890  -9.923 -19.172  0.00  0.00    +0.020 C 
ATOM     17  C   UNL     1      32.398  -8.911 -22.255  0.00  0.00    +0.419 A 
ATOM     18  H   UNL     1      31.262  -7.703 -20.933  0.00  0.00    +0.172 HD
ENDBRANCH   2  11
BRANCH   1  19
ATOM     19  C   UNL     1      35.302 -15.988 -23.160  0.00  0.00    -0.050 C 
BRANCH  19  20
ATOM     20  C   UNL     1      34.991 -17.459 -23.223  0.00  0.00    -0.043 C 
ATOM     21  C   UNL     1      35.110 -18.233 -22.076  0.00  0.00    -0.006 C 
ATOM     22  C   UNL     1      34.587 -18.023 -24.426  0.00  0.00    -0.006 C 
ATOM     23  C   UNL     1      34.821 -19.597 -22.135  0.00  0.00    -0.000 C 
ATOM     24  C   UNL     1      34.298 -19.385 -24.484  0.00  0.00    -0.000 C 
ATOM     25  C   UNL     1      34.415 -20.173 -23.339  0.00  0.00    -0.000 C 
BRANCH  23  26
ATOM     26  C   UNL     1      34.940 -20.414 -20.947  0.00  0.00    -0.000 C 
ATOM     27  C   UNL     1      33.795 -20.903 -20.318  0.00  0.00    -0.000 C 
ATOM     28  C   UNL     1      36.202 -20.714 -20.430  0.00  0.00    -0.000 C 
ATOM     29  C   UNL     1      33.911 -21.691 -19.173  0.00  0.00    -0.000 C 
ATOM     30  C   UNL     1      36.316 -21.501 -19.285  0.00  0.00    -0.000 C 
ATOM     31  C   UNL     1      35.171 -21.990 -18.657  0.00  0.00    +0.000 C 
ENDBRANCH  23  26
ENDBRANCH  19  20
ENDBRANCH   1  19
TORSDOF 4
ENDMDL
MODEL 7
REMARK VINA RESULT:     -10.8      3.052      6.002
REMARK  Name = 208951
REMARK  4 active torsions:
REMARK  status: ('A' for Active; 'I' for Inactive)
REMARK    1  A    between atoms: N_1  and  C_19
REMARK    2  A    between atoms: N_2  and  C_11
REMARK    3  A    between atoms: C_19  and  C_20
REMARK    4  A    between atoms: C_23  and  C_26
REMARK                            x       y       z     vdW  Elec       q    Type
REMARK                         _______ _______ _______ _____ _____    ______ ____
ROOT
ATOM      1  N   UNL     1      36.008 -20.640 -19.652  0.00  0.00    +0.392 N 
ATOM      2  N   UNL     1      35.337 -18.787 -21.720  0.00  0.00    -0.309 N 
ATOM      3  C   UNL     1      34.803 -20.839 -20.466  0.00  0.00    -0.055 C 
ATOM      4  C   UNL     1      37.062 -20.020 -20.463  0.00  0.00    -0.055 C 
ATOM      5  C   UNL     1      34.277 -19.507 -21.006  0.00  0.00    +0.068 C 
ATOM      6  C   UNL     1      36.612 -18.660 -21.003  0.00  0.00    +0.068 C 
ATOM      7  H   UNL     1      35.782 -20.018 -18.875  0.00  0.00    -0.079 HD
ENDROOT
BRANCH   2  11
ATOM      8  O   UNL     1      34.667 -16.023 -20.957  0.00  0.00    -0.406 OA
ATOM      9  O   UNL     1      34.170 -13.901 -20.181  0.00  0.00    -0.223 OA
ATOM     10  N   UNL     1      34.114 -14.376 -22.462  0.00  0.00    -0.287 N 
ATOM     11  C   UNL     1      35.000 -17.791 -22.643  0.00  0.00    +0.084 C 
ATOM     12  C   UNL     1      34.688 -16.492 -22.261  0.00  0.00    +0.179 A 
ATOM     13  C   UNL     1      34.959 -18.049 -24.028  0.00  0.00    +0.018 C 
ATOM     14  C   UNL     1      34.359 -15.518 -23.179  0.00  0.00    +0.098 A 
ATOM     15  C   UNL     1      34.620 -17.045 -24.958  0.00  0.00    +0.003 C 
ATOM     16  C   UNL     1      34.313 -15.751 -24.534  0.00  0.00    +0.020 C 
ATOM     17  C   UNL     1      34.299 -14.675 -21.122  0.00  0.00    +0.419 A 
ATOM     18  H   UNL     1      33.854 -13.502 -22.832  0.00  0.00    +0.172 HD
ENDBRANCH   2  11
BRANCH   1  19
ATOM     19  C   UNL     1      36.469 -21.912 -19.097  0.00  0.00    -0.050 C 
BRANCH  19  20
ATOM     20  C   UNL     1      35.471 -22.470 -18.120  0.00  0.00    -0.043 C 
ATOM     21  C   UNL     1      35.872 -22.759 -16.822  0.00  0.00    -0.006 C 
ATOM     22  C   UNL     1      34.162 -22.689 -18.527  0.00  0.00    -0.006 C 
ATOM     23  C   UNL     1      34.946 -23.276 -15.915  0.00  0.00    -0.000 C 
ATOM     24  C   UNL     1      33.237 -23.206 -17.621  0.00  0.00    -0.000 C 
ATOM     25  C   UNL     1      33.628 -23.499 -16.316  0.00  0.00    -0.000 C 
BRANCH  23  26
ATOM     26  C   UNL     1      35.351 -23.579 -14.560  0.00  0.00    -0.000 C 
ATOM     27  C   UNL     1      36.631 -23.238 -14.122  0.00  0.00    -0.000 C 
ATOM     28  C   UNL     1      34.462 -24.211 -13.690  0.00  0.00    -0.000 C 
ATOM     29  C   UNL     1      37.022 -23.529 -12.815  0.00  0.00    -0.000 C 
ATOM     30  C   UNL     1      34.853 -24.503 -12.384  0.00  0.00    -0.000 C 
ATOM     31  C   UNL     1      36.133 -24.162 -11.946  0.00  0.00    +0.000 C 
ENDBRANCH  23  26
ENDBRANCH  19  20
ENDBRANCH   1  19
TORSDOF 4
ENDMDL
MODEL 8
REMARK VINA RESULT:     -10.8      1.582      2.609
REMARK  Name = 208951
REMARK  4 active torsions:
REMARK  status: ('A' for Active; 'I' for Inactive)
REMARK    1  A    between atoms: N_1  and  C_19
REMARK    2  A    between atoms: N_2  and  C_11
REMARK    3  A    between atoms: C_19  and  C_20
REMARK    4  A    between atoms: C_23  and  C_26
REMARK                            x       y       z     vdW  Elec       q    Type
REMARK                         _______ _______ _______ _____ _____    ______ ____
ROOT
ATOM      1  N   UNL     1      34.335 -16.973 -23.443  0.00  0.00    +0.392 N 
ATOM      2  N   UNL     1      33.572 -14.268 -22.933  0.00  0.00    -0.309 N 
ATOM      3  C   UNL     1      34.186 -16.021 -24.551  0.00  0.00    -0.055 C 
ATOM      4  C   UNL     1      34.826 -16.276 -22.249  0.00  0.00    -0.055 C 
ATOM      5  C   UNL     1      33.193 -14.912 -24.194  0.00  0.00    +0.068 C 
ATOM      6  C   UNL     1      33.854 -15.176 -21.814  0.00  0.00    +0.068 C 
ATOM      7  H   UNL     1      33.423 -17.380 -23.235  0.00  0.00    -0.079 HD
ENDROOT
BRANCH   2  11
ATOM      8  O   UNL     1      34.678 -11.800 -24.099  0.00  0.00    -0.406 OA
ATOM      9  O   UNL     1      35.667  -9.969 -25.109  0.00  0.00    -0.223 OA
ATOM     10  N   UNL     1      33.896  -9.693 -23.619  0.00  0.00    -0.287 N 
ATOM     11  C   UNL     1      33.091 -12.988 -22.635  0.00  0.00    +0.084 C 
ATOM     12  C   UNL     1      33.627 -11.836 -23.197  0.00  0.00    +0.179 A 
ATOM     13  C   UNL     1      32.020 -12.791 -21.738  0.00  0.00    +0.018 C 
ATOM     14  C   UNL     1      33.144 -10.581 -22.896  0.00  0.00    +0.098 A 
ATOM     15  C   UNL     1      31.535 -11.502 -21.437  0.00  0.00    +0.003 C 
ATOM     16  C   UNL     1      32.101 -10.369 -22.024  0.00  0.00    +0.020 C 
ATOM     17  C   UNL     1      34.823 -10.422 -24.346  0.00  0.00    +0.419 A 
ATOM     18  H   UNL     1      33.796  -8.714 -23.621  0.00  0.00    +0.172 HD
ENDBRANCH   2  11
BRANCH   1  19
ATOM     19  C   UNL     1      35.243 -18.055 -23.816  0.00  0.00    -0.050 C 
BRANCH  19  20
ATOM     20  C   UNL     1      35.836 -18.710 -22.597  0.00  0.00    -0.043 C 
ATOM     21  C   UNL     1      35.042 -19.534 -21.810  0.00  0.00    -0.006 C 
ATOM     22  C   UNL     1      37.167 -18.483 -22.277  0.00  0.00    -0.006 C 
ATOM     23  C   UNL     1      35.593 -20.141 -20.680  0.00  0.00    -0.000 C 
ATOM     24  C   UNL     1      37.716 -19.090 -21.149  0.00  0.00    -0.000 C 
ATOM     25  C   UNL     1      36.929 -19.918 -20.350  0.00  0.00    -0.000 C 
BRANCH  23  26
ATOM     26  C   UNL     1      34.777 -21.003 -19.852  0.00  0.00    -0.000 C 
ATOM     27  C   UNL     1      33.388 -20.881 -19.874  0.00  0.00    -0.000 C 
ATOM     28  C   UNL     1      35.380 -21.958 -19.032  0.00  0.00    -0.000 C 
ATOM     29  C   UNL     1      32.601 -21.712 -19.076  0.00  0.00    -0.000 C 
ATOM     30  C   UNL     1      34.594 -22.788 -18.234  0.00  0.00    -0.000 C 
ATOM     31  C   UNL     1      33.204 -22.665 -18.257  0.00  0.00    +0.000 C 
ENDBRANCH  23  26
ENDBRANCH  19  20
ENDBRANCH   1  19
TORSDOF 4
ENDMDL
MODEL 9
REMARK VINA RESULT:     -10.6      1.689      3.051
REMARK  Name = 208951
REMARK  4 active torsions:
REMARK  status: ('A' for Active; 'I' for Inactive)
REMARK    1  A    between atoms: N_1  and  C_19
REMARK    2  A    between atoms: N_2  and  C_11
REMARK    3  A    between atoms: C_19  and  C_20
REMARK    4  A    between atoms: C_23  and  C_26
REMARK                            x       y       z     vdW  Elec       q    Type
REMARK                         _______ _______ _______ _____ _____    ______ ____
ROOT
ATOM      1  N   UNL     1      34.942 -18.227 -21.900  0.00  0.00    +0.392 N 
ATOM      2  N   UNL     1      34.409 -15.508 -22.596  0.00  0.00    -0.309 N 
ATOM      3  C   UNL     1      35.379 -17.692 -23.195  0.00  0.00    -0.055 C 
ATOM      4  C   UNL     1      35.002 -17.174 -20.879  0.00  0.00    -0.055 C 
ATOM      5  C   UNL     1      34.484 -16.533 -23.642  0.00  0.00    +0.068 C 
ATOM      6  C   UNL     1      34.094 -15.998 -21.248  0.00  0.00    +0.068 C 
ATOM      7  H   UNL     1      33.977 -18.548 -21.985  0.00  0.00    -0.079 HD
ENDROOT
BRANCH   2  11
ATOM      8  O   UNL     1      32.774 -13.799 -20.842  0.00  0.00    -0.406 OA
ATOM      9  O   UNL     1      31.488 -12.596 -19.341  0.00  0.00    -0.223 OA
ATOM     10  N   UNL     1      32.137 -11.655 -21.373  0.00  0.00    -0.287 N 
ATOM     11  C   UNL     1      34.024 -14.204 -22.928  0.00  0.00    +0.084 C 
ATOM     12  C   UNL     1      33.252 -13.414 -22.084  0.00  0.00    +0.179 A 
ATOM     13  C   UNL     1      34.403 -13.609 -24.148  0.00  0.00    +0.018 C 
ATOM     14  C   UNL     1      32.881 -12.131 -22.421  0.00  0.00    +0.098 A 
ATOM     15  C   UNL     1      34.016 -12.295 -24.483  0.00  0.00    +0.003 C 
ATOM     16  C   UNL     1      33.240 -11.533 -23.607  0.00  0.00    +0.020 C 
ATOM     17  C   UNL     1      32.070 -12.657 -20.418  0.00  0.00    +0.419 A 
ATOM     18  H   UNL     1      31.725 -10.764 -21.310  0.00  0.00    +0.172 HD
ENDBRANCH   2  11
BRANCH   1  19
ATOM     19  C   UNL     1      35.770 -19.367 -21.510  0.00  0.00    -0.050 C 
BRANCH  19  20
ATOM     20  C   UNL     1      35.025 -20.286 -20.580  0.00  0.00    -0.043 C 
ATOM     21  C   UNL     1      35.698 -20.879 -19.520  0.00  0.00    -0.006 C 
ATOM     22  C   UNL     1      33.675 -20.528 -20.794  0.00  0.00    -0.006 C 
ATOM     23  C   UNL     1      35.006 -21.730 -18.658  0.00  0.00    -0.000 C 
ATOM     24  C   UNL     1      32.984 -21.378 -19.932  0.00  0.00    -0.000 C 
ATOM     25  C   UNL     1      33.649 -21.980 -18.865  0.00  0.00    -0.000 C 
BRANCH  23  26
ATOM     26  C   UNL     1      35.696 -22.353 -17.549  0.00  0.00    -0.000 C 
ATOM     27  C   UNL     1      37.055 -22.115 -17.350  0.00  0.00    -0.000 C 
ATOM     28  C   UNL     1      35.000 -23.192 -16.677  0.00  0.00    -0.000 C 
ATOM     29  C   UNL     1      37.720 -22.715 -16.280  0.00  0.00    -0.000 C 
ATOM     30  C   UNL     1      35.665 -23.792 -15.608  0.00  0.00    -0.000 C 
ATOM     31  C   UNL     1      37.025 -23.553 -15.410  0.00  0.00    +0.000 C 
ENDBRANCH  23  26
ENDBRANCH  19  20
ENDBRANCH   1  19
TORSDOF 4
ENDMDL
