MODEL 1
REMARK VINA RESULT:     -12.1      0.000      0.000
REMARK  Name = 15985904
REMARK  7 active torsions:
REMARK  status: ('A' for Active; 'I' for Inactive)
REMARK    1  A    between atoms: N_1  and  S_6
REMARK    2  A    between atoms: C_4  and  C_21
REMARK    3  A    between atoms: S_6  and  C_9
REMARK    4  A    between atoms: C_10  and  C_17
REMARK    5  A    between atoms: C_22  and  C_25
REMARK    6  A    between atoms: N_24  and  C_27
REMARK    7  A    between atoms: C_28  and  N_33
REMARK                            x       y       z     vdW  Elec       q    Type
REMARK                         _______ _______ _______ _____ _____    ______ ____
ROOT
ATOM      1  N   UNL     1      35.755 -20.072 -20.999  0.00  0.00    -0.167 N 
ATOM      2  C   UNL     1      36.702 -20.466 -20.149  0.00  0.00    +0.089 C 
ATOM      3  C   UNL     1      34.532 -20.511 -20.700  0.00  0.00    +0.089 C 
ATOM      4  C   UNL     1      36.054 -21.232 -19.205  0.00  0.00    +0.018 C 
ATOM      5  C   UNL     1      34.681 -21.261 -19.554  0.00  0.00    +0.019 C 
ENDROOT
BRANCH   1   6
ATOM      6  S   UNL     1      36.083 -19.075 -22.374  0.00  0.00    +0.080 S 
ATOM      7  O   UNL     1      35.482 -19.821 -23.465  0.00  0.00    -0.149 OA
ATOM      8  O   UNL     1      37.503 -18.782 -22.321  0.00  0.00    -0.149 OA
BRANCH   6   9
ATOM      9  C   UNL     1      35.207 -17.590 -22.097  0.00  0.00    +0.126 C 
ATOM     10  C   UNL     1      33.806 -15.219 -21.655  0.00  0.00    +0.003 C 
ATOM     11  C   UNL     1      34.855 -17.220 -20.799  0.00  0.00    +0.020 C 
ATOM     12  C   UNL     1      34.859 -16.774 -23.174  0.00  0.00    +0.020 C 
ATOM     13  C   UNL     1      34.154 -16.035 -20.578  0.00  0.00    +0.001 C 
ATOM     14  C   UNL     1      34.159 -15.589 -22.953  0.00  0.00    +0.001 C 
BRANCH  10  17
ATOM     15  N   UNL     1      31.912 -12.452 -20.438  0.00  0.00    -0.208 N 
ATOM     16  N   UNL     1      32.111 -11.953 -21.670  0.00  0.00    -0.176 NA
ATOM     17  C   UNL     1      33.085 -13.998 -21.427  0.00  0.00    +0.037 C 
ATOM     18  C   UNL     1      32.478 -13.677 -20.241  0.00  0.00    +0.086 C 
ATOM     19  C   UNL     1      32.829 -12.905 -22.269  0.00  0.00    +0.119 C 
ATOM     20  C   UNL     1      31.158 -11.691 -19.470  0.00  0.00    +0.140 C 
ENDBRANCH  10  17
ENDBRANCH   6   9
ENDBRANCH   1   6
BRANCH   4  21
ATOM     21  C   UNL     1      36.675 -21.858 -18.104  0.00  0.00    +0.006 C 
ATOM     22  C   UNL     1      36.088 -22.493 -17.050  0.00  0.00    +0.058 C 
BRANCH  22  25
ATOM     23  O   UNL     1      38.031 -22.706 -15.695  0.00  0.00    -0.270 OA
ATOM     24  N   UNL     1      36.209 -24.143 -15.341  0.00  0.00    -0.279 N 
ATOM     25  C   UNL     1      36.903 -23.110 -15.957  0.00  0.00    +0.250 C 
ATOM     26  H   UNL     1      35.306 -24.329 -15.687  0.00  0.00    +0.155 HD
BRANCH  24  27
ATOM     27  C   UNL     1      36.652 -24.958 -14.270  0.00  0.00    +0.064 C 
ATOM     28  C   UNL     1      36.739 -26.332 -14.426  0.00  0.00    +0.055 C 
ATOM     29  C   UNL     1      36.993 -24.345 -13.075  0.00  0.00    +0.016 C 
ATOM     30  C   UNL     1      37.178 -27.114 -13.358  0.00  0.00    +0.015 C 
ATOM     31  C   UNL     1      37.432 -25.127 -12.007  0.00  0.00    +0.001 C 
ATOM     32  C   UNL     1      37.525 -26.512 -12.148  0.00  0.00    +0.001 C 
BRANCH  28  33
ATOM     33  N   UNL     1      36.395 -26.964 -15.642  0.00  0.00    -0.356 N 
ATOM     34  H   UNL     1      36.088 -27.899 -15.640  0.00  0.00    +0.142 HD
ATOM     35  H   UNL     1      36.462 -26.469 -16.490  0.00  0.00    +0.142 HD
ENDBRANCH  28  33
ENDBRANCH  24  27
ENDBRANCH  22  25
ENDBRANCH   4  21
TORSDOF 7
ENDMDL
MODEL 2
REMARK VINA RESULT:     -12.0      1.085      1.457
REMARK  Name = 15985904
REMARK  7 active torsions:
REMARK  status: ('A' for Active; 'I' for Inactive)
REMARK    1  A    between atoms: N_1  and  S_6
REMARK    2  A    between atoms: C_4  and  C_21
REMARK    3  A    between atoms: S_6  and  C_9
REMARK    4  A    between atoms: C_10  and  C_17
REMARK    5  A    between atoms: C_22  and  C_25
REMARK    6  A    between atoms: N_24  and  C_27
REMARK    7  A    between atoms: C_28  and  N_33
REMARK                            x       y       z     vdW  Elec       q    Type
REMARK                         _______ _______ _______ _____ _____    ______ ____
ROOT
ATOM      1  N   UNL     1      35.051 -20.302 -20.762  0.00  0.00    -0.167 N 
ATOM      2  C   UNL     1      35.563 -21.032 -19.771  0.00  0.00    +0.089 C 
ATOM      3  C   UNL     1      33.720 -20.334 -20.834  0.00  0.00    +0.089 C 
ATOM      4  C   UNL     1      34.480 -21.595 -19.131  0.00  0.00    +0.018 C 
ATOM      5  C   UNL     1      33.314 -21.153 -19.804  0.00  0.00    +0.019 C 
ENDROOT
BRANCH   1   6
ATOM      6  S   UNL     1      36.029 -19.394 -21.860  0.00  0.00    +0.080 S 
ATOM      7  O   UNL     1      35.861 -20.109 -23.112  0.00  0.00    -0.149 OA
ATOM      8  O   UNL     1      37.320 -19.248 -21.214  0.00  0.00    -0.149 OA
BRANCH   6   9
ATOM      9  C   UNL     1      35.285 -17.817 -21.956  0.00  0.00    +0.126 C 
ATOM     10  C   UNL     1      34.099 -15.297 -22.110  0.00  0.00    +0.003 C 
ATOM     11  C   UNL     1      35.078 -17.218 -23.199  0.00  0.00    +0.020 C 
ATOM     12  C   UNL     1      34.899 -17.155 -20.791  0.00  0.00    +0.020 C 
ATOM     13  C   UNL     1      34.486 -15.958 -23.276  0.00  0.00    +0.001 C 
ATOM     14  C   UNL     1      34.306 -15.895 -20.868  0.00  0.00    +0.001 C 
BRANCH  10  17
ATOM     15  N   UNL     1      32.176 -12.310 -21.775  0.00  0.00    -0.208 N 
ATOM     16  N   UNL     1      32.948 -11.866 -22.782  0.00  0.00    -0.176 NA
ATOM     17  C   UNL     1      33.489 -13.999 -22.190  0.00  0.00    +0.037 C 
ATOM     18  C   UNL     1      32.461 -13.585 -21.382  0.00  0.00    +0.086 C 
ATOM     19  C   UNL     1      33.749 -12.906 -23.030  0.00  0.00    +0.119 C 
ATOM     20  C   UNL     1      31.162 -11.449 -21.217  0.00  0.00    +0.140 C 
ENDBRANCH  10  17
ENDBRANCH   6   9
ENDBRANCH   1   6
BRANCH   4  21
ATOM     21  C   UNL     1      34.555 -22.450 -18.012  0.00  0.00    +0.006 C 
ATOM     22  C   UNL     1      35.624 -22.690 -17.200  0.00  0.00    +0.058 C 
BRANCH  22  25
ATOM     23  O   UNL     1      34.449 -24.056 -15.648  0.00  0.00    -0.270 OA
ATOM     24  N   UNL     1      36.791 -23.932 -15.540  0.00  0.00    -0.279 N 
ATOM     25  C   UNL     1      35.531 -23.637 -16.044  0.00  0.00    +0.250 C 
ATOM     26  H   UNL     1      37.553 -23.498 -15.989  0.00  0.00    +0.155 HD
BRANCH  24  27
ATOM     27  C   UNL     1      37.103 -24.784 -14.453  0.00  0.00    +0.064 C 
ATOM     28  C   UNL     1      36.822 -26.140 -14.523  0.00  0.00    +0.055 C 
ATOM     29  C   UNL     1      37.693 -24.228 -13.330  0.00  0.00    +0.016 C 
ATOM     30  C   UNL     1      37.139 -26.959 -13.440  0.00  0.00    +0.015 C 
ATOM     31  C   UNL     1      38.010 -25.048 -12.247  0.00  0.00    +0.001 C 
ATOM     32  C   UNL     1      37.733 -26.414 -12.302  0.00  0.00    +0.001 C 
BRANCH  28  33
ATOM     33  N   UNL     1      36.223 -26.714 -15.666  0.00  0.00    -0.356 N 
ATOM     34  H   UNL     1      35.832 -26.135 -16.360  0.00  0.00    +0.142 HD
ATOM     35  H   UNL     1      36.197 -27.693 -15.769  0.00  0.00    +0.142 HD
ENDBRANCH  28  33
ENDBRANCH  24  27
ENDBRANCH  22  25
ENDBRANCH   4  21
TORSDOF 7
ENDMDL
MODEL 3
REMARK VINA RESULT:     -12.0      2.805     12.209
REMARK  Name = 15985904
REMARK  7 active torsions:
REMARK  status: ('A' for Active; 'I' for Inactive)
REMARK    1  A    between atoms: N_1  and  S_6
REMARK    2  A    between atoms: C_4  and  C_21
REMARK    3  A    between atoms: S_6  and  C_9
REMARK    4  A    between atoms: C_10  and  C_17
REMARK    5  A    between atoms: C_22  and  C_25
REMARK    6  A    between atoms: N_24  and  C_27
REMARK    7  A    between atoms: C_28  and  N_33
REMARK                            x       y       z     vdW  Elec       q    Type
REMARK                         _______ _______ _______ _____ _____    ______ ____
ROOT
ATOM      1  N   UNL     1      35.032 -17.485 -21.914  0.00  0.00    -0.167 N 
ATOM      2  C   UNL     1      34.894 -16.467 -22.763  0.00  0.00    +0.089 C 
ATOM      3  C   UNL     1      34.803 -17.170 -20.639  0.00  0.00    +0.089 C 
ATOM      4  C   UNL     1      34.544 -15.384 -21.986  0.00  0.00    +0.018 C 
ATOM      5  C   UNL     1      34.487 -15.829 -20.642  0.00  0.00    +0.019 C 
ENDROOT
BRANCH   1   6
ATOM      6  S   UNL     1      35.470 -19.078 -22.422  0.00  0.00    +0.080 S 
ATOM      7  O   UNL     1      36.911 -18.985 -22.573  0.00  0.00    -0.149 OA
ATOM      8  O   UNL     1      34.590 -19.397 -23.530  0.00  0.00    -0.149 OA
BRANCH   6   9
ATOM      9  C   UNL     1      35.065 -20.126 -21.084  0.00  0.00    +0.126 C 
ATOM     10  C   UNL     1      34.419 -21.798 -18.947  0.00  0.00    +0.003 C 
ATOM     11  C   UNL     1      33.729 -20.359 -20.761  0.00  0.00    +0.020 C 
ATOM     12  C   UNL     1      36.078 -20.728 -20.338  0.00  0.00    +0.020 C 
ATOM     13  C   UNL     1      33.406 -21.195 -19.693  0.00  0.00    +0.001 C 
ATOM     14  C   UNL     1      35.755 -21.564 -19.270  0.00  0.00    +0.001 C 
BRANCH  10  17
ATOM     15  N   UNL     1      34.284 -23.889 -16.060  0.00  0.00    -0.208 N 
ATOM     16  N   UNL     1      32.975 -23.971 -16.352  0.00  0.00    -0.176 NA
ATOM     17  C   UNL     1      34.086 -22.658 -17.846  0.00  0.00    +0.037 C 
ATOM     18  C   UNL     1      34.996 -23.112 -16.927  0.00  0.00    +0.086 C 
ATOM     19  C   UNL     1      32.861 -23.214 -17.447  0.00  0.00    +0.119 C 
ATOM     20  C   UNL     1      34.807 -24.592 -14.913  0.00  0.00    +0.140 C 
ENDBRANCH  10  17
ENDBRANCH   6   9
ENDBRANCH   1   6
BRANCH   4  21
ATOM     21  C   UNL     1      34.295 -14.084 -22.474  0.00  0.00    +0.006 C 
ATOM     22  C   UNL     1      34.102 -13.687 -23.764  0.00  0.00    +0.058 C 
BRANCH  22  25
ATOM     23  O   UNL     1      33.981 -11.839 -25.256  0.00  0.00    -0.270 OA
ATOM     24  N   UNL     1      33.459 -11.532 -22.988  0.00  0.00    -0.279 N 
ATOM     25  C   UNL     1      33.846 -12.253 -24.110  0.00  0.00    +0.250 C 
ATOM     26  H   UNL     1      33.404 -12.035 -22.143  0.00  0.00    +0.155 HD
BRANCH  24  27
ATOM     27  C   UNL     1      33.134 -10.155 -22.922  0.00  0.00    +0.064 C 
ATOM     28  C   UNL     1      31.910  -9.748 -22.416  0.00  0.00    +0.055 C 
ATOM     29  C   UNL     1      34.069  -9.237 -23.373  0.00  0.00    +0.016 C 
ATOM     30  C   UNL     1      31.612  -8.386 -22.361  0.00  0.00    +0.015 C 
ATOM     31  C   UNL     1      33.771  -7.875 -23.318  0.00  0.00    +0.001 C 
ATOM     32  C   UNL     1      32.543  -7.450 -22.812  0.00  0.00    +0.001 C 
BRANCH  28  33
ATOM     33  N   UNL     1      30.953 -10.677 -21.953  0.00  0.00    -0.356 N 
ATOM     34  H   UNL     1      31.240 -11.455 -21.422  0.00  0.00    +0.142 HD
ATOM     35  H   UNL     1      29.999 -10.548 -22.160  0.00  0.00    +0.142 HD
ENDBRANCH  28  33
ENDBRANCH  24  27
ENDBRANCH  22  25
ENDBRANCH   4  21
TORSDOF 7
ENDMDL
MODEL 4
REMARK VINA RESULT:     -11.7      2.899     12.358
REMARK  Name = 15985904
REMARK  7 active torsions:
REMARK  status: ('A' for Active; 'I' for Inactive)
REMARK    1  A    between atoms: N_1  and  S_6
REMARK    2  A    between atoms: C_4  and  C_21
REMARK    3  A    between atoms: S_6  and  C_9
REMARK    4  A    between atoms: C_10  and  C_17
REMARK    5  A    between atoms: C_22  and  C_25
REMARK    6  A    between atoms: N_24  and  C_27
REMARK    7  A    between atoms: C_28  and  N_33
REMARK                            x       y       z     vdW  Elec       q    Type
REMARK                         _______ _______ _______ _____ _____    ______ ____
ROOT
ATOM      1  N   UNL     1      34.895 -17.240 -21.869  0.00  0.00    -0.167 N 
ATOM      2  C   UNL     1      34.753 -16.180 -22.666  0.00  0.00    +0.089 C 
ATOM      3  C   UNL     1      34.662 -16.992 -20.581  0.00  0.00    +0.089 C 
ATOM      4  C   UNL     1      34.394 -15.141 -21.835  0.00  0.00    +0.018 C 
ATOM      5  C   UNL     1      34.336 -15.655 -20.516  0.00  0.00    +0.019 C 
ENDROOT
BRANCH   1   6
ATOM      6  S   UNL     1      35.345 -18.802 -22.458  0.00  0.00    +0.080 S 
ATOM      7  O   UNL     1      36.778 -18.674 -22.652  0.00  0.00    -0.149 OA
ATOM      8  O   UNL     1      34.435 -19.091 -23.550  0.00  0.00    -0.149 OA
BRANCH   6   9
ATOM      9  C   UNL     1      35.004 -19.911 -21.153  0.00  0.00    +0.126 C 
ATOM     10  C   UNL     1      34.459 -21.685 -19.070  0.00  0.00    +0.003 C 
ATOM     11  C   UNL     1      36.052 -20.524 -20.467  0.00  0.00    +0.020 C 
ATOM     12  C   UNL     1      33.683 -20.185 -20.798  0.00  0.00    +0.020 C 
ATOM     13  C   UNL     1      35.780 -21.410 -19.426  0.00  0.00    +0.001 C 
ATOM     14  C   UNL     1      33.411 -21.072 -19.757  0.00  0.00    +0.001 C 
BRANCH  10  17
ATOM     15  N   UNL     1      34.444 -23.845 -16.232  0.00  0.00    -0.208 N 
ATOM     16  N   UNL     1      33.157 -24.045 -16.566  0.00  0.00    -0.176 NA
ATOM     17  C   UNL     1      34.179 -22.598 -17.998  0.00  0.00    +0.037 C 
ATOM     18  C   UNL     1      35.101 -22.984 -17.060  0.00  0.00    +0.086 C 
ATOM     19  C   UNL     1      33.003 -23.279 -17.648  0.00  0.00    +0.119 C 
ATOM     20  C   UNL     1      34.999 -24.520 -15.083  0.00  0.00    +0.140 C 
ENDBRANCH  10  17
ENDBRANCH   6   9
ENDBRANCH   1   6
BRANCH   4  21
ATOM     21  C   UNL     1      34.137 -13.819 -22.255  0.00  0.00    +0.006 C 
ATOM     22  C   UNL     1      33.026 -13.061 -22.032  0.00  0.00    +0.058 C 
BRANCH  22  25
ATOM     23  O   UNL     1      33.410 -11.342 -23.630  0.00  0.00    -0.270 OA
ATOM     24  N   UNL     1      32.212 -10.856 -21.670  0.00  0.00    -0.279 N 
ATOM     25  C   UNL     1      32.916 -11.662 -22.554  0.00  0.00    +0.250 C 
ATOM     26  H   UNL     1      31.887 -11.289 -20.847  0.00  0.00    +0.155 HD
BRANCH  24  27
ATOM     27  C   UNL     1      31.907  -9.480 -21.819  0.00  0.00    +0.064 C 
ATOM     28  C   UNL     1      32.174  -8.589 -20.792  0.00  0.00    +0.055 C 
ATOM     29  C   UNL     1      31.340  -9.058 -23.010  0.00  0.00    +0.016 C 
ATOM     30  C   UNL     1      31.865  -7.240 -20.961  0.00  0.00    +0.015 C 
ATOM     31  C   UNL     1      31.031  -7.709 -23.180  0.00  0.00    +0.001 C 
ATOM     32  C   UNL     1      31.293  -6.799 -22.155  0.00  0.00    +0.001 C 
BRANCH  28  33
ATOM     33  N   UNL     1      32.754  -9.012 -19.576  0.00  0.00    -0.356 N 
ATOM     34  H   UNL     1      33.018  -8.346 -18.899  0.00  0.00    +0.142 HD
ATOM     35  H   UNL     1      32.894  -9.970 -19.404  0.00  0.00    +0.142 HD
ENDBRANCH  28  33
ENDBRANCH  24  27
ENDBRANCH  22  25
ENDBRANCH   4  21
TORSDOF 7
ENDMDL
MODEL 5
REMARK VINA RESULT:     -10.8      4.525     10.013
REMARK  Name = 15985904
REMARK  7 active torsions:
REMARK  status: ('A' for Active; 'I' for Inactive)
REMARK    1  A    between atoms: N_1  and  S_6
REMARK    2  A    between atoms: C_4  and  C_21
REMARK    3  A    between atoms: S_6  and  C_9
REMARK    4  A    between atoms: C_10  and  C_17
REMARK    5  A    between atoms: C_22  and  C_25
REMARK    6  A    between atoms: N_24  and  C_27
REMARK    7  A    between atoms: C_28  and  N_33
REMARK                            x       y       z     vdW  Elec       q    Type
REMARK                         _______ _______ _______ _____ _____    ______ ____
ROOT
ATOM      1  N   UNL     1      36.263 -23.665 -15.304  0.00  0.00    -0.167 N 
ATOM      2  C   UNL     1      35.899 -23.048 -16.428  0.00  0.00    +0.089 C 
ATOM      3  C   UNL     1      37.455 -23.294 -14.836  0.00  0.00    +0.089 C 
ATOM      4  C   UNL     1      36.937 -22.194 -16.732  0.00  0.00    +0.018 C 
ATOM      5  C   UNL     1      37.922 -22.351 -15.725  0.00  0.00    +0.019 C 
ENDROOT
BRANCH   1   6
ATOM      6  S   UNL     1      35.274 -24.846 -14.520  0.00  0.00    +0.080 S 
ATOM      7  O   UNL     1      35.623 -24.683 -13.120  0.00  0.00    -0.149 OA
ATOM      8  O   UNL     1      35.494 -26.088 -15.237  0.00  0.00    -0.149 OA
BRANCH   6   9
ATOM      9  C   UNL     1      33.626 -24.339 -14.799  0.00  0.00    +0.126 C 
ATOM     10  C   UNL     1      30.994 -23.528 -15.244  0.00  0.00    +0.003 C 
ATOM     11  C   UNL     1      33.237 -23.900 -16.064  0.00  0.00    +0.020 C 
ATOM     12  C   UNL     1      32.700 -24.373 -13.757  0.00  0.00    +0.020 C 
ATOM     13  C   UNL     1      31.921 -23.495 -16.287  0.00  0.00    +0.001 C 
ATOM     14  C   UNL     1      31.384 -23.967 -13.979  0.00  0.00    +0.001 C 
BRANCH  10  17
ATOM     15  N   UNL     1      27.766 -22.663 -16.491  0.00  0.00    -0.208 N 
ATOM     16  N   UNL     1      27.512 -22.340 -15.211  0.00  0.00    -0.176 NA
ATOM     17  C   UNL     1      29.640 -23.110 -15.474  0.00  0.00    +0.037 C 
ATOM     18  C   UNL     1      29.030 -23.131 -16.702  0.00  0.00    +0.086 C 
ATOM     19  C   UNL     1      28.664 -22.617 -14.595  0.00  0.00    +0.119 C 
ATOM     20  C   UNL     1      26.736 -22.499 -17.489  0.00  0.00    +0.140 C 
ENDBRANCH  10  17
ENDBRANCH   6   9
ENDBRANCH   1   6
BRANCH   4  21
ATOM     21  C   UNL     1      36.979 -21.335 -17.850  0.00  0.00    +0.006 C 
ATOM     22  C   UNL     1      36.251 -21.408 -19.000  0.00  0.00    +0.058 C 
BRANCH  22  25
ATOM     23  O   UNL     1      37.476 -19.798 -20.250  0.00  0.00    -0.270 OA
ATOM     24  N   UNL     1      35.260 -20.288 -20.851  0.00  0.00    -0.279 N 
ATOM     25  C   UNL     1      36.420 -20.403 -20.097  0.00  0.00    +0.250 C 
ATOM     26  H   UNL     1      34.504 -20.859 -20.578  0.00  0.00    +0.155 HD
BRANCH  24  27
ATOM     27  C   UNL     1      35.039 -19.443 -21.966  0.00  0.00    +0.064 C 
ATOM     28  C   UNL     1      35.099 -18.066 -21.824  0.00  0.00    +0.055 C 
ATOM     29  C   UNL     1      34.766 -20.030 -23.191  0.00  0.00    +0.016 C 
ATOM     30  C   UNL     1      34.878 -17.255 -22.937  0.00  0.00    +0.015 C 
ATOM     31  C   UNL     1      34.545 -19.219 -24.304  0.00  0.00    +0.001 C 
ATOM     32  C   UNL     1      34.601 -17.831 -24.177  0.00  0.00    +0.001 C 
BRANCH  28  33
ATOM     33  N   UNL     1      35.379 -17.461 -20.579  0.00  0.00    -0.356 N 
ATOM     34  H   UNL     1      36.293 -17.152 -20.377  0.00  0.00    +0.142 HD
ATOM     35  H   UNL     1      34.663 -17.346 -19.915  0.00  0.00    +0.142 HD
ENDBRANCH  28  33
ENDBRANCH  24  27
ENDBRANCH  22  25
ENDBRANCH   4  21
TORSDOF 7
ENDMDL
MODEL 6
REMARK VINA RESULT:     -10.7      2.713      3.222
REMARK  Name = 15985904
REMARK  7 active torsions:
REMARK  status: ('A' for Active; 'I' for Inactive)
REMARK    1  A    between atoms: N_1  and  S_6
REMARK    2  A    between atoms: C_4  and  C_21
REMARK    3  A    between atoms: S_6  and  C_9
REMARK    4  A    between atoms: C_10  and  C_17
REMARK    5  A    between atoms: C_22  and  C_25
REMARK    6  A    between atoms: N_24  and  C_27
REMARK    7  A    between atoms: C_28  and  N_33
REMARK                            x       y       z     vdW  Elec       q    Type
REMARK                         _______ _______ _______ _____ _____    ______ ____
ROOT
ATOM      1  N   UNL     1      36.021 -19.927 -21.062  0.00  0.00    -0.167 N 
ATOM      2  C   UNL     1      34.937 -20.642 -20.758  0.00  0.00    +0.089 C 
ATOM      3  C   UNL     1      37.004 -20.015 -20.166  0.00  0.00    +0.089 C 
ATOM      4  C   UNL     1      35.226 -21.256 -19.559  0.00  0.00    +0.018 C 
ATOM      5  C   UNL     1      36.534 -20.859 -19.184  0.00  0.00    +0.019 C 
ENDROOT
BRANCH   1   6
ATOM      6  S   UNL     1      36.141 -18.969 -22.496  0.00  0.00    +0.080 S 
ATOM      7  O   UNL     1      35.450 -19.777 -23.484  0.00  0.00    -0.149 OA
ATOM      8  O   UNL     1      37.543 -18.617 -22.621  0.00  0.00    -0.149 OA
BRANCH   6   9
ATOM      9  C   UNL     1      35.240 -17.511 -22.163  0.00  0.00    +0.126 C 
ATOM     10  C   UNL     1      33.800 -15.182 -21.632  0.00  0.00    +0.003 C 
ATOM     11  C   UNL     1      34.871 -16.665 -23.209  0.00  0.00    +0.020 C 
ATOM     12  C   UNL     1      34.887 -17.193 -20.852  0.00  0.00    +0.020 C 
ATOM     13  C   UNL     1      34.152 -15.501 -22.944  0.00  0.00    +0.001 C 
ATOM     14  C   UNL     1      34.168 -16.028 -20.586  0.00  0.00    +0.001 C 
BRANCH  10  17
ATOM     15  N   UNL     1      31.905 -12.470 -20.297  0.00  0.00    -0.208 N 
ATOM     16  N   UNL     1      32.013 -11.966 -21.539  0.00  0.00    -0.176 NA
ATOM     17  C   UNL     1      33.059 -13.982 -21.359  0.00  0.00    +0.037 C 
ATOM     18  C   UNL     1      32.516 -13.679 -20.137  0.00  0.00    +0.086 C 
ATOM     19  C   UNL     1      32.721 -12.898 -22.182  0.00  0.00    +0.119 C 
ATOM     20  C   UNL     1      31.189 -11.732 -19.284  0.00  0.00    +0.140 C 
ENDBRANCH  10  17
ENDBRANCH   6   9
ENDBRANCH   1   6
BRANCH   4  21
ATOM     21  C   UNL     1      34.355 -22.117 -18.860  0.00  0.00    +0.006 C 
ATOM     22  C   UNL     1      34.572 -22.765 -17.680  0.00  0.00    +0.058 C 
BRANCH  22  25
ATOM     23  O   UNL     1      33.004 -24.551 -17.713  0.00  0.00    -0.270 OA
ATOM     24  N   UNL     1      33.286 -23.294 -15.751  0.00  0.00    -0.279 N 
ATOM     25  C   UNL     1      33.530 -23.650 -17.070  0.00  0.00    +0.250 C 
ATOM     26  H   UNL     1      33.808 -22.536 -15.399  0.00  0.00    +0.155 HD
BRANCH  24  27
ATOM     27  C   UNL     1      32.370 -23.897 -14.853  0.00  0.00    +0.064 C 
ATOM     28  C   UNL     1      32.807 -24.839 -13.935  0.00  0.00    +0.055 C 
ATOM     29  C   UNL     1      31.039 -23.521 -14.921  0.00  0.00    +0.016 C 
ATOM     30  C   UNL     1      31.887 -25.419 -13.062  0.00  0.00    +0.015 C 
ATOM     31  C   UNL     1      30.119 -24.101 -14.048  0.00  0.00    +0.001 C 
ATOM     32  C   UNL     1      30.543 -25.051 -13.119  0.00  0.00    +0.001 C 
BRANCH  28  33
ATOM     33  N   UNL     1      34.163 -25.227 -13.859  0.00  0.00    -0.356 N 
ATOM     34  H   UNL     1      34.794 -24.949 -14.562  0.00  0.00    +0.142 HD
ATOM     35  H   UNL     1      34.478 -25.773 -13.103  0.00  0.00    +0.142 HD
ENDBRANCH  28  33
ENDBRANCH  24  27
ENDBRANCH  22  25
ENDBRANCH   4  21
TORSDOF 7
ENDMDL
MODEL 7
REMARK VINA RESULT:     -10.6      5.024      8.724
REMARK  Name = 15985904
REMARK  7 active torsions:
REMARK  status: ('A' for Active; 'I' for Inactive)
REMARK    1  A    between atoms: N_1  and  S_6
REMARK    2  A    between atoms: C_4  and  C_21
REMARK    3  A    between atoms: S_6  and  C_9
REMARK    4  A    between atoms: C_10  and  C_17
REMARK    5  A    between atoms: C_22  and  C_25
REMARK    6  A    between atoms: N_24  and  C_27
REMARK    7  A    between atoms: C_28  and  N_33
REMARK                            x       y       z     vdW  Elec       q    Type
REMARK                         _______ _______ _______ _____ _____    ______ ____
ROOT
ATOM      1  N   UNL     1      32.438 -12.446 -21.289  0.00  0.00    -0.167 N 
ATOM      2  C   UNL     1      32.634 -13.696 -20.869  0.00  0.00    +0.089 C 
ATOM      3  C   UNL     1      33.014 -12.164 -22.458  0.00  0.00    +0.089 C 
ATOM      4  C   UNL     1      33.404 -14.294 -21.841  0.00  0.00    +0.018 C 
ATOM      5  C   UNL     1      33.645 -13.325 -22.847  0.00  0.00    +0.019 C 
ENDROOT
BRANCH   1   6
ATOM      6  S   UNL     1      31.516 -11.289 -20.395  0.00  0.00    +0.080 S 
ATOM      7  O   UNL     1      32.202 -11.247 -19.116  0.00  0.00    -0.149 OA
ATOM      8  O   UNL     1      30.131 -11.701 -20.522  0.00  0.00    -0.149 OA
BRANCH   6   9
ATOM      9  C   UNL     1      31.715  -9.774 -21.241  0.00  0.00    +0.126 C 
ATOM     10  C   UNL     1      32.031  -7.354 -22.592  0.00  0.00    +0.003 C 
ATOM     11  C   UNL     1      32.537  -8.781 -20.709  0.00  0.00    +0.020 C 
ATOM     12  C   UNL     1      31.051  -9.558 -22.449  0.00  0.00    +0.020 C 
ATOM     13  C   UNL     1      32.695  -7.571 -21.384  0.00  0.00    +0.001 C 
ATOM     14  C   UNL     1      31.209  -8.348 -23.124  0.00  0.00    +0.001 C 
BRANCH  10  17
ATOM     15  N   UNL     1      32.031  -3.997 -23.797  0.00  0.00    -0.208 N 
ATOM     16  N   UNL     1      32.797  -4.498 -24.781  0.00  0.00    -0.176 NA
ATOM     17  C   UNL     1      32.194  -6.109 -23.287  0.00  0.00    +0.037 C 
ATOM     18  C   UNL     1      31.643  -4.923 -22.874  0.00  0.00    +0.086 C 
ATOM     19  C   UNL     1      32.892  -5.791 -24.462  0.00  0.00    +0.119 C 
ATOM     20  C   UNL     1      31.699  -2.592 -23.793  0.00  0.00    +0.140 C 
ENDBRANCH  10  17
ENDBRANCH   6   9
ENDBRANCH   1   6
BRANCH   4  21
ATOM     21  C   UNL     1      33.854 -15.631 -21.810  0.00  0.00    +0.006 C 
ATOM     22  C   UNL     1      34.867 -16.200 -22.524  0.00  0.00    +0.058 C 
BRANCH  22  25
ATOM     23  O   UNL     1      35.732 -18.281 -23.281  0.00  0.00    -0.270 OA
ATOM     24  N   UNL     1      34.877 -18.107 -21.102  0.00  0.00    -0.279 N 
ATOM     25  C   UNL     1      35.216 -17.647 -22.367  0.00  0.00    +0.250 C 
ATOM     26  H   UNL     1      34.467 -17.449 -20.494  0.00  0.00    +0.155 HD
BRANCH  24  27
ATOM     27  C   UNL     1      35.054 -19.415 -20.587  0.00  0.00    +0.064 C 
ATOM     28  C   UNL     1      36.323 -19.887 -20.296  0.00  0.00    +0.055 C 
ATOM     29  C   UNL     1      33.929 -20.198 -20.384  0.00  0.00    +0.016 C 
ATOM     30  C   UNL     1      36.472 -21.178 -19.790  0.00  0.00    +0.015 C 
ATOM     31  C   UNL     1      34.078 -21.489 -19.877  0.00  0.00    +0.001 C 
ATOM     32  C   UNL     1      35.350 -21.980 -19.581  0.00  0.00    +0.001 C 
BRANCH  28  33
ATOM     33  N   UNL     1      37.474 -19.093 -20.498  0.00  0.00    -0.356 N 
ATOM     34  H   UNL     1      38.356 -19.425 -20.214  0.00  0.00    +0.142 HD
ATOM     35  H   UNL     1      37.394 -18.210 -20.924  0.00  0.00    +0.142 HD
ENDBRANCH  28  33
ENDBRANCH  24  27
ENDBRANCH  22  25
ENDBRANCH   4  21
TORSDOF 7
ENDMDL
MODEL 8
REMARK VINA RESULT:     -10.3      4.699     13.877
REMARK  Name = 15985904
REMARK  7 active torsions:
REMARK  status: ('A' for Active; 'I' for Inactive)
REMARK    1  A    between atoms: N_1  and  S_6
REMARK    2  A    between atoms: C_4  and  C_21
REMARK    3  A    between atoms: S_6  and  C_9
REMARK    4  A    between atoms: C_10  and  C_17
REMARK    5  A    between atoms: C_22  and  C_25
REMARK    6  A    between atoms: N_24  and  C_27
REMARK    7  A    between atoms: C_28  and  N_33
REMARK                            x       y       z     vdW  Elec       q    Type
REMARK                         _______ _______ _______ _____ _____    ______ ____
ROOT
ATOM      1  N   UNL     1      33.763 -14.477 -24.019  0.00  0.00    -0.167 N 
ATOM      2  C   UNL     1      34.160 -13.248 -24.350  0.00  0.00    +0.089 C 
ATOM      3  C   UNL     1      32.960 -14.526 -22.956  0.00  0.00    +0.089 C 
ATOM      4  C   UNL     1      33.570 -12.410 -23.429  0.00  0.00    +0.018 C 
ATOM      5  C   UNL     1      32.811 -13.219 -22.546  0.00  0.00    +0.019 C 
ENDROOT
BRANCH   1   6
ATOM      6  S   UNL     1      34.248 -15.887 -24.893  0.00  0.00    +0.080 S 
ATOM      7  O   UNL     1      35.469 -15.456 -25.551  0.00  0.00    -0.149 OA
ATOM      8  O   UNL     1      33.076 -16.318 -25.633  0.00  0.00    -0.149 OA
BRANCH   6   9
ATOM      9  C   UNL     1      34.603 -17.092 -23.681  0.00  0.00    +0.126 C 
ATOM     10  C   UNL     1      35.171 -19.019 -21.745  0.00  0.00    +0.003 C 
ATOM     11  C   UNL     1      34.921 -16.701 -22.381  0.00  0.00    +0.020 C 
ATOM     12  C   UNL     1      34.568 -18.447 -24.013  0.00  0.00    +0.020 C 
ATOM     13  C   UNL     1      35.206 -17.664 -21.413  0.00  0.00    +0.001 C 
ATOM     14  C   UNL     1      34.853 -19.410 -23.045  0.00  0.00    +0.001 C 
BRANCH  10  17
ATOM     15  N   UNL     1      35.199 -21.607 -19.291  0.00  0.00    -0.208 N 
ATOM     16  N   UNL     1      36.521 -21.366 -19.254  0.00  0.00    -0.176 NA
ATOM     17  C   UNL     1      35.464 -20.010 -20.748  0.00  0.00    +0.037 C 
ATOM     18  C   UNL     1      34.519 -20.820 -20.172  0.00  0.00    +0.086 C 
ATOM     19  C   UNL     1      36.675 -20.387 -20.148  0.00  0.00    +0.119 C 
ATOM     20  C   UNL     1      34.633 -22.627 -18.441  0.00  0.00    +0.140 C 
ENDBRANCH  10  17
ENDBRANCH   6   9
ENDBRANCH   1   6
BRANCH   4  21
ATOM     21  C   UNL     1      33.717 -11.008 -23.399  0.00  0.00    +0.006 C 
ATOM     22  C   UNL     1      32.840 -10.075 -22.928  0.00  0.00    +0.058 C 
BRANCH  22  25
ATOM     23  O   UNL     1      34.226  -8.178 -22.558  0.00  0.00    -0.270 OA
ATOM     24  N   UNL     1      32.104  -7.893 -23.522  0.00  0.00    -0.279 N 
ATOM     25  C   UNL     1      33.156  -8.613 -22.972  0.00  0.00    +0.250 C 
ATOM     26  H   UNL     1      31.316  -8.415 -23.801  0.00  0.00    +0.155 HD
BRANCH  24  27
ATOM     27  C   UNL     1      32.034  -6.493 -23.726  0.00  0.00    +0.064 C 
ATOM     28  C   UNL     1      31.255  -5.702 -22.897  0.00  0.00    +0.055 C 
ATOM     29  C   UNL     1      32.763  -5.944 -24.769  0.00  0.00    +0.016 C 
ATOM     30  C   UNL     1      31.203  -4.326 -23.118  0.00  0.00    +0.015 C 
ATOM     31  C   UNL     1      32.710  -4.568 -24.990  0.00  0.00    +0.001 C 
ATOM     32  C   UNL     1      31.930  -3.759 -24.165  0.00  0.00    +0.001 C 
BRANCH  28  33
ATOM     33  N   UNL     1      30.512  -6.254 -21.830  0.00  0.00    -0.356 N 
ATOM     34  H   UNL     1      29.860  -5.697 -21.345  0.00  0.00    +0.142 HD
ATOM     35  H   UNL     1      30.644  -7.194 -21.572  0.00  0.00    +0.142 HD
ENDBRANCH  28  33
ENDBRANCH  24  27
ENDBRANCH  22  25
ENDBRANCH   4  21
TORSDOF 7
ENDMDL
MODEL 9
REMARK VINA RESULT:     -10.2      4.423      9.944
REMARK  Name = 15985904
REMARK  7 active torsions:
REMARK  status: ('A' for Active; 'I' for Inactive)
REMARK    1  A    between atoms: N_1  and  S_6
REMARK    2  A    between atoms: C_4  and  C_21
REMARK    3  A    between atoms: S_6  and  C_9
REMARK    4  A    between atoms: C_10  and  C_17
REMARK    5  A    between atoms: C_22  and  C_25
REMARK    6  A    between atoms: N_24  and  C_27
REMARK    7  A    between atoms: C_28  and  N_33
REMARK                            x       y       z     vdW  Elec       q    Type
REMARK                         _______ _______ _______ _____ _____    ______ ____
ROOT
ATOM      1  N   UNL     1      36.312 -23.512 -15.472  0.00  0.00    -0.167 N 
ATOM      2  C   UNL     1      35.985 -22.942 -16.632  0.00  0.00    +0.089 C 
ATOM      3  C   UNL     1      37.437 -23.046 -14.930  0.00  0.00    +0.089 C 
ATOM      4  C   UNL     1      36.978 -22.019 -16.880  0.00  0.00    +0.018 C 
ATOM      5  C   UNL     1      37.897 -22.085 -15.803  0.00  0.00    +0.019 C 
ENDROOT
BRANCH   1   6
ATOM      6  S   UNL     1      35.358 -24.750 -14.734  0.00  0.00    +0.080 S 
ATOM      7  O   UNL     1      35.725 -24.650 -13.333  0.00  0.00    -0.149 OA
ATOM      8  O   UNL     1      35.592 -25.950 -15.515  0.00  0.00    -0.149 OA
BRANCH   6   9
ATOM      9  C   UNL     1      33.697 -24.263 -14.964  0.00  0.00    +0.126 C 
ATOM     10  C   UNL     1      31.044 -23.484 -15.331  0.00  0.00    +0.003 C 
ATOM     11  C   UNL     1      33.259 -23.852 -16.222  0.00  0.00    +0.020 C 
ATOM     12  C   UNL     1      32.808 -24.284 -13.889  0.00  0.00    +0.020 C 
ATOM     13  C   UNL     1      31.932 -23.462 -16.406  0.00  0.00    +0.001 C 
ATOM     14  C   UNL     1      31.482 -23.894 -14.072  0.00  0.00    +0.001 C 
BRANCH  10  17
ATOM     15  N   UNL     1      27.774 -22.642 -16.484  0.00  0.00    -0.208 N 
ATOM     16  N   UNL     1      27.545 -22.351 -15.192  0.00  0.00    -0.176 NA
ATOM     17  C   UNL     1      29.678 -23.082 -15.520  0.00  0.00    +0.037 C 
ATOM     18  C   UNL     1      29.040 -23.086 -16.734  0.00  0.00    +0.086 C 
ATOM     19  C   UNL     1      28.715 -22.623 -14.609  0.00  0.00    +0.119 C 
ATOM     20  C   UNL     1      26.719 -22.473 -17.455  0.00  0.00    +0.140 C 
ENDBRANCH  10  17
ENDBRANCH   6   9
ENDBRANCH   1   6
BRANCH   4  21
ATOM     21  C   UNL     1      37.037 -21.178 -18.011  0.00  0.00    +0.006 C 
ATOM     22  C   UNL     1      36.264 -21.213 -19.134  0.00  0.00    +0.058 C 
BRANCH  22  25
ATOM     23  O   UNL     1      37.537 -20.140 -20.832  0.00  0.00    -0.270 OA
ATOM     24  N   UNL     1      35.301 -19.513 -20.489  0.00  0.00    -0.279 N 
ATOM     25  C   UNL     1      36.462 -20.235 -20.250  0.00  0.00    +0.250 C 
ATOM     26  H   UNL     1      34.527 -19.727 -19.918  0.00  0.00    +0.155 HD
BRANCH  24  27
ATOM     27  C   UNL     1      35.103 -18.502 -21.462  0.00  0.00    +0.064 C 
ATOM     28  C   UNL     1      35.057 -18.826 -22.809  0.00  0.00    +0.055 C 
ATOM     29  C   UNL     1      34.957 -17.194 -21.030  0.00  0.00    +0.016 C 
ATOM     30  C   UNL     1      34.861 -17.814 -23.748  0.00  0.00    +0.015 C 
ATOM     31  C   UNL     1      34.762 -16.182 -21.969  0.00  0.00    +0.001 C 
ATOM     32  C   UNL     1      34.714 -16.491 -23.328  0.00  0.00    +0.001 C 
BRANCH  28  33
ATOM     33  N   UNL     1      35.202 -20.157 -23.256  0.00  0.00    -0.356 N 
ATOM     34  H   UNL     1      35.949 -20.398 -23.851  0.00  0.00    +0.142 HD
ATOM     35  H   UNL     1      34.557 -20.845 -22.975  0.00  0.00    +0.142 HD
ENDBRANCH  28  33
ENDBRANCH  24  27
ENDBRANCH  22  25
ENDBRANCH   4  21
TORSDOF 7
ENDMDL
