MODEL 1
REMARK VINA RESULT:     -11.6      0.000      0.000
REMARK  Name = 154000
REMARK  7 active torsions:
REMARK  status: ('A' for Active; 'I' for Inactive)
REMARK    1  A    between atoms: O_1  and  C_5
REMARK    2  A    between atoms: O_1  and  C_17
REMARK    3  A    between atoms: C_2  and  C_8
REMARK    4  A    between atoms: C_8  and  C_13
REMARK    5  A    between atoms: C_17  and  C_18
REMARK    6  A    between atoms: C_18  and  C_21
REMARK    7  A    between atoms: C_23  and  C_25
REMARK                            x       y       z     vdW  Elec       q    Type
REMARK                         _______ _______ _______ _____ _____    ______ ____
ROOT
ATOM      1  O   UNL     1      35.690 -19.536 -21.167  0.00  0.00    -0.475 OA
ENDROOT
BRANCH   1   5
ATOM      2  C   UNL     1      34.069 -22.493 -18.776  0.00  0.00    -0.021 C 
ATOM      3  C   UNL     1      33.224 -21.631 -19.460  0.00  0.00    -0.001 C 
ATOM      4  C   UNL     1      35.447 -22.381 -18.880  0.00  0.00    -0.001 C 
ATOM      5  C   UNL     1      35.155 -20.509 -20.380  0.00  0.00    +0.139 C 
ATOM      6  C   UNL     1      33.771 -20.633 -20.267  0.00  0.00    +0.037 C 
ATOM      7  C   UNL     1      35.993 -21.383 -19.687  0.00  0.00    +0.037 C 
BRANCH   2   8
ATOM      8  C   UNL     1      33.477 -23.571 -17.903  0.00  0.00    +0.047 C 
BRANCH   8  13
ATOM      9  O   UNL     1      31.472 -23.932 -15.130  0.00  0.00    -0.346 OA
ATOM     10  O   UNL     1      34.958 -24.065 -15.310  0.00  0.00    -0.272 OA
ATOM     11  O   UNL     1      30.737 -22.689 -16.916  0.00  0.00    -0.247 OA
ATOM     12  N   UNL     1      32.738 -24.340 -14.659  0.00  0.00    -0.144 N 
ATOM     13  C   UNL     1      33.117 -23.050 -16.525  0.00  0.00    +0.184 C 
ATOM     14  C   UNL     1      33.761 -23.869 -15.447  0.00  0.00    +0.264 C 
ATOM     15  C   UNL     1      31.641 -23.176 -16.256  0.00  0.00    +0.348 C 
ATOM     16  H   UNL     1      32.872 -24.897 -13.858  0.00  0.00    +0.196 HD
ENDBRANCH   8  13
ENDBRANCH   2   8
ENDBRANCH   1   5
BRANCH   1  17
ATOM     17  C   UNL     1      35.064 -18.254 -21.130  0.00  0.00    +0.213 C 
BRANCH  17  18
ATOM     18  C   UNL     1      35.522 -17.422 -22.324  0.00  0.00    +0.105 C 
BRANCH  18  21
ATOM     19  O   UNL     1      33.438 -14.658 -23.483  0.00  0.00    -0.449 OA
ATOM     20  N   UNL     1      34.228 -15.472 -21.526  0.00  0.00    -0.373 NA
ATOM     21  C   UNL     1      34.648 -16.226 -22.570  0.00  0.00    +0.134 C 
ATOM     22  C   UNL     1      34.190 -15.762 -23.755  0.00  0.00    +0.216 C 
ATOM     23  C   UNL     1      33.510 -14.550 -22.128  0.00  0.00    +0.277 C 
ATOM     24  C   UNL     1      34.314 -16.154 -25.164  0.00  0.00    +0.055 C 
BRANCH  23  25
ATOM     25  C   UNL     1      32.788 -13.444 -21.564  0.00  0.00    +0.066 C 
ATOM     26  C   UNL     1      32.292 -13.519 -20.259  0.00  0.00    +0.006 C 
ATOM     27  C   UNL     1      32.574 -12.286 -22.318  0.00  0.00    +0.006 C 
ATOM     28  C   UNL     1      31.588 -12.445 -19.714  0.00  0.00    +0.000 C 
ATOM     29  C   UNL     1      31.872 -11.212 -21.772  0.00  0.00    +0.000 C 
ATOM     30  C   UNL     1      31.378 -11.292 -20.470  0.00  0.00    +0.000 C 
ENDBRANCH  23  25
ENDBRANCH  18  21
ENDBRANCH  17  18
ENDBRANCH   1  17
TORSDOF 7
ENDMDL
MODEL 2
REMARK VINA RESULT:     -11.4      2.850      5.044
REMARK  Name = 154000
REMARK  7 active torsions:
REMARK  status: ('A' for Active; 'I' for Inactive)
REMARK    1  A    between atoms: O_1  and  C_5
REMARK    2  A    between atoms: O_1  and  C_17
REMARK    3  A    between atoms: C_2  and  C_8
REMARK    4  A    between atoms: C_8  and  C_13
REMARK    5  A    between atoms: C_17  and  C_18
REMARK    6  A    between atoms: C_18  and  C_21
REMARK    7  A    between atoms: C_23  and  C_25
REMARK                            x       y       z     vdW  Elec       q    Type
REMARK                         _______ _______ _______ _____ _____    ______ ____
ROOT
ATOM      1  O   UNL     1      35.009 -15.053 -23.120  0.00  0.00    -0.475 OA
ENDROOT
BRANCH   1   5
ATOM      2  C   UNL     1      35.024 -19.022 -21.966  0.00  0.00    -0.021 C 
ATOM      3  C   UNL     1      35.000 -18.031 -20.996  0.00  0.00    -0.001 C 
ATOM      4  C   UNL     1      35.044 -18.706 -23.316  0.00  0.00    -0.001 C 
ATOM      5  C   UNL     1      35.014 -16.360 -22.739  0.00  0.00    +0.139 C 
ATOM      6  C   UNL     1      34.995 -16.692 -21.384  0.00  0.00    +0.037 C 
ATOM      7  C   UNL     1      35.039 -17.366 -23.704  0.00  0.00    +0.037 C 
BRANCH   2   8
ATOM      8  C   UNL     1      35.031 -20.470 -21.545  0.00  0.00    +0.047 C 
BRANCH   8  13
ATOM      9  O   UNL     1      33.178 -22.273 -19.274  0.00  0.00    -0.346 OA
ATOM     10  O   UNL     1      36.634 -21.771 -19.332  0.00  0.00    -0.272 OA
ATOM     11  O   UNL     1      32.209 -20.527 -20.408  0.00  0.00    -0.247 OA
ATOM     12  N   UNL     1      34.503 -22.638 -18.959  0.00  0.00    -0.144 N 
ATOM     13  C   UNL     1      34.625 -20.641 -20.094  0.00  0.00    +0.184 C 
ATOM     14  C   UNL     1      35.418 -21.726 -19.429  0.00  0.00    +0.264 C 
ATOM     15  C   UNL     1      33.195 -21.098 -19.971  0.00  0.00    +0.348 C 
ATOM     16  H   UNL     1      34.745 -23.452 -18.460  0.00  0.00    +0.196 HD
ENDBRANCH   8  13
ENDBRANCH   2   8
ENDBRANCH   1   5
BRANCH   1  17
ATOM     17  C   UNL     1      34.339 -14.129 -22.262  0.00  0.00    +0.213 C 
BRANCH  17  18
ATOM     18  C   UNL     1      33.095 -13.588 -22.959  0.00  0.00    +0.105 C 
BRANCH  18  21
ATOM     19  O   UNL     1      31.913 -10.571 -21.280  0.00  0.00    -0.449 OA
ATOM     20  N   UNL     1      32.940 -11.134 -23.215  0.00  0.00    -0.373 NA
ATOM     21  C   UNL     1      32.690 -12.231 -22.460  0.00  0.00    +0.134 C 
ATOM     22  C   UNL     1      32.076 -11.923 -21.295  0.00  0.00    +0.216 C 
ATOM     23  C   UNL     1      32.455 -10.171 -22.463  0.00  0.00    +0.277 C 
ATOM     24  C   UNL     1      31.583 -12.668 -20.131  0.00  0.00    +0.055 C 
BRANCH  23  25
ATOM     25  C   UNL     1      32.414  -8.756 -22.707  0.00  0.00    +0.066 C 
ATOM     26  C   UNL     1      31.189  -8.108 -22.893  0.00  0.00    +0.006 C 
ATOM     27  C   UNL     1      33.600  -8.019 -22.764  0.00  0.00    +0.006 C 
ATOM     28  C   UNL     1      31.152  -6.735 -23.132  0.00  0.00    +0.000 C 
ATOM     29  C   UNL     1      33.563  -6.645 -23.002  0.00  0.00    +0.000 C 
ATOM     30  C   UNL     1      32.338  -6.003 -23.187  0.00  0.00    +0.000 C 
ENDBRANCH  23  25
ENDBRANCH  18  21
ENDBRANCH  17  18
ENDBRANCH   1  17
TORSDOF 7
ENDMDL
MODEL 3
REMARK VINA RESULT:     -11.3      3.368     10.527
REMARK  Name = 154000
REMARK  7 active torsions:
REMARK  status: ('A' for Active; 'I' for Inactive)
REMARK    1  A    between atoms: O_1  and  C_5
REMARK    2  A    between atoms: O_1  and  C_17
REMARK    3  A    between atoms: C_2  and  C_8
REMARK    4  A    between atoms: C_8  and  C_13
REMARK    5  A    between atoms: C_17  and  C_18
REMARK    6  A    between atoms: C_18  and  C_21
REMARK    7  A    between atoms: C_23  and  C_25
REMARK                            x       y       z     vdW  Elec       q    Type
REMARK                         _______ _______ _______ _____ _____    ______ ____
ROOT
ATOM      1  O   UNL     1      33.779 -15.643 -21.821  0.00  0.00    -0.475 OA
ENDROOT
BRANCH   1   5
ATOM      2  C   UNL     1      31.851 -12.011 -21.394  0.00  0.00    -0.021 C 
ATOM      3  C   UNL     1      31.796 -12.937 -20.362  0.00  0.00    -0.001 C 
ATOM      4  C   UNL     1      32.540 -12.283 -22.566  0.00  0.00    -0.001 C 
ATOM      5  C   UNL     1      33.143 -14.447 -21.680  0.00  0.00    +0.139 C 
ATOM      6  C   UNL     1      32.447 -14.162 -20.506  0.00  0.00    +0.037 C 
ATOM      7  C   UNL     1      33.190 -13.508 -22.710  0.00  0.00    +0.037 C 
BRANCH   2   8
ATOM      8  C   UNL     1      31.146 -10.687 -21.239  0.00  0.00    +0.047 C 
BRANCH   8  13
ATOM      9  O   UNL     1      31.541  -7.269 -21.211  0.00  0.00    -0.346 OA
ATOM     10  O   UNL     1      32.612  -9.589 -18.829  0.00  0.00    -0.272 OA
ATOM     11  O   UNL     1      31.340  -8.379 -23.211  0.00  0.00    -0.247 OA
ATOM     12  N   UNL     1      31.921  -7.640 -19.904  0.00  0.00    -0.144 N 
ATOM     13  C   UNL     1      32.121  -9.526 -21.206  0.00  0.00    +0.184 C 
ATOM     14  C   UNL     1      32.261  -8.969 -19.821  0.00  0.00    +0.264 C 
ATOM     15  C   UNL     1      31.622  -8.364 -22.025  0.00  0.00    +0.348 C 
ATOM     16  H   UNL     1      31.940  -7.019 -19.140  0.00  0.00    +0.196 HD
ENDBRANCH   8  13
ENDBRANCH   2   8
ENDBRANCH   1   5
BRANCH   1  17
ATOM     17  C   UNL     1      34.564 -15.825 -22.999  0.00  0.00    +0.213 C 
BRANCH  17  18
ATOM     18  C   UNL     1      35.715 -16.784 -22.708  0.00  0.00    +0.105 C 
BRANCH  18  21
ATOM     19  O   UNL     1      34.412 -20.174 -22.353  0.00  0.00    -0.449 OA
ATOM     20  N   UNL     1      35.403 -18.603 -21.063  0.00  0.00    -0.373 NA
ATOM     21  C   UNL     1      35.247 -18.161 -22.334  0.00  0.00    +0.134 C 
ATOM     22  C   UNL     1      34.656 -19.082 -23.129  0.00  0.00    +0.216 C 
ATOM     23  C   UNL     1      34.887 -19.810 -21.131  0.00  0.00    +0.277 C 
ATOM     24  C   UNL     1      34.249 -19.157 -24.537  0.00  0.00    +0.055 C 
BRANCH  23  25
ATOM     25  C   UNL     1      34.752 -20.803 -20.102  0.00  0.00    +0.066 C 
ATOM     26  C   UNL     1      33.486 -21.266 -19.731  0.00  0.00    +0.006 C 
ATOM     27  C   UNL     1      35.887 -21.311 -19.463  0.00  0.00    +0.006 C 
ATOM     28  C   UNL     1      33.357 -22.228 -18.730  0.00  0.00    +0.000 C 
ATOM     29  C   UNL     1      35.758 -22.274 -18.462  0.00  0.00    +0.000 C 
ATOM     30  C   UNL     1      34.493 -22.733 -18.095  0.00  0.00    +0.000 C 
ENDBRANCH  23  25
ENDBRANCH  18  21
ENDBRANCH  17  18
ENDBRANCH   1  17
TORSDOF 7
ENDMDL
MODEL 4
REMARK VINA RESULT:     -11.3      3.020     11.062
REMARK  Name = 154000
REMARK  7 active torsions:
REMARK  status: ('A' for Active; 'I' for Inactive)
REMARK    1  A    between atoms: O_1  and  C_5
REMARK    2  A    between atoms: O_1  and  C_17
REMARK    3  A    between atoms: C_2  and  C_8
REMARK    4  A    between atoms: C_8  and  C_13
REMARK    5  A    between atoms: C_17  and  C_18
REMARK    6  A    between atoms: C_18  and  C_21
REMARK    7  A    between atoms: C_23  and  C_25
REMARK                            x       y       z     vdW  Elec       q    Type
REMARK                         _______ _______ _______ _____ _____    ______ ____
ROOT
ATOM      1  O   UNL     1      32.747 -22.911 -18.413  0.00  0.00    -0.475 OA
ENDROOT
BRANCH   1   5
ATOM      2  C   UNL     1      34.866 -20.161 -20.657  0.00  0.00    -0.021 C 
ATOM      3  C   UNL     1      35.554 -21.128 -19.939  0.00  0.00    -0.001 C 
ATOM      4  C   UNL     1      33.481 -20.100 -20.636  0.00  0.00    -0.001 C 
ATOM      5  C   UNL     1      33.445 -22.006 -19.152  0.00  0.00    +0.139 C 
ATOM      6  C   UNL     1      34.839 -22.056 -19.181  0.00  0.00    +0.037 C 
ATOM      7  C   UNL     1      32.767 -21.028 -19.879  0.00  0.00    +0.037 C 
BRANCH   2   8
ATOM      8  C   UNL     1      35.639 -19.157 -21.475  0.00  0.00    +0.047 C 
BRANCH   8  13
ATOM      9  O   UNL     1      35.312 -16.011 -22.828  0.00  0.00    -0.346 OA
ATOM     10  O   UNL     1      34.893 -19.097 -24.407  0.00  0.00    -0.272 OA
ATOM     11  O   UNL     1      34.952 -16.331 -20.582  0.00  0.00    -0.247 OA
ATOM     12  N   UNL     1      35.295 -16.845 -23.965  0.00  0.00    -0.144 N 
ATOM     13  C   UNL     1      34.725 -18.168 -22.171  0.00  0.00    +0.184 C 
ATOM     14  C   UNL     1      34.972 -18.144 -23.649  0.00  0.00    +0.264 C 
ATOM     15  C   UNL     1      35.000 -16.755 -21.725  0.00  0.00    +0.348 C 
ATOM     16  H   UNL     1      35.491 -16.534 -24.878  0.00  0.00    +0.196 HD
ENDBRANCH   8  13
ENDBRANCH   2   8
ENDBRANCH   1   5
BRANCH   1  17
ATOM     17  C   UNL     1      33.418 -23.495 -17.296  0.00  0.00    +0.213 C 
BRANCH  17  18
ATOM     18  C   UNL     1      32.460 -23.595 -16.114  0.00  0.00    +0.105 C 
BRANCH  18  21
ATOM     19  O   UNL     1      33.590 -24.691 -12.821  0.00  0.00    -0.449 OA
ATOM     20  N   UNL     1      34.495 -23.943 -14.754  0.00  0.00    -0.373 NA
ATOM     21  C   UNL     1      33.144 -24.002 -14.841  0.00  0.00    +0.134 C 
ATOM     22  C   UNL     1      32.576 -24.448 -13.697  0.00  0.00    +0.216 C 
ATOM     23  C   UNL     1      34.707 -24.365 -13.528  0.00  0.00    +0.277 C 
ATOM     24  C   UNL     1      31.210 -24.705 -13.227  0.00  0.00    +0.055 C 
BRANCH  23  25
ATOM     25  C   UNL     1      35.948 -24.534 -12.823  0.00  0.00    +0.066 C 
ATOM     26  C   UNL     1      36.650 -25.739 -12.912  0.00  0.00    +0.006 C 
ATOM     27  C   UNL     1      36.458 -23.494 -12.041  0.00  0.00    +0.006 C 
ATOM     28  C   UNL     1      37.853 -25.902 -12.226  0.00  0.00    +0.000 C 
ATOM     29  C   UNL     1      37.662 -23.657 -11.355  0.00  0.00    +0.000 C 
ATOM     30  C   UNL     1      38.359 -24.861 -11.447  0.00  0.00    +0.000 C 
ENDBRANCH  23  25
ENDBRANCH  18  21
ENDBRANCH  17  18
ENDBRANCH   1  17
TORSDOF 7
ENDMDL
MODEL 5
REMARK VINA RESULT:     -11.3      3.678     11.488
REMARK  Name = 154000
REMARK  7 active torsions:
REMARK  status: ('A' for Active; 'I' for Inactive)
REMARK    1  A    between atoms: O_1  and  C_5
REMARK    2  A    between atoms: O_1  and  C_17
REMARK    3  A    between atoms: C_2  and  C_8
REMARK    4  A    between atoms: C_8  and  C_13
REMARK    5  A    between atoms: C_17  and  C_18
REMARK    6  A    between atoms: C_18  and  C_21
REMARK    7  A    between atoms: C_23  and  C_25
REMARK                            x       y       z     vdW  Elec       q    Type
REMARK                         _______ _______ _______ _____ _____    ______ ____
ROOT
ATOM      1  O   UNL     1      34.027 -13.914 -23.438  0.00  0.00    -0.475 OA
ENDROOT
BRANCH   1   5
ATOM      2  C   UNL     1      32.241 -10.379 -22.254  0.00  0.00    -0.021 C 
ATOM      3  C   UNL     1      31.849 -11.571 -21.663  0.00  0.00    -0.001 C 
ATOM      4  C   UNL     1      33.220 -10.351 -23.235  0.00  0.00    -0.001 C 
ATOM      5  C   UNL     1      33.438 -12.750 -23.047  0.00  0.00    +0.139 C 
ATOM      6  C   UNL     1      32.451 -12.764 -22.062  0.00  0.00    +0.037 C 
ATOM      7  C   UNL     1      33.823 -11.544 -23.634  0.00  0.00    +0.037 C 
BRANCH   2   8
ATOM      8  C   UNL     1      31.588  -9.090 -21.823  0.00  0.00    +0.047 C 
BRANCH   8  13
ATOM      9  O   UNL     1      31.973  -5.679 -22.070  0.00  0.00    -0.346 OA
ATOM     10  O   UNL     1      32.963  -7.784 -19.464  0.00  0.00    -0.272 OA
ATOM     11  O   UNL     1      31.846  -6.955 -23.975  0.00  0.00    -0.247 OA
ATOM     12  N   UNL     1      32.306  -5.937 -20.723  0.00  0.00    -0.144 N 
ATOM     13  C   UNL     1      32.558  -7.924 -21.854  0.00  0.00    +0.184 C 
ATOM     14  C   UNL     1      32.646  -7.252 -20.517  0.00  0.00    +0.264 C 
ATOM     15  C   UNL     1      32.086  -6.838 -22.785  0.00  0.00    +0.348 C 
ATOM     16  H   UNL     1      32.296  -5.254 -20.015  0.00  0.00    +0.196 HD
ENDBRANCH   8  13
ENDBRANCH   2   8
ENDBRANCH   1   5
BRANCH   1  17
ATOM     17  C   UNL     1      33.817 -15.057 -22.610  0.00  0.00    +0.213 C 
BRANCH  17  18
ATOM     18  C   UNL     1      35.138 -15.791 -22.399  0.00  0.00    +0.105 C 
BRANCH  18  21
ATOM     19  O   UNL     1      34.663 -19.399 -22.677  0.00  0.00    -0.449 OA
ATOM     20  N   UNL     1      35.018 -17.863 -21.055  0.00  0.00    -0.373 NA
ATOM     21  C   UNL     1      34.966 -17.278 -22.276  0.00  0.00    +0.134 C 
ATOM     22  C   UNL     1      34.755 -18.174 -23.267  0.00  0.00    +0.216 C 
ATOM     23  C   UNL     1      34.830 -19.129 -21.354  0.00  0.00    +0.277 C 
ATOM     24  C   UNL     1      34.613 -18.123 -24.726  0.00  0.00    +0.055 C 
BRANCH  23  25
ATOM     25  C   UNL     1      34.778 -20.273 -20.485  0.00  0.00    +0.066 C 
ATOM     26  C   UNL     1      35.958 -20.887 -20.058  0.00  0.00    +0.006 C 
ATOM     27  C   UNL     1      33.545 -20.779 -20.064  0.00  0.00    +0.006 C 
ATOM     28  C   UNL     1      35.906 -21.998 -19.217  0.00  0.00    +0.000 C 
ATOM     29  C   UNL     1      33.492 -21.889 -19.222  0.00  0.00    +0.000 C 
ATOM     30  C   UNL     1      34.673 -22.500 -18.798  0.00  0.00    +0.000 C 
ENDBRANCH  23  25
ENDBRANCH  18  21
ENDBRANCH  17  18
ENDBRANCH   1  17
TORSDOF 7
ENDMDL
MODEL 6
REMARK VINA RESULT:     -11.2      2.553     10.501
REMARK  Name = 154000
REMARK  7 active torsions:
REMARK  status: ('A' for Active; 'I' for Inactive)
REMARK    1  A    between atoms: O_1  and  C_5
REMARK    2  A    between atoms: O_1  and  C_17
REMARK    3  A    between atoms: C_2  and  C_8
REMARK    4  A    between atoms: C_8  and  C_13
REMARK    5  A    between atoms: C_17  and  C_18
REMARK    6  A    between atoms: C_18  and  C_21
REMARK    7  A    between atoms: C_23  and  C_25
REMARK                            x       y       z     vdW  Elec       q    Type
REMARK                         _______ _______ _______ _____ _____    ______ ____
ROOT
ATOM      1  O   UNL     1      35.195 -20.325 -20.272  0.00  0.00    -0.475 OA
ENDROOT
BRANCH   1   5
ATOM      2  C   UNL     1      35.100 -17.454 -23.245  0.00  0.00    -0.021 C 
ATOM      3  C   UNL     1      34.920 -18.788 -23.581  0.00  0.00    -0.001 C 
ATOM      4  C   UNL     1      35.313 -17.067 -21.931  0.00  0.00    -0.001 C 
ATOM      5  C   UNL     1      35.164 -19.381 -21.252  0.00  0.00    +0.139 C 
ATOM      6  C   UNL     1      34.952 -19.757 -22.578  0.00  0.00    +0.037 C 
ATOM      7  C   UNL     1      35.345 -18.036 -20.928  0.00  0.00    +0.037 C 
BRANCH   2   8
ATOM      8  C   UNL     1      35.067 -16.408 -24.330  0.00  0.00    +0.047 C 
BRANCH   8  13
ATOM      9  O   UNL     1      33.621 -13.334 -24.884  0.00  0.00    -0.346 OA
ATOM     10  O   UNL     1      32.795 -16.405 -26.329  0.00  0.00    -0.272 OA
ATOM     11  O   UNL     1      34.639 -13.772 -22.871  0.00  0.00    -0.247 OA
ATOM     12  N   UNL     1      33.075 -14.129 -25.913  0.00  0.00    -0.144 N 
ATOM     13  C   UNL     1      33.799 -15.578 -24.279  0.00  0.00    +0.184 C 
ATOM     14  C   UNL     1      33.161 -15.472 -25.632  0.00  0.00    +0.264 C 
ATOM     15  C   UNL     1      34.088 -14.151 -23.892  0.00  0.00    +0.348 C 
ATOM     16  H   UNL     1      32.678 -13.765 -26.736  0.00  0.00    +0.196 HD
ENDBRANCH   8  13
ENDBRANCH   2   8
ENDBRANCH   1   5
BRANCH   1  17
ATOM     17  C   UNL     1      33.948 -20.902 -19.887  0.00  0.00    +0.213 C 
BRANCH  17  18
ATOM     18  C   UNL     1      34.124 -22.398 -19.647  0.00  0.00    +0.105 C 
BRANCH  18  21
ATOM     19  O   UNL     1      34.273 -23.201 -16.089  0.00  0.00    -0.449 OA
ATOM     20  N   UNL     1      32.743 -23.193 -17.756  0.00  0.00    -0.373 NA
ATOM     21  C   UNL     1      33.954 -22.782 -18.205  0.00  0.00    +0.134 C 
ATOM     22  C   UNL     1      34.889 -22.776 -17.228  0.00  0.00    +0.216 C 
ATOM     23  C   UNL     1      32.991 -23.430 -16.487  0.00  0.00    +0.277 C 
ATOM     24  C   UNL     1      36.314 -22.441 -17.130  0.00  0.00    +0.055 C 
BRANCH  23  25
ATOM     25  C   UNL     1      32.105 -23.896 -15.456  0.00  0.00    +0.066 C 
ATOM     26  C   UNL     1      30.724 -23.719 -15.582  0.00  0.00    +0.006 C 
ATOM     27  C   UNL     1      32.619 -24.528 -14.321  0.00  0.00    +0.006 C 
ATOM     28  C   UNL     1      29.865 -24.169 -14.580  0.00  0.00    +0.000 C 
ATOM     29  C   UNL     1      31.760 -24.979 -13.319  0.00  0.00    +0.000 C 
ATOM     30  C   UNL     1      30.383 -24.800 -13.448  0.00  0.00    +0.000 C 
ENDBRANCH  23  25
ENDBRANCH  18  21
ENDBRANCH  17  18
ENDBRANCH   1  17
TORSDOF 7
ENDMDL
MODEL 7
REMARK VINA RESULT:     -11.2      3.609     10.185
REMARK  Name = 154000
REMARK  7 active torsions:
REMARK  status: ('A' for Active; 'I' for Inactive)
REMARK    1  A    between atoms: O_1  and  C_5
REMARK    2  A    between atoms: O_1  and  C_17
REMARK    3  A    between atoms: C_2  and  C_8
REMARK    4  A    between atoms: C_8  and  C_13
REMARK    5  A    between atoms: C_17  and  C_18
REMARK    6  A    between atoms: C_18  and  C_21
REMARK    7  A    between atoms: C_23  and  C_25
REMARK                            x       y       z     vdW  Elec       q    Type
REMARK                         _______ _______ _______ _____ _____    ______ ____
ROOT
ATOM      1  O   UNL     1      36.195 -23.142 -16.954  0.00  0.00    -0.475 OA
ENDROOT
BRANCH   1   5
ATOM      2  C   UNL     1      34.660 -20.914 -20.080  0.00  0.00    -0.021 C 
ATOM      3  C   UNL     1      33.799 -21.655 -19.284  0.00  0.00    -0.001 C 
ATOM      4  C   UNL     1      36.027 -20.908 -19.846  0.00  0.00    -0.001 C 
ATOM      5  C   UNL     1      35.689 -22.409 -17.983  0.00  0.00    +0.139 C 
ATOM      6  C   UNL     1      34.316 -22.407 -18.229  0.00  0.00    +0.037 C 
ATOM      7  C   UNL     1      36.544 -21.660 -18.791  0.00  0.00    +0.037 C 
BRANCH   2   8
ATOM      8  C   UNL     1      34.100 -20.102 -21.221  0.00  0.00    +0.047 C 
BRANCH   8  13
ATOM      9  O   UNL     1      34.866 -18.066 -23.886  0.00  0.00    -0.346 OA
ATOM     10  O   UNL     1      35.347 -17.445 -20.483  0.00  0.00    -0.272 OA
ATOM     11  O   UNL     1      34.809 -20.344 -24.169  0.00  0.00    -0.247 OA
ATOM     12  N   UNL     1      35.026 -17.207 -22.778  0.00  0.00    -0.144 N 
ATOM     13  C   UNL     1      35.185 -19.355 -21.972  0.00  0.00    +0.184 C 
ATOM     14  C   UNL     1      35.201 -17.902 -21.605  0.00  0.00    +0.264 C 
ATOM     15  C   UNL     1      34.932 -19.361 -23.457  0.00  0.00    +0.348 C 
ATOM     16  H   UNL     1      35.012 -16.225 -22.838  0.00  0.00    +0.196 HD
ENDBRANCH   8  13
ENDBRANCH   2   8
ENDBRANCH   1   5
BRANCH   1  17
ATOM     17  C   UNL     1      36.284 -22.501 -15.682  0.00  0.00    +0.213 C 
BRANCH  17  18
ATOM     18  C   UNL     1      36.302 -23.551 -14.576  0.00  0.00    +0.105 C 
BRANCH  18  21
ATOM     19  O   UNL     1      33.212 -24.692 -13.002  0.00  0.00    -0.449 OA
ATOM     20  N   UNL     1      33.870 -23.774 -14.962  0.00  0.00    -0.373 NA
ATOM     21  C   UNL     1      34.925 -23.953 -14.131  0.00  0.00    +0.134 C 
ATOM     22  C   UNL     1      34.560 -24.501 -12.949  0.00  0.00    +0.216 C 
ATOM     23  C   UNL     1      32.874 -24.233 -14.238  0.00  0.00    +0.277 C 
ATOM     24  C   UNL     1      35.244 -24.905 -11.716  0.00  0.00    +0.055 C 
BRANCH  23  25
ATOM     25  C   UNL     1      31.476 -24.319 -14.561  0.00  0.00    +0.066 C 
ATOM     26  C   UNL     1      30.690 -25.341 -14.020  0.00  0.00    +0.006 C 
ATOM     27  C   UNL     1      30.895 -23.382 -15.419  0.00  0.00    +0.006 C 
ATOM     28  C   UNL     1      29.334 -25.425 -14.336  0.00  0.00    +0.000 C 
ATOM     29  C   UNL     1      29.538 -23.466 -15.735  0.00  0.00    +0.000 C 
ATOM     30  C   UNL     1      28.758 -24.487 -15.193  0.00  0.00    +0.000 C 
ENDBRANCH  23  25
ENDBRANCH  18  21
ENDBRANCH  17  18
ENDBRANCH   1  17
TORSDOF 7
ENDMDL
MODEL 8
REMARK VINA RESULT:     -11.1      3.552      6.501
REMARK  Name = 154000
REMARK  7 active torsions:
REMARK  status: ('A' for Active; 'I' for Inactive)
REMARK    1  A    between atoms: O_1  and  C_5
REMARK    2  A    between atoms: O_1  and  C_17
REMARK    3  A    between atoms: C_2  and  C_8
REMARK    4  A    between atoms: C_8  and  C_13
REMARK    5  A    between atoms: C_17  and  C_18
REMARK    6  A    between atoms: C_18  and  C_21
REMARK    7  A    between atoms: C_23  and  C_25
REMARK                            x       y       z     vdW  Elec       q    Type
REMARK                         _______ _______ _______ _____ _____    ______ ____
ROOT
ATOM      1  O   UNL     1      33.716 -13.948 -24.332  0.00  0.00    -0.475 OA
ENDROOT
BRANCH   1   5
ATOM      2  C   UNL     1      35.067 -17.649 -23.081  0.00  0.00    -0.021 C 
ATOM      3  C   UNL     1      34.675 -17.478 -24.401  0.00  0.00    -0.001 C 
ATOM      4  C   UNL     1      35.013 -16.602 -22.174  0.00  0.00    -0.001 C 
ATOM      5  C   UNL     1      34.160 -15.167 -23.921  0.00  0.00    +0.139 C 
ATOM      6  C   UNL     1      34.219 -16.229 -24.823  0.00  0.00    +0.037 C 
ATOM      7  C   UNL     1      34.557 -15.353 -22.597  0.00  0.00    +0.037 C 
BRANCH   2   8
ATOM      8  C   UNL     1      35.559 -19.000 -22.625  0.00  0.00    +0.047 C 
BRANCH   8  13
ATOM      9  O   UNL     1      35.371 -21.129 -19.928  0.00  0.00    -0.346 OA
ATOM     10  O   UNL     1      37.925 -18.889 -20.740  0.00  0.00    -0.272 OA
ATOM     11  O   UNL     1      33.444 -20.364 -20.916  0.00  0.00    -0.247 OA
ATOM     12  N   UNL     1      36.708 -20.682 -19.883  0.00  0.00    -0.144 N 
ATOM     13  C   UNL     1      35.538 -19.130 -21.114  0.00  0.00    +0.184 C 
ATOM     14  C   UNL     1      36.886 -19.510 -20.580  0.00  0.00    +0.264 C 
ATOM     15  C   UNL     1      34.633 -20.249 -20.669  0.00  0.00    +0.348 C 
ATOM     16  H   UNL     1      37.429 -21.154 -19.408  0.00  0.00    +0.196 HD
ENDBRANCH   8  13
ENDBRANCH   2   8
ENDBRANCH   1   5
BRANCH   1  17
ATOM     17  C   UNL     1      33.913 -12.851 -23.441  0.00  0.00    +0.213 C 
BRANCH  17  18
ATOM     18  C   UNL     1      32.728 -12.744 -22.485  0.00  0.00    +0.105 C 
BRANCH  18  21
ATOM     19  O   UNL     1      31.545  -9.507 -21.285  0.00  0.00    -0.449 OA
ATOM     20  N   UNL     1      32.712 -10.334 -23.037  0.00  0.00    -0.373 NA
ATOM     21  C   UNL     1      32.345 -11.323 -22.187  0.00  0.00    +0.134 C 
ATOM     22  C   UNL     1      31.645 -10.856 -21.128  0.00  0.00    +0.216 C 
ATOM     23  C   UNL     1      32.208  -9.272 -22.451  0.00  0.00    +0.277 C 
ATOM     24  C   UNL     1      31.015 -11.438 -19.937  0.00  0.00    +0.055 C 
BRANCH  23  25
ATOM     25  C   UNL     1      32.256  -7.895 -22.860  0.00  0.00    +0.066 C 
ATOM     26  C   UNL     1      33.410  -7.377 -23.456  0.00  0.00    +0.006 C 
ATOM     27  C   UNL     1      31.149  -7.065 -22.663  0.00  0.00    +0.006 C 
ATOM     28  C   UNL     1      33.456  -6.041 -23.851  0.00  0.00    +0.000 C 
ATOM     29  C   UNL     1      31.195  -5.728 -23.059  0.00  0.00    +0.000 C 
ATOM     30  C   UNL     1      32.348  -5.216 -23.653  0.00  0.00    +0.000 C 
ENDBRANCH  23  25
ENDBRANCH  18  21
ENDBRANCH  17  18
ENDBRANCH   1  17
TORSDOF 7
ENDMDL
MODEL 9
REMARK VINA RESULT:     -11.0      2.851     10.295
REMARK  Name = 154000
REMARK  7 active torsions:
REMARK  status: ('A' for Active; 'I' for Inactive)
REMARK    1  A    between atoms: O_1  and  C_5
REMARK    2  A    between atoms: O_1  and  C_17
REMARK    3  A    between atoms: C_2  and  C_8
REMARK    4  A    between atoms: C_8  and  C_13
REMARK    5  A    between atoms: C_17  and  C_18
REMARK    6  A    between atoms: C_18  and  C_21
REMARK    7  A    between atoms: C_23  and  C_25
REMARK                            x       y       z     vdW  Elec       q    Type
REMARK                         _______ _______ _______ _____ _____    ______ ____
ROOT
ATOM      1  O   UNL     1      36.966 -21.269 -18.849  0.00  0.00    -0.475 OA
ENDROOT
BRANCH   1   5
ATOM      2  C   UNL     1      35.308 -19.169 -22.000  0.00  0.00    -0.021 C 
ATOM      3  C   UNL     1      36.642 -18.969 -21.675  0.00  0.00    -0.001 C 
ATOM      4  C   UNL     1      34.521 -20.060 -21.287  0.00  0.00    -0.001 C 
ATOM      5  C   UNL     1      36.421 -20.577 -19.887  0.00  0.00    +0.139 C 
ATOM      6  C   UNL     1      37.201 -19.677 -20.612  0.00  0.00    +0.037 C 
ATOM      7  C   UNL     1      35.081 -20.768 -20.224  0.00  0.00    +0.037 C 
BRANCH   2   8
ATOM      8  C   UNL     1      34.703 -18.402 -23.149  0.00  0.00    +0.047 C 
BRANCH   8  13
ATOM      9  O   UNL     1      33.966 -15.164 -24.052  0.00  0.00    -0.346 OA
ATOM     10  O   UNL     1      34.648 -16.418 -20.864  0.00  0.00    -0.272 OA
ATOM     11  O   UNL     1      34.947 -16.579 -25.573  0.00  0.00    -0.247 OA
ATOM     12  N   UNL     1      33.880 -15.126 -22.644  0.00  0.00    -0.144 N 
ATOM     13  C   UNL     1      35.166 -16.958 -23.173  0.00  0.00    +0.184 C 
ATOM     14  C   UNL     1      34.554 -16.169 -22.056  0.00  0.00    +0.264 C 
ATOM     15  C   UNL     1      34.706 -16.252 -24.422  0.00  0.00    +0.348 C 
ATOM     16  H   UNL     1      33.395 -14.432 -22.143  0.00  0.00    +0.196 HD
ENDBRANCH   8  13
ENDBRANCH   2   8
ENDBRANCH   1   5
BRANCH   1  17
ATOM     17  C   UNL     1      36.088 -22.103 -18.092  0.00  0.00    +0.213 C 
BRANCH  17  18
ATOM     18  C   UNL     1      36.734 -22.451 -16.755  0.00  0.00    +0.105 C 
BRANCH  18  21
ATOM     19  O   UNL     1      34.819 -23.886 -13.999  0.00  0.00    -0.449 OA
ATOM     20  N   UNL     1      34.458 -23.174 -16.115  0.00  0.00    -0.373 NA
ATOM     21  C   UNL     1      35.759 -23.027 -15.768  0.00  0.00    +0.134 C 
ATOM     22  C   UNL     1      36.004 -23.445 -14.506  0.00  0.00    +0.216 C 
ATOM     23  C   UNL     1      33.943 -23.692 -15.023  0.00  0.00    +0.277 C 
ATOM     24  C   UNL     1      37.177 -23.524 -13.627  0.00  0.00    +0.055 C 
BRANCH  23  25
ATOM     25  C   UNL     1      32.587 -24.081 -14.749  0.00  0.00    +0.066 C 
ATOM     26  C   UNL     1      31.544 -23.607 -15.550  0.00  0.00    +0.006 C 
ATOM     27  C   UNL     1      32.304 -24.934 -13.680  0.00  0.00    +0.006 C 
ATOM     28  C   UNL     1      30.228 -23.984 -15.282  0.00  0.00    +0.000 C 
ATOM     29  C   UNL     1      30.988 -25.312 -13.412  0.00  0.00    +0.000 C 
ATOM     30  C   UNL     1      29.950 -24.837 -14.214  0.00  0.00    +0.000 C 
ENDBRANCH  23  25
ENDBRANCH  18  21
ENDBRANCH  17  18
ENDBRANCH   1  17
TORSDOF 7
ENDMDL
