MODEL 1
REMARK VINA RESULT:     -11.7      0.000      0.000
REMARK  Name = 446560
REMARK  8 active torsions:
REMARK  status: ('A' for Active; 'I' for Inactive)
REMARK    1  A    between atoms: C_1  and  C_19
REMARK    2  A    between atoms: C_2  and  C_9
REMARK    3  A    between atoms: N_8  and  CA_11
REMARK    4  A    between atoms: CA_11  and  CB_12
REMARK    5  A    between atoms: CA_11  and  C_16
REMARK    6  A    between atoms: C_16  and  O_17
REMARK    7  A    between atoms: C_19  and  C_20
REMARK    8  A    between atoms: C_20  and  C_26
REMARK                            x       y       z     vdW  Elec       q    Type
REMARK                         _______ _______ _______ _____ _____    ______ ____
ROOT
ATOM      1  C   UNL     1      34.784 -20.523 -20.490  0.00  0.00    -0.022 C 
ATOM      2  C   UNL     1      33.658 -22.258 -18.662  0.00  0.00    +0.053 C 
ATOM      3  C   UNL     1      35.595 -21.398 -19.765  0.00  0.00    -0.004 C 
ATOM      4  C   UNL     1      33.403 -20.526 -20.289  0.00  0.00    -0.004 C 
ATOM      5  C   UNL     1      35.026 -22.274 -18.842  0.00  0.00    +0.004 C 
ATOM      6  C   UNL     1      32.835 -21.402 -19.364  0.00  0.00    +0.004 C 
ENDROOT
BRANCH   2   9
ATOM      7  O   UNL     1      33.586 -24.279 -17.477  0.00  0.00    -0.270 OA
ATOM      8  N   UNL     1      31.911 -22.737 -17.038  0.00  0.00    -0.293 N 
ATOM      9  C   ACE A   0      33.051 -23.192 -17.680  0.00  0.00    +0.246 C 
ATOM     10  H   UNL     1      31.559 -21.848 -17.272  0.00  0.00    +0.150 HD
BRANCH   8  11
ATOM     11  CA  UNL     1      31.220 -23.520 -16.039  0.00  0.00    +0.171 C 
BRANCH  11  12
ATOM     12  CB  UNL     1      31.686 -23.111 -14.625  0.00  0.00    +0.029 C 
ATOM     13  CG1 UNL     1      33.049 -23.714 -14.268  0.00  0.00    +0.002 C 
ATOM     14  CG2 UNL     1      30.662 -23.435 -13.534  0.00  0.00    +0.002 C 
ENDBRANCH  11  12
BRANCH  11  16
ATOM     15  OXT UNL     1      29.107 -22.427 -16.532  0.00  0.00    -0.248 OA
ATOM     16  C   UNL     1      29.710 -23.456 -16.247  0.00  0.00    +0.332 C 
BRANCH  16  17
ATOM     17  O   UNL     1      29.061 -24.629 -16.041  0.00  0.00    -0.479 OA
ATOM     18  H   UNL     1      29.410 -25.424 -16.392  0.00  0.00    +0.295 HD
ENDBRANCH  16  17
ENDBRANCH  11  16
ENDBRANCH   8  11
ENDBRANCH   2   9
BRANCH   1  19
ATOM     19  C   UNL     1      35.393 -19.586 -21.476  0.00  0.00    +0.031 C 
BRANCH  19  20
ATOM     20  C   UNL     1      35.261 -18.097 -21.097  0.00  0.00    +0.033 C 
BRANCH  20  26
ATOM     21  O   UNL     1      34.216 -15.293 -20.023  0.00  0.00    -0.209 OA
ATOM     22  N   UNL     1      35.058 -16.452 -24.370  0.00  0.00    -0.300 N 
ATOM     23  N   UNL     1      34.272 -14.217 -23.929  0.00  0.00    -0.264 N 
ATOM     24  N   UNL     1      33.852 -13.677 -21.633  0.00  0.00    -0.302 NA
ATOM     25  N   UNL     1      33.515 -12.111 -23.362  0.00  0.00    -0.320 N 
ATOM     26  C   UNL     1      35.085 -17.192 -22.283  0.00  0.00    +0.007 C 
ATOM     27  C   UNL     1      34.642 -15.865 -22.253  0.00  0.00    +0.120 C 
ATOM     28  C   UNL     1      34.641 -15.450 -23.557  0.00  0.00    +0.115 C 
ATOM     29  C   UNL     1      35.339 -17.546 -23.581  0.00  0.00    +0.059 C 
ATOM     30  C   UNL     1      34.228 -14.951 -21.200  0.00  0.00    +0.209 C 
ATOM     31  C   UNL     1      33.879 -13.355 -22.911  0.00  0.00    +0.248 C 
ATOM     32  H   UNL     1      35.145 -16.408 -25.351  0.00  0.00    +0.153 HD
ATOM     33  H   UNL     1      34.277 -13.937 -24.873  0.00  0.00    +0.157 HD
ATOM     34  H   UNL     1      33.548 -11.906 -24.324  0.00  0.00    +0.146 HD
ATOM     35  H   UNL     1      33.221 -11.422 -22.723  0.00  0.00    +0.146 HD
ENDBRANCH  20  26
ENDBRANCH  19  20
ENDBRANCH   1  19
TORSDOF 8
ENDMDL
MODEL 2
REMARK VINA RESULT:     -11.6      2.164      3.033
REMARK  Name = 446560
REMARK  8 active torsions:
REMARK  status: ('A' for Active; 'I' for Inactive)
REMARK    1  A    between atoms: C_1  and  C_19
REMARK    2  A    between atoms: C_2  and  C_9
REMARK    3  A    between atoms: N_8  and  CA_11
REMARK    4  A    between atoms: CA_11  and  CB_12
REMARK    5  A    between atoms: CA_11  and  C_16
REMARK    6  A    between atoms: C_16  and  O_17
REMARK    7  A    between atoms: C_19  and  C_20
REMARK    8  A    between atoms: C_20  and  C_26
REMARK                            x       y       z     vdW  Elec       q    Type
REMARK                         _______ _______ _______ _____ _____    ______ ____
ROOT
ATOM      1  C   UNL     1      35.684 -19.957 -20.639  0.00  0.00    -0.022 C 
ATOM      2  C   UNL     1      34.719 -21.980 -19.029  0.00  0.00    +0.053 C 
ATOM      3  C   UNL     1      34.311 -20.196 -20.565  0.00  0.00    -0.004 C 
ATOM      4  C   UNL     1      36.569 -20.742 -19.898  0.00  0.00    -0.004 C 
ATOM      5  C   UNL     1      33.824 -21.218 -19.751  0.00  0.00    +0.004 C 
ATOM      6  C   UNL     1      36.080 -21.764 -19.085  0.00  0.00    +0.004 C 
ENDROOT
BRANCH   2   9
ATOM      7  O   UNL     1      33.442 -23.907 -18.640  0.00  0.00    -0.270 OA
ATOM      8  N   UNL     1      34.647 -23.059 -16.849  0.00  0.00    -0.293 N 
ATOM      9  C   ACE A   0      34.201 -23.067 -18.161  0.00  0.00    +0.246 C 
ATOM     10  H   UNL     1      35.256 -22.341 -16.561  0.00  0.00    +0.150 HD
BRANCH   8  11
ATOM     11  CA  UNL     1      34.251 -24.065 -15.890  0.00  0.00    +0.171 C 
BRANCH  11  12
ATOM     12  CB  UNL     1      35.417 -24.366 -14.923  0.00  0.00    +0.029 C 
ATOM     13  CG1 UNL     1      36.672 -23.553 -15.258  0.00  0.00    +0.002 C 
ATOM     14  CG2 UNL     1      35.759 -25.856 -14.834  0.00  0.00    +0.002 C 
ENDBRANCH  11  12
BRANCH  11  16
ATOM     15  OXT UNL     1      31.850 -23.728 -15.748  0.00  0.00    -0.248 OA
ATOM     16  C   UNL     1      32.946 -23.676 -15.202  0.00  0.00    +0.332 C 
BRANCH  16  17
ATOM     17  O   UNL     1      33.092 -23.211 -13.936  0.00  0.00    -0.479 OA
ATOM     18  H   UNL     1      33.886 -22.783 -13.684  0.00  0.00    +0.295 HD
ENDBRANCH  16  17
ENDBRANCH  11  16
ENDBRANCH   8  11
ENDBRANCH   2   9
BRANCH   1  19
ATOM     19  C   UNL     1      36.204 -18.864 -21.510  0.00  0.00    +0.031 C 
BRANCH  19  20
ATOM     20  C   UNL     1      35.231 -18.428 -22.624  0.00  0.00    +0.033 C 
BRANCH  20  26
ATOM     21  O   UNL     1      34.542 -17.475 -25.578  0.00  0.00    -0.209 OA
ATOM     22  N   UNL     1      34.455 -14.947 -21.763  0.00  0.00    -0.300 N 
ATOM     23  N   UNL     1      33.864 -13.878 -23.841  0.00  0.00    -0.264 N 
ATOM     24  N   UNL     1      33.929 -15.258 -25.798  0.00  0.00    -0.302 NA
ATOM     25  N   UNL     1      33.321 -12.984 -25.899  0.00  0.00    -0.320 N 
ATOM     26  C   UNL     1      34.862 -16.973 -22.558  0.00  0.00    +0.007 C 
ATOM     27  C   UNL     1      34.490 -16.165 -23.638  0.00  0.00    +0.120 C 
ATOM     28  C   UNL     1      34.248 -14.928 -23.103  0.00  0.00    +0.115 C 
ATOM     29  C   UNL     1      34.838 -16.223 -21.413  0.00  0.00    +0.059 C 
ATOM     30  C   UNL     1      34.332 -16.380 -25.068  0.00  0.00    +0.209 C 
ATOM     31  C   UNL     1      33.716 -14.100 -25.205  0.00  0.00    +0.248 C 
ATOM     32  H   UNL     1      34.349 -14.185 -21.148  0.00  0.00    +0.153 HD
ATOM     33  H   UNL     1      33.695 -12.995 -23.438  0.00  0.00    +0.157 HD
ATOM     34  H   UNL     1      33.171 -12.135 -25.423  0.00  0.00    +0.146 HD
ATOM     35  H   UNL     1      33.186 -13.032 -26.873  0.00  0.00    +0.146 HD
ENDBRANCH  20  26
ENDBRANCH  19  20
ENDBRANCH   1  19
TORSDOF 8
ENDMDL
MODEL 3
REMARK VINA RESULT:     -11.5      1.660      2.206
REMARK  Name = 446560
REMARK  8 active torsions:
REMARK  status: ('A' for Active; 'I' for Inactive)
REMARK    1  A    between atoms: C_1  and  C_19
REMARK    2  A    between atoms: C_2  and  C_9
REMARK    3  A    between atoms: N_8  and  CA_11
REMARK    4  A    between atoms: CA_11  and  CB_12
REMARK    5  A    between atoms: CA_11  and  C_16
REMARK    6  A    between atoms: C_16  and  O_17
REMARK    7  A    between atoms: C_19  and  C_20
REMARK    8  A    between atoms: C_20  and  C_26
REMARK                            x       y       z     vdW  Elec       q    Type
REMARK                         _______ _______ _______ _____ _____    ______ ____
ROOT
ATOM      1  C   UNL     1      35.482 -20.148 -20.577  0.00  0.00    -0.022 C 
ATOM      2  C   UNL     1      34.289 -22.129 -19.071  0.00  0.00    +0.053 C 
ATOM      3  C   UNL     1      36.269 -21.039 -19.846  0.00  0.00    -0.004 C 
ATOM      4  C   UNL     1      34.092 -20.258 -20.545  0.00  0.00    -0.004 C 
ATOM      5  C   UNL     1      35.666 -22.040 -19.086  0.00  0.00    +0.004 C 
ATOM      6  C   UNL     1      33.489 -21.259 -19.784  0.00  0.00    +0.004 C 
ENDROOT
BRANCH   2   9
ATOM      7  O   UNL     1      33.612 -24.342 -18.702  0.00  0.00    -0.270 OA
ATOM      8  N   UNL     1      33.142 -22.802 -17.034  0.00  0.00    -0.293 N 
ATOM      9  C   ACE A   0      33.646 -23.195 -18.263  0.00  0.00    +0.246 C 
ATOM     10  H   UNL     1      33.217 -21.856 -16.772  0.00  0.00    +0.150 HD
BRANCH   8  11
ATOM     11  CA  UNL     1      32.509 -23.729 -16.123  0.00  0.00    +0.171 C 
BRANCH  11  12
ATOM     12  CB  UNL     1      33.147 -23.616 -14.721  0.00  0.00    +0.029 C 
ATOM     13  CG1 UNL     1      34.647 -23.310 -14.790  0.00  0.00    +0.002 C 
ATOM     14  CG2 UNL     1      32.897 -24.846 -13.844  0.00  0.00    +0.002 C 
ENDBRANCH  11  12
BRANCH  11  16
ATOM     15  OXT UNL     1      30.217 -24.342 -15.606  0.00  0.00    -0.248 OA
ATOM     16  C   UNL     1      30.993 -23.559 -16.141  0.00  0.00    +0.332 C 
BRANCH  16  17
ATOM     17  O   UNL     1      30.553 -22.489 -16.848  0.00  0.00    -0.479 OA
ATOM     18  H   UNL     1      30.154 -22.614 -17.687  0.00  0.00    +0.295 HD
ENDBRANCH  16  17
ENDBRANCH  11  16
ENDBRANCH   8  11
ENDBRANCH   2   9
BRANCH   1  19
ATOM     19  C   UNL     1      36.128 -19.077 -21.389  0.00  0.00    +0.031 C 
BRANCH  19  20
ATOM     20  C   UNL     1      35.272 -18.577 -22.570  0.00  0.00    +0.033 C 
BRANCH  20  26
ATOM     21  O   UNL     1      34.605 -17.547 -25.503  0.00  0.00    -0.209 OA
ATOM     22  N   UNL     1      34.502 -15.117 -21.626  0.00  0.00    -0.300 N 
ATOM     23  N   UNL     1      33.927 -13.993 -23.680  0.00  0.00    -0.264 N 
ATOM     24  N   UNL     1      34.001 -15.323 -25.671  0.00  0.00    -0.302 NA
ATOM     25  N   UNL     1      33.401 -13.045 -25.718  0.00  0.00    -0.320 N 
ATOM     26  C   UNL     1      34.907 -17.124 -22.470  0.00  0.00    +0.007 C 
ATOM     27  C   UNL     1      34.545 -16.287 -23.531  0.00  0.00    +0.120 C 
ATOM     28  C   UNL     1      34.303 -15.063 -22.967  0.00  0.00    +0.115 C 
ATOM     29  C   UNL     1      34.879 -16.403 -21.306  0.00  0.00    +0.059 C 
ATOM     30  C   UNL     1      34.395 -16.465 -24.967  0.00  0.00    +0.209 C 
ATOM     31  C   UNL     1      33.788 -14.180 -25.050  0.00  0.00    +0.248 C 
ATOM     32  H   UNL     1      34.394 -14.370 -20.992  0.00  0.00    +0.153 HD
ATOM     33  H   UNL     1      33.759 -13.121 -23.256  0.00  0.00    +0.157 HD
ATOM     34  H   UNL     1      33.251 -12.209 -25.221  0.00  0.00    +0.146 HD
ATOM     35  H   UNL     1      33.272 -13.068 -26.694  0.00  0.00    +0.146 HD
ENDBRANCH  20  26
ENDBRANCH  19  20
ENDBRANCH   1  19
TORSDOF 8
ENDMDL
MODEL 4
REMARK VINA RESULT:     -11.3      1.669      2.396
REMARK  Name = 446560
REMARK  8 active torsions:
REMARK  status: ('A' for Active; 'I' for Inactive)
REMARK    1  A    between atoms: C_1  and  C_19
REMARK    2  A    between atoms: C_2  and  C_9
REMARK    3  A    between atoms: N_8  and  CA_11
REMARK    4  A    between atoms: CA_11  and  CB_12
REMARK    5  A    between atoms: CA_11  and  C_16
REMARK    6  A    between atoms: C_16  and  O_17
REMARK    7  A    between atoms: C_19  and  C_20
REMARK    8  A    between atoms: C_20  and  C_26
REMARK                            x       y       z     vdW  Elec       q    Type
REMARK                         _______ _______ _______ _____ _____    ______ ____
ROOT
ATOM      1  C   UNL     1      35.446 -20.139 -20.635  0.00  0.00    -0.022 C 
ATOM      2  C   UNL     1      34.572 -22.136 -18.944  0.00  0.00    +0.053 C 
ATOM      3  C   UNL     1      34.079 -20.376 -20.483  0.00  0.00    -0.004 C 
ATOM      4  C   UNL     1      36.370 -20.913 -19.933  0.00  0.00    -0.004 C 
ATOM      5  C   UNL     1      33.637 -21.385 -19.628  0.00  0.00    +0.004 C 
ATOM      6  C   UNL     1      35.928 -21.922 -19.078  0.00  0.00    +0.004 C 
ENDROOT
BRANCH   2   9
ATOM      7  O   UNL     1      33.333 -24.067 -18.461  0.00  0.00    -0.270 OA
ATOM      8  N   UNL     1      34.602 -23.169 -16.741  0.00  0.00    -0.293 N 
ATOM      9  C   ACE A   0      34.102 -23.210 -18.032  0.00  0.00    +0.246 C 
ATOM     10  H   UNL     1      35.214 -22.438 -16.493  0.00  0.00    +0.150 HD
BRANCH   8  11
ATOM     11  CA  UNL     1      34.258 -24.158 -15.745  0.00  0.00    +0.171 C 
BRANCH  11  12
ATOM     12  CB  UNL     1      35.469 -24.433 -14.827  0.00  0.00    +0.029 C 
ATOM     13  CG1 UNL     1      36.682 -23.572 -15.195  0.00  0.00    +0.002 C 
ATOM     14  CG2 UNL     1      35.865 -25.912 -14.777  0.00  0.00    +0.002 C 
ENDBRANCH  11  12
BRANCH  11  16
ATOM     15  OXT UNL     1      31.858 -23.906 -15.468  0.00  0.00    -0.248 OA
ATOM     16  C   UNL     1      32.984 -23.763 -15.005  0.00  0.00    +0.332 C 
BRANCH  16  17
ATOM     17  O   UNL     1      33.189 -23.184 -13.796  0.00  0.00    -0.479 OA
ATOM     18  H   UNL     1      33.173 -23.707 -13.018  0.00  0.00    +0.295 HD
ENDBRANCH  16  17
ENDBRANCH  11  16
ENDBRANCH   8  11
ENDBRANCH   2   9
BRANCH   1  19
ATOM     19  C   UNL     1      35.917 -19.060 -21.550  0.00  0.00    +0.031 C 
BRANCH  19  20
ATOM     20  C   UNL     1      35.209 -17.705 -21.346  0.00  0.00    +0.033 C 
BRANCH  20  26
ATOM     21  O   UNL     1      34.586 -14.669 -20.634  0.00  0.00    -0.209 OA
ATOM     22  N   UNL     1      34.589 -16.594 -24.787  0.00  0.00    -0.300 N 
ATOM     23  N   UNL     1      34.068 -14.246 -24.631  0.00  0.00    -0.264 N 
ATOM     24  N   UNL     1      34.085 -13.303 -22.429  0.00  0.00    -0.302 NA
ATOM     25  N   UNL     1      33.588 -12.008 -24.334  0.00  0.00    -0.320 N 
ATOM     26  C   UNL     1      34.908 -16.989 -22.631  0.00  0.00    +0.007 C 
ATOM     27  C   UNL     1      34.583 -15.635 -22.767  0.00  0.00    +0.120 C 
ATOM     28  C   UNL     1      34.396 -15.436 -24.109  0.00  0.00    +0.115 C 
ATOM     29  C   UNL     1      34.910 -17.571 -23.871  0.00  0.00    +0.059 C 
ATOM     30  C   UNL     1      34.427 -14.524 -21.841  0.00  0.00    +0.209 C 
ATOM     31  C   UNL     1      33.923 -13.195 -23.733  0.00  0.00    +0.248 C 
ATOM     32  H   UNL     1      34.513 -16.717 -25.762  0.00  0.00    +0.153 HD
ATOM     33  H   UNL     1      33.937 -14.123 -25.599  0.00  0.00    +0.157 HD
ATOM     34  H   UNL     1      33.475 -11.965 -25.310  0.00  0.00    +0.146 HD
ATOM     35  H   UNL     1      33.462 -11.198 -23.788  0.00  0.00    +0.146 HD
ENDBRANCH  20  26
ENDBRANCH  19  20
ENDBRANCH   1  19
TORSDOF 8
ENDMDL
MODEL 5
REMARK VINA RESULT:     -11.3      3.008     10.517
REMARK  Name = 446560
REMARK  8 active torsions:
REMARK  status: ('A' for Active; 'I' for Inactive)
REMARK    1  A    between atoms: C_1  and  C_19
REMARK    2  A    between atoms: C_2  and  C_9
REMARK    3  A    between atoms: N_8  and  CA_11
REMARK    4  A    between atoms: CA_11  and  CB_12
REMARK    5  A    between atoms: CA_11  and  C_16
REMARK    6  A    between atoms: C_16  and  O_17
REMARK    7  A    between atoms: C_19  and  C_20
REMARK    8  A    between atoms: C_20  and  C_26
REMARK                            x       y       z     vdW  Elec       q    Type
REMARK                         _______ _______ _______ _____ _____    ______ ____
ROOT
ATOM      1  C   UNL     1      35.187 -17.346 -22.829  0.00  0.00    -0.022 C 
ATOM      2  C   UNL     1      34.247 -14.877 -23.622  0.00  0.00    +0.053 C 
ATOM      3  C   UNL     1      34.958 -16.349 -21.880  0.00  0.00    -0.004 C 
ATOM      4  C   UNL     1      34.942 -17.094 -24.179  0.00  0.00    -0.004 C 
ATOM      5  C   UNL     1      34.482 -15.101 -22.281  0.00  0.00    +0.004 C 
ATOM      6  C   UNL     1      34.467 -15.845 -24.580  0.00  0.00    +0.004 C 
ENDROOT
BRANCH   2   9
ATOM      7  O   UNL     1      33.375 -13.392 -25.213  0.00  0.00    -0.270 OA
ATOM      8  N   UNL     1      33.695 -12.572 -23.068  0.00  0.00    -0.293 N 
ATOM      9  C   ACE A   0      33.739 -13.548 -24.050  0.00  0.00    +0.246 C 
ATOM     10  H   UNL     1      34.011 -12.797 -22.163  0.00  0.00    +0.150 HD
BRANCH   8  11
ATOM     11  CA  UNL     1      33.203 -11.238 -23.323  0.00  0.00    +0.171 C 
BRANCH  11  12
ATOM     12  CB  UNL     1      32.390 -10.730 -22.113  0.00  0.00    +0.029 C 
ATOM     13  CG1 UNL     1      31.613 -11.856 -21.423  0.00  0.00    +0.002 C 
ATOM     14  CG2 UNL     1      31.448  -9.574 -22.461  0.00  0.00    +0.002 C 
ENDBRANCH  11  12
BRANCH  11  16
ATOM     15  OXT UNL     1      34.506  -9.188 -23.296  0.00  0.00    -0.248 OA
ATOM     16  C   UNL     1      34.339 -10.313 -23.752  0.00  0.00    +0.332 C 
BRANCH  16  17
ATOM     17  O   UNL     1      35.135 -10.813 -24.729  0.00  0.00    -0.479 OA
ATOM     18  H   UNL     1      36.011 -10.494 -24.827  0.00  0.00    +0.295 HD
ENDBRANCH  16  17
ENDBRANCH  11  16
ENDBRANCH   8  11
ENDBRANCH   2   9
BRANCH   1  19
ATOM     19  C   UNL     1      35.697 -18.680 -22.399  0.00  0.00    +0.031 C 
BRANCH  19  20
ATOM     20  C   UNL     1      34.682 -19.511 -21.586  0.00  0.00    +0.033 C 
BRANCH  20  26
ATOM     21  O   UNL     1      32.387 -21.238 -20.223  0.00  0.00    -0.209 OA
ATOM     22  N   UNL     1      36.846 -21.254 -19.190  0.00  0.00    -0.300 N 
ATOM     23  N   UNL     1      35.391 -22.709 -17.936  0.00  0.00    -0.264 N 
ATOM     24  N   UNL     1      33.070 -22.652 -18.528  0.00  0.00    -0.302 NA
ATOM     25  N   UNL     1      33.883 -24.052 -16.817  0.00  0.00    -0.320 N 
ATOM     26  C   UNL     1      35.320 -20.355 -20.520  0.00  0.00    +0.007 C 
ATOM     27  C   UNL     1      34.664 -21.262 -19.680  0.00  0.00    +0.120 C 
ATOM     28  C   UNL     1      35.640 -21.792 -18.880  0.00  0.00    +0.115 C 
ATOM     29  C   UNL     1      36.655 -20.355 -20.216  0.00  0.00    +0.059 C 
ATOM     30  C   UNL     1      33.284 -21.694 -19.523  0.00  0.00    +0.209 C 
ATOM     31  C   UNL     1      34.067 -23.112 -17.799  0.00  0.00    +0.248 C 
ATOM     32  H   UNL     1      37.706 -21.468 -18.760  0.00  0.00    +0.153 HD
ATOM     33  H   UNL     1      36.106 -23.078 -17.370  0.00  0.00    +0.157 HD
ATOM     34  H   UNL     1      34.651 -24.373 -16.292  0.00  0.00    +0.146 HD
ATOM     35  H   UNL     1      32.982 -24.407 -16.637  0.00  0.00    +0.146 HD
ENDBRANCH  20  26
ENDBRANCH  19  20
ENDBRANCH   1  19
TORSDOF 8
ENDMDL
MODEL 6
REMARK VINA RESULT:     -11.1      2.208     10.284
REMARK  Name = 446560
REMARK  8 active torsions:
REMARK  status: ('A' for Active; 'I' for Inactive)
REMARK    1  A    between atoms: C_1  and  C_19
REMARK    2  A    between atoms: C_2  and  C_9
REMARK    3  A    between atoms: N_8  and  CA_11
REMARK    4  A    between atoms: CA_11  and  CB_12
REMARK    5  A    between atoms: CA_11  and  C_16
REMARK    6  A    between atoms: C_16  and  O_17
REMARK    7  A    between atoms: C_19  and  C_20
REMARK    8  A    between atoms: C_20  and  C_26
REMARK                            x       y       z     vdW  Elec       q    Type
REMARK                         _______ _______ _______ _____ _____    ______ ____
ROOT
ATOM      1  C   UNL     1      34.705 -21.809 -19.484  0.00  0.00    -0.022 C 
ATOM      2  C   UNL     1      35.485 -19.613 -20.962  0.00  0.00    +0.053 C 
ATOM      3  C   UNL     1      33.747 -21.021 -20.123  0.00  0.00    -0.004 C 
ATOM      4  C   UNL     1      36.058 -21.485 -19.591  0.00  0.00    -0.004 C 
ATOM      5  C   UNL     1      34.141 -19.912 -20.871  0.00  0.00    +0.004 C 
ATOM      6  C   UNL     1      36.452 -20.374 -20.338  0.00  0.00    +0.004 C 
ENDROOT
BRANCH   2   9
ATOM      7  O   UNL     1      37.093 -18.295 -22.046  0.00  0.00    -0.270 OA
ATOM      8  N   UNL     1      34.892 -17.570 -22.142  0.00  0.00    -0.293 N 
ATOM      9  C   ACE A   0      35.906 -18.433 -21.758  0.00  0.00    +0.246 C 
ATOM     10  H   UNL     1      33.970 -17.767 -21.860  0.00  0.00    +0.150 HD
BRANCH   8  11
ATOM     11  CA  UNL     1      35.140 -16.391 -22.941  0.00  0.00    +0.171 C 
BRANCH  11  12
ATOM     12  CB  UNL     1      34.837 -16.681 -24.427  0.00  0.00    +0.029 C 
ATOM     13  CG1 UNL     1      33.852 -15.671 -25.025  0.00  0.00    +0.002 C 
ATOM     14  CG2 UNL     1      34.346 -18.110 -24.676  0.00  0.00    +0.002 C 
ENDBRANCH  11  12
BRANCH  11  16
ATOM     15  OXT UNL     1      33.363 -15.267 -21.725  0.00  0.00    -0.248 OA
ATOM     16  C   UNL     1      34.400 -15.184 -22.371  0.00  0.00    +0.332 C 
BRANCH  16  17
ATOM     17  O   UNL     1      34.955 -13.985 -22.680  0.00  0.00    -0.479 OA
ATOM     18  H   UNL     1      34.415 -13.288 -22.998  0.00  0.00    +0.295 HD
ENDBRANCH  16  17
ENDBRANCH  11  16
ENDBRANCH   8  11
ENDBRANCH   2   9
BRANCH   1  19
ATOM     19  C   UNL     1      34.282 -22.994 -18.684  0.00  0.00    +0.031 C 
BRANCH  19  20
ATOM     20  C   UNL     1      33.097 -22.725 -17.734  0.00  0.00    +0.033 C 
BRANCH  20  26
ATOM     21  O   UNL     1      30.186 -23.083 -16.508  0.00  0.00    -0.209 OA
ATOM     22  N   UNL     1      34.162 -24.315 -14.604  0.00  0.00    -0.300 N 
ATOM     23  N   UNL     1      32.137 -24.750 -13.372  0.00  0.00    -0.264 N 
ATOM     24  N   UNL     1      30.092 -24.081 -14.426  0.00  0.00    -0.302 NA
ATOM     25  N   UNL     1      30.121 -25.106 -12.304  0.00  0.00    -0.320 N 
ATOM     26  C   UNL     1      33.247 -23.383 -16.392  0.00  0.00    +0.007 C 
ATOM     27  C   UNL     1      32.209 -23.722 -15.517  0.00  0.00    +0.120 C 
ATOM     28  C   UNL     1      32.817 -24.293 -14.432  0.00  0.00    +0.115 C 
ATOM     29  C   UNL     1      34.440 -23.748 -15.829  0.00  0.00    +0.059 C 
ATOM     30  C   UNL     1      30.760 -23.591 -15.552  0.00  0.00    +0.209 C 
ATOM     31  C   UNL     1      30.754 -24.618 -13.420  0.00  0.00    +0.248 C 
ATOM     32  H   UNL     1      34.824 -24.673 -13.968  0.00  0.00    +0.153 HD
ATOM     33  H   UNL     1      32.592 -25.157 -12.600  0.00  0.00    +0.157 HD
ATOM     34  H   UNL     1      30.648 -25.501 -11.573  0.00  0.00    +0.146 HD
ATOM     35  H   UNL     1      29.140 -25.063 -12.237  0.00  0.00    +0.146 HD
ENDBRANCH  20  26
ENDBRANCH  19  20
ENDBRANCH   1  19
TORSDOF 8
ENDMDL
MODEL 7
REMARK VINA RESULT:     -11.1      2.258      3.145
REMARK  Name = 446560
REMARK  8 active torsions:
REMARK  status: ('A' for Active; 'I' for Inactive)
REMARK    1  A    between atoms: C_1  and  C_19
REMARK    2  A    between atoms: C_2  and  C_9
REMARK    3  A    between atoms: N_8  and  CA_11
REMARK    4  A    between atoms: CA_11  and  CB_12
REMARK    5  A    between atoms: CA_11  and  C_16
REMARK    6  A    between atoms: C_16  and  O_17
REMARK    7  A    between atoms: C_19  and  C_20
REMARK    8  A    between atoms: C_20  and  C_26
REMARK                            x       y       z     vdW  Elec       q    Type
REMARK                         _______ _______ _______ _____ _____    ______ ____
ROOT
ATOM      1  C   UNL     1      34.927 -20.920 -20.130  0.00  0.00    -0.022 C 
ATOM      2  C   UNL     1      34.581 -22.583 -17.955  0.00  0.00    +0.053 C 
ATOM      3  C   UNL     1      36.037 -21.394 -19.430  0.00  0.00    -0.004 C 
ATOM      4  C   UNL     1      33.642 -21.287 -19.730  0.00  0.00    -0.004 C 
ATOM      5  C   UNL     1      35.862 -22.235 -18.331  0.00  0.00    +0.004 C 
ATOM      6  C   UNL     1      33.467 -22.127 -18.630  0.00  0.00    +0.004 C 
ENDROOT
BRANCH   2   9
ATOM      7  O   UNL     1      33.267 -23.896 -16.525  0.00  0.00    -0.270 OA
ATOM      8  N   UNL     1      35.541 -23.799 -16.079  0.00  0.00    -0.293 N 
ATOM      9  C   ACE A   0      34.393 -23.479 -16.786  0.00  0.00    +0.246 C 
ATOM     10  H   UNL     1      36.399 -23.412 -16.369  0.00  0.00    +0.150 HD
BRANCH   8  11
ATOM     11  CA  UNL     1      35.525 -24.678 -14.933  0.00  0.00    +0.171 C 
BRANCH  11  12
ATOM     12  CB  UNL     1      36.872 -25.423 -14.814  0.00  0.00    +0.029 C 
ATOM     13  CG1 UNL     1      36.914 -26.353 -13.597  0.00  0.00    +0.002 C 
ATOM     14  CG2 UNL     1      38.082 -24.484 -14.803  0.00  0.00    +0.002 C 
ENDBRANCH  11  12
BRANCH  11  16
ATOM     15  OXT UNL     1      35.901 -23.365 -12.925  0.00  0.00    -0.248 OA
ATOM     16  C   UNL     1      35.109 -23.923 -13.674  0.00  0.00    +0.332 C 
BRANCH  16  17
ATOM     17  O   UNL     1      33.779 -23.957 -13.409  0.00  0.00    -0.479 OA
ATOM     18  H   UNL     1      33.216 -23.292 -13.754  0.00  0.00    +0.295 HD
ENDBRANCH  16  17
ENDBRANCH  11  16
ENDBRANCH   8  11
ENDBRANCH   2   9
BRANCH   1  19
ATOM     19  C   UNL     1      35.116 -20.021 -21.304  0.00  0.00    +0.031 C 
BRANCH  19  20
ATOM     20  C   UNL     1      35.029 -18.518 -20.969  0.00  0.00    +0.033 C 
BRANCH  20  26
ATOM     21  O   UNL     1      34.299 -15.576 -20.007  0.00  0.00    -0.209 OA
ATOM     22  N   UNL     1      35.129 -16.962 -24.290  0.00  0.00    -0.300 N 
ATOM     23  N   UNL     1      34.607 -14.636 -23.936  0.00  0.00    -0.264 N 
ATOM     24  N   UNL     1      34.184 -13.978 -21.672  0.00  0.00    -0.302 NA
ATOM     25  N   UNL     1      34.095 -12.438 -23.453  0.00  0.00    -0.320 N 
ATOM     26  C   UNL     1      35.001 -17.635 -22.184  0.00  0.00    +0.007 C 
ATOM     27  C   UNL     1      34.722 -16.265 -22.205  0.00  0.00    +0.120 C 
ATOM     28  C   UNL     1      34.812 -15.892 -23.519  0.00  0.00    +0.115 C 
ATOM     29  C   UNL     1      35.250 -18.057 -23.463  0.00  0.00    +0.059 C 
ATOM     30  C   UNL     1      34.389 -15.275 -21.192  0.00  0.00    +0.209 C 
ATOM     31  C   UNL     1      34.291 -13.702 -22.957  0.00  0.00    +0.248 C 
ATOM     32  H   UNL     1      35.252 -16.958 -25.268  0.00  0.00    +0.153 HD
ATOM     33  H   UNL     1      34.676 -14.387 -24.887  0.00  0.00    +0.157 HD
ATOM     34  H   UNL     1      34.183 -12.268 -24.418  0.00  0.00    +0.146 HD
ATOM     35  H   UNL     1      33.867 -11.699 -22.842  0.00  0.00    +0.146 HD
ENDBRANCH  20  26
ENDBRANCH  19  20
ENDBRANCH   1  19
TORSDOF 8
ENDMDL
MODEL 8
REMARK VINA RESULT:     -11.1      4.544     10.896
REMARK  Name = 446560
REMARK  8 active torsions:
REMARK  status: ('A' for Active; 'I' for Inactive)
REMARK    1  A    between atoms: C_1  and  C_19
REMARK    2  A    between atoms: C_2  and  C_9
REMARK    3  A    between atoms: N_8  and  CA_11
REMARK    4  A    between atoms: CA_11  and  CB_12
REMARK    5  A    between atoms: CA_11  and  C_16
REMARK    6  A    between atoms: C_16  and  O_17
REMARK    7  A    between atoms: C_19  and  C_20
REMARK    8  A    between atoms: C_20  and  C_26
REMARK                            x       y       z     vdW  Elec       q    Type
REMARK                         _______ _______ _______ _____ _____    ______ ____
ROOT
ATOM      1  C   UNL     1      34.241 -23.340 -15.924  0.00  0.00    -0.022 C 
ATOM      2  C   UNL     1      35.337 -22.330 -18.246  0.00  0.00    +0.053 C 
ATOM      3  C   UNL     1      33.467 -23.256 -17.082  0.00  0.00    -0.004 C 
ATOM      4  C   UNL     1      35.568 -22.912 -15.940  0.00  0.00    -0.004 C 
ATOM      5  C   UNL     1      34.021 -22.747 -18.255  0.00  0.00    +0.004 C 
ATOM      6  C   UNL     1      36.122 -22.401 -17.114  0.00  0.00    +0.004 C 
ENDROOT
BRANCH   2   9
ATOM      7  O   UNL     1      36.715 -22.480 -20.136  0.00  0.00    -0.270 OA
ATOM      8  N   UNL     1      35.513 -20.517 -19.859  0.00  0.00    -0.293 N 
ATOM      9  C   ACE A   0      35.928 -21.788 -19.496  0.00  0.00    +0.246 C 
ATOM     10  H   UNL     1      34.877 -20.042 -19.277  0.00  0.00    +0.150 HD
BRANCH   8  11
ATOM     11  CA  UNL     1      35.979 -19.864 -21.061  0.00  0.00    +0.171 C 
BRANCH  11  12
ATOM     12  CB  UNL     1      34.873 -18.954 -21.636  0.00  0.00    +0.029 C 
ATOM     13  CG1 UNL     1      34.829 -18.993 -23.167  0.00  0.00    +0.002 C 
ATOM     14  CG2 UNL     1      34.966 -17.506 -21.147  0.00  0.00    +0.002 C 
ENDBRANCH  11  12
BRANCH  11  16
ATOM     15  OXT UNL     1      37.734 -18.881 -19.699  0.00  0.00    -0.248 OA
ATOM     16  C   UNL     1      37.310 -19.159 -20.815  0.00  0.00    +0.332 C 
BRANCH  16  17
ATOM     17  O   UNL     1      37.980 -18.809 -21.940  0.00  0.00    -0.479 OA
ATOM     18  H   UNL     1      38.707 -19.325 -22.231  0.00  0.00    +0.295 HD
ENDBRANCH  16  17
ENDBRANCH  11  16
ENDBRANCH   8  11
ENDBRANCH   2   9
BRANCH   1  19
ATOM     19  C   UNL     1      33.647 -23.885 -14.669  0.00  0.00    +0.031 C 
BRANCH  19  20
ATOM     20  C   UNL     1      34.336 -25.162 -14.147  0.00  0.00    +0.033 C 
BRANCH  20  26
ATOM     21  O   UNL     1      36.373 -27.288 -15.348  0.00  0.00    -0.209 OA
ATOM     22  N   UNL     1      37.281 -24.007 -12.287  0.00  0.00    -0.300 N 
ATOM     23  N   UNL     1      39.090 -25.444 -12.974  0.00  0.00    -0.264 N 
ATOM     24  N   UNL     1      38.546 -27.139 -14.578  0.00  0.00    -0.302 NA
ATOM     25  N   UNL     1      40.727 -26.891 -13.720  0.00  0.00    -0.320 N 
ATOM     26  C   UNL     1      35.680 -24.904 -13.528  0.00  0.00    +0.007 C 
ATOM     27  C   UNL     1      36.858 -25.615 -13.783  0.00  0.00    +0.120 C 
ATOM     28  C   UNL     1      37.816 -25.030 -13.000  0.00  0.00    +0.115 C 
ATOM     29  C   UNL     1      35.945 -23.921 -12.613  0.00  0.00    +0.059 C 
ATOM     30  C   UNL     1      37.208 -26.741 -14.636  0.00  0.00    +0.209 C 
ATOM     31  C   UNL     1      39.408 -26.520 -13.795  0.00  0.00    +0.248 C 
ATOM     32  H   UNL     1      37.761 -23.428 -11.651  0.00  0.00    +0.153 HD
ATOM     33  H   UNL     1      39.765 -25.010 -12.403  0.00  0.00    +0.157 HD
ATOM     34  H   UNL     1      41.342 -26.406 -13.124  0.00  0.00    +0.146 HD
ATOM     35  H   UNL     1      41.058 -27.643 -14.263  0.00  0.00    +0.146 HD
ENDBRANCH  20  26
ENDBRANCH  19  20
ENDBRANCH   1  19
TORSDOF 8
ENDMDL
MODEL 9
REMARK VINA RESULT:     -11.1      3.473     10.538
REMARK  Name = 446560
REMARK  8 active torsions:
REMARK  status: ('A' for Active; 'I' for Inactive)
REMARK    1  A    between atoms: C_1  and  C_19
REMARK    2  A    between atoms: C_2  and  C_9
REMARK    3  A    between atoms: N_8  and  CA_11
REMARK    4  A    between atoms: CA_11  and  CB_12
REMARK    5  A    between atoms: CA_11  and  C_16
REMARK    6  A    between atoms: C_16  and  O_17
REMARK    7  A    between atoms: C_19  and  C_20
REMARK    8  A    between atoms: C_20  and  C_26
REMARK                            x       y       z     vdW  Elec       q    Type
REMARK                         _______ _______ _______ _____ _____    ______ ____
ROOT
ATOM      1  C   UNL     1      34.967 -17.852 -23.345  0.00  0.00    -0.022 C 
ATOM      2  C   UNL     1      34.205 -15.320 -24.133  0.00  0.00    +0.053 C 
ATOM      3  C   UNL     1      34.583 -17.618 -24.666  0.00  0.00    -0.004 C 
ATOM      4  C   UNL     1      34.965 -16.806 -22.422  0.00  0.00    -0.004 C 
ATOM      5  C   UNL     1      34.199 -16.339 -25.064  0.00  0.00    +0.004 C 
ATOM      6  C   UNL     1      34.579 -15.526 -22.821  0.00  0.00    +0.004 C 
ENDROOT
BRANCH   2   9
ATOM      7  O   UNL     1      33.218 -13.810 -25.630  0.00  0.00    -0.270 OA
ATOM      8  N   UNL     1      34.092 -12.934 -23.669  0.00  0.00    -0.293 N 
ATOM      9  C   ACE A   0      33.797 -13.957 -24.557  0.00  0.00    +0.246 C 
ATOM     10  H   UNL     1      34.561 -13.154 -22.832  0.00  0.00    +0.150 HD
BRANCH   8  11
ATOM     11  CA  UNL     1      33.737 -11.557 -23.928  0.00  0.00    +0.171 C 
BRANCH  11  12
ATOM     12  CB  UNL     1      33.090 -10.930 -22.675  0.00  0.00    +0.029 C 
ATOM     13  CG1 UNL     1      32.249 -11.942 -21.889  0.00  0.00    +0.002 C 
ATOM     14  CG2 UNL     1      32.261  -9.680 -22.985  0.00  0.00    +0.002 C 
ENDBRANCH  11  12
BRANCH  11  16
ATOM     15  OXT UNL     1      35.357 -10.909 -25.617  0.00  0.00    -0.248 OA
ATOM     16  C   UNL     1      34.932 -10.782 -24.475  0.00  0.00    +0.332 C 
BRANCH  16  17
ATOM     17  O   UNL     1      35.533  -9.964 -23.576  0.00  0.00    -0.479 OA
ATOM     18  H   UNL     1      35.013  -9.418 -23.020  0.00  0.00    +0.295 HD
ENDBRANCH  16  17
ENDBRANCH  11  16
ENDBRANCH   8  11
ENDBRANCH   2   9
BRANCH   1  19
ATOM     19  C   UNL     1      35.377 -19.221 -22.920  0.00  0.00    +0.031 C 
BRANCH  19  20
ATOM     20  C   UNL     1      35.577 -19.377 -21.398  0.00  0.00    +0.033 C 
BRANCH  20  26
ATOM     21  O   UNL     1      36.927 -21.318 -19.273  0.00  0.00    -0.209 OA
ATOM     22  N   UNL     1      32.462 -20.895 -20.192  0.00  0.00    -0.300 N 
ATOM     23  N   UNL     1      33.122 -22.480 -18.501  0.00  0.00    -0.264 N 
ATOM     24  N   UNL     1      35.473 -22.651 -18.069  0.00  0.00    -0.302 NA
ATOM     25  N   UNL     1      33.895 -23.959 -16.905  0.00  0.00    -0.320 N 
ATOM     26  C   UNL     1      34.479 -20.152 -20.728  0.00  0.00    +0.007 C 
ATOM     27  C   UNL     1      34.639 -21.116 -19.727  0.00  0.00    +0.120 C 
ATOM     28  C   UNL     1      33.374 -21.546 -19.427  0.00  0.00    +0.115 C 
ATOM     29  C   UNL     1      33.145 -20.020 -21.009  0.00  0.00    +0.059 C 
ATOM     30  C   UNL     1      35.782 -21.681 -19.026  0.00  0.00    +0.209 C 
ATOM     31  C   UNL     1      34.225 -23.009 -17.839  0.00  0.00    +0.248 C 
ATOM     32  H   UNL     1      31.486 -21.024 -20.168  0.00  0.00    +0.153 HD
ATOM     33  H   UNL     1      32.205 -22.777 -18.299  0.00  0.00    +0.157 HD
ATOM     34  H   UNL     1      32.953 -24.202 -16.761  0.00  0.00    +0.146 HD
ATOM     35  H   UNL     1      34.603 -24.398 -16.379  0.00  0.00    +0.146 HD
ENDBRANCH  20  26
ENDBRANCH  19  20
ENDBRANCH   1  19
TORSDOF 8
ENDMDL
