MODEL 1
REMARK VINA RESULT:     -11.3      0.000      0.000
REMARK  Name = 4261
REMARK  8 active torsions:
REMARK  status: ('A' for Active; 'I' for Inactive)
REMARK    1  A    between atoms: C_1  and  C_20
REMARK    2  A    between atoms: C_2  and  C_9
REMARK    3  A    between atoms: N_8  and  C_11
REMARK    4  A    between atoms: C_12  and  N_17
REMARK    5  A    between atoms: C_20  and  N_22
REMARK    6  A    between atoms: C_23  and  O_25
REMARK    7  A    between atoms: O_25  and  C_26
REMARK    8  A    between atoms: C_26  and  C_28
REMARK                            x       y       z     vdW  Elec       q    Type
REMARK                         _______ _______ _______ _____ _____    ______ ____
ROOT
ATOM      1  C   UNL     1      35.151 -21.518 -19.548  0.00  0.00    -0.002 C 
ATOM      2  C   UNL     1      35.335 -22.827 -17.102  0.00  0.00    +0.054 C 
ATOM      3  C   UNL     1      34.029 -22.145 -19.017  0.00  0.00    -0.002 C 
ATOM      4  C   UNL     1      36.364 -21.539 -18.868  0.00  0.00    -0.002 C 
ATOM      5  C   UNL     1      34.122 -22.801 -17.790  0.00  0.00    +0.004 C 
ATOM      6  C   UNL     1      36.456 -22.195 -17.641  0.00  0.00    +0.004 C 
ENDROOT
BRANCH   2   9
ATOM      7  O   UNL     1      34.450 -23.511 -15.063  0.00  0.00    -0.270 OA
ATOM      8  N   UNL     1      36.650 -24.156 -15.564  0.00  0.00    -0.279 N 
ATOM      9  C   UNL     1      35.431 -23.513 -15.824  0.00  0.00    +0.250 C 
ATOM     10  H   UNL     1      37.337 -24.068 -16.264  0.00  0.00    +0.155 HD
BRANCH   8  11
ATOM     11  C   UNL     1      37.022 -24.914 -14.428  0.00  0.00    +0.064 C 
ATOM     12  C   UNL     1      36.914 -26.295 -14.441  0.00  0.00    +0.055 C 
ATOM     13  C   UNL     1      37.494 -24.239 -13.312  0.00  0.00    +0.016 C 
ATOM     14  C   UNL     1      37.287 -27.021 -13.309  0.00  0.00    +0.015 C 
ATOM     15  C   UNL     1      37.867 -24.965 -12.181  0.00  0.00    +0.001 C 
ATOM     16  C   UNL     1      37.763 -26.356 -12.180  0.00  0.00    +0.001 C 
BRANCH  12  17
ATOM     17  N   UNL     1      36.435 -26.990 -15.575  0.00  0.00    -0.356 N 
ATOM     18  H   UNL     1      36.950 -27.744 -15.942  0.00  0.00    +0.142 HD
ATOM     19  H   UNL     1      35.588 -26.720 -15.996  0.00  0.00    +0.142 HD
ENDBRANCH  12  17
ENDBRANCH   8  11
ENDBRANCH   2   9
BRANCH   1  20
ATOM     20  C   UNL     1      35.052 -20.810 -20.867  0.00  0.00    +0.119 C 
BRANCH  20  22
ATOM     21  O   UNL     1      36.410 -18.595 -22.166  0.00  0.00    -0.226 OA
ATOM     22  N   UNL     1      34.797 -19.397 -20.705  0.00  0.00    -0.267 N 
ATOM     23  C   UNL     1      35.498 -18.412 -21.367  0.00  0.00    +0.402 C 
ATOM     24  H   UNL     1      34.083 -19.122 -20.085  0.00  0.00    +0.153 HD
BRANCH  23  25
ATOM     25  O   UNL     1      35.023 -17.184 -21.002  0.00  0.00    -0.430 OA
BRANCH  25  26
ATOM     26  C   UNL     1      34.888 -16.226 -22.058  0.00  0.00    +0.238 C 
BRANCH  26  28
ATOM     27  N   UNL     1      32.551 -13.276 -22.259  0.00  0.00    -0.243 NA
ATOM     28  C   UNL     1      33.869 -15.198 -21.660  0.00  0.00    +0.040 C 
ATOM     29  C   UNL     1      33.321 -15.206 -20.390  0.00  0.00    +0.002 C 
ATOM     30  C   UNL     1      33.463 -14.230 -22.553  0.00  0.00    +0.098 C 
ATOM     31  C   UNL     1      32.381 -14.241 -20.049  0.00  0.00    +0.020 C 
ATOM     32  C   UNL     1      32.032 -13.306 -21.011  0.00  0.00    +0.099 C 
ENDBRANCH  26  28
ENDBRANCH  25  26
ENDBRANCH  23  25
ENDBRANCH  20  22
ENDBRANCH   1  20
TORSDOF 8
ENDMDL
MODEL 2
REMARK VINA RESULT:     -11.0      3.036      3.728
REMARK  Name = 4261
REMARK  8 active torsions:
REMARK  status: ('A' for Active; 'I' for Inactive)
REMARK    1  A    between atoms: C_1  and  C_20
REMARK    2  A    between atoms: C_2  and  C_9
REMARK    3  A    between atoms: N_8  and  C_11
REMARK    4  A    between atoms: C_12  and  N_17
REMARK    5  A    between atoms: C_20  and  N_22
REMARK    6  A    between atoms: C_23  and  O_25
REMARK    7  A    between atoms: O_25  and  C_26
REMARK    8  A    between atoms: C_26  and  C_28
REMARK                            x       y       z     vdW  Elec       q    Type
REMARK                         _______ _______ _______ _____ _____    ______ ____
ROOT
ATOM      1  C   UNL     1      35.181 -20.523 -20.362  0.00  0.00    -0.002 C 
ATOM      2  C   UNL     1      33.979 -22.373 -18.669  0.00  0.00    +0.054 C 
ATOM      3  C   UNL     1      33.794 -20.571 -20.268  0.00  0.00    -0.002 C 
ATOM      4  C   UNL     1      35.972 -21.391 -19.618  0.00  0.00    -0.002 C 
ATOM      5  C   UNL     1      33.192 -21.498 -19.419  0.00  0.00    +0.004 C 
ATOM      6  C   UNL     1      35.370 -22.318 -18.769  0.00  0.00    +0.004 C 
ENDROOT
BRANCH   2   9
ATOM      7  O   UNL     1      33.443 -24.550 -18.051  0.00  0.00    -0.270 OA
ATOM      8  N   UNL     1      32.696 -22.810 -16.663  0.00  0.00    -0.279 N 
ATOM      9  C   UNL     1      33.351 -23.340 -17.785  0.00  0.00    +0.250 C 
ATOM     10  H   UNL     1      32.707 -21.829 -16.587  0.00  0.00    +0.155 HD
BRANCH   8  11
ATOM     11  C   UNL     1      32.023 -23.501 -15.627  0.00  0.00    +0.064 C 
ATOM     12  C   UNL     1      30.640 -23.584 -15.623  0.00  0.00    +0.055 C 
ATOM     13  C   UNL     1      32.783 -24.088 -14.627  0.00  0.00    +0.016 C 
ATOM     14  C   UNL     1      30.000 -24.271 -14.590  0.00  0.00    +0.015 C 
ATOM     15  C   UNL     1      32.143 -24.774 -13.595  0.00  0.00    +0.001 C 
ATOM     16  C   UNL     1      30.751 -24.865 -13.577  0.00  0.00    +0.001 C 
BRANCH  12  17
ATOM     17  N   UNL     1      29.859 -22.990 -16.639  0.00  0.00    -0.356 N 
ATOM     18  H   UNL     1      28.913 -23.240 -16.741  0.00  0.00    +0.142 HD
ATOM     19  H   UNL     1      30.261 -22.326 -17.244  0.00  0.00    +0.142 HD
ENDBRANCH  12  17
ENDBRANCH   8  11
ENDBRANCH   2   9
BRANCH   1  20
ATOM     20  C   UNL     1      35.829 -19.524 -21.275  0.00  0.00    +0.119 C 
BRANCH  20  22
ATOM     21  O   UNL     1      35.294 -17.449 -23.236  0.00  0.00    -0.226 OA
ATOM     22  N   UNL     1      35.348 -18.182 -21.036  0.00  0.00    -0.267 N 
ATOM     23  C   UNL     1      35.122 -17.261 -22.037  0.00  0.00    +0.402 C 
ATOM     24  H   UNL     1      35.172 -17.911 -20.106  0.00  0.00    +0.153 HD
BRANCH  23  25
ATOM     25  O   UNL     1      34.672 -16.091 -21.492  0.00  0.00    -0.430 OA
BRANCH  25  26
ATOM     26  C   UNL     1      34.359 -15.048 -22.423  0.00  0.00    +0.238 C 
BRANCH  26  28
ATOM     27  N   UNL     1      32.073 -12.090 -21.951  0.00  0.00    -0.243 NA
ATOM     28  C   UNL     1      33.381 -14.103 -21.789  0.00  0.00    +0.040 C 
ATOM     29  C   UNL     1      32.897 -14.342 -20.515  0.00  0.00    +0.002 C 
ATOM     30  C   UNL     1      32.951 -12.981 -22.464  0.00  0.00    +0.098 C 
ATOM     31  C   UNL     1      31.993 -13.448 -19.953  0.00  0.00    +0.020 C 
ATOM     32  C   UNL     1      31.616 -12.348 -20.705  0.00  0.00    +0.099 C 
ENDBRANCH  26  28
ENDBRANCH  25  26
ENDBRANCH  23  25
ENDBRANCH  20  22
ENDBRANCH   1  20
TORSDOF 8
ENDMDL
MODEL 3
REMARK VINA RESULT:     -11.0      4.175     13.088
REMARK  Name = 4261
REMARK  8 active torsions:
REMARK  status: ('A' for Active; 'I' for Inactive)
REMARK    1  A    between atoms: C_1  and  C_20
REMARK    2  A    between atoms: C_2  and  C_9
REMARK    3  A    between atoms: N_8  and  C_11
REMARK    4  A    between atoms: C_12  and  N_17
REMARK    5  A    between atoms: C_20  and  N_22
REMARK    6  A    between atoms: C_23  and  O_25
REMARK    7  A    between atoms: O_25  and  C_26
REMARK    8  A    between atoms: C_26  and  C_28
REMARK                            x       y       z     vdW  Elec       q    Type
REMARK                         _______ _______ _______ _____ _____    ______ ____
ROOT
ATOM      1  C   UNL     1      33.949 -14.523 -22.818  0.00  0.00    -0.002 C 
ATOM      2  C   UNL     1      32.530 -12.242 -22.098  0.00  0.00    +0.054 C 
ATOM      3  C   UNL     1      34.134 -13.344 -23.531  0.00  0.00    -0.002 C 
ATOM      4  C   UNL     1      33.061 -14.573 -21.748  0.00  0.00    -0.002 C 
ATOM      5  C   UNL     1      33.423 -12.200 -23.169  0.00  0.00    +0.004 C 
ATOM      6  C   UNL     1      32.350 -13.430 -21.387  0.00  0.00    +0.004 C 
ENDROOT
BRANCH   2   9
ATOM      7  O   UNL     1      30.744 -11.172 -21.061  0.00  0.00    -0.270 OA
ATOM      8  N   UNL     1      32.344  -9.829 -22.131  0.00  0.00    -0.279 N 
ATOM      9  C   UNL     1      31.788 -11.050 -21.723  0.00  0.00    +0.250 C 
ATOM     10  H   UNL     1      33.177  -9.892 -22.651  0.00  0.00    +0.155 HD
BRANCH   8  11
ATOM     11  C   UNL     1      31.864  -8.519 -21.893  0.00  0.00    +0.064 C 
ATOM     12  C   UNL     1      32.164  -7.867 -20.708  0.00  0.00    +0.055 C 
ATOM     13  C   UNL     1      31.091  -7.913 -22.873  0.00  0.00    +0.016 C 
ATOM     14  C   UNL     1      31.679  -6.576 -20.497  0.00  0.00    +0.015 C 
ATOM     15  C   UNL     1      30.607  -6.622 -22.661  0.00  0.00    +0.001 C 
ATOM     16  C   UNL     1      30.901  -5.954 -21.473  0.00  0.00    +0.001 C 
BRANCH  12  17
ATOM     17  N   UNL     1      32.951  -8.477 -19.706  0.00  0.00    -0.356 N 
ATOM     18  H   UNL     1      33.609  -9.167 -19.951  0.00  0.00    +0.142 HD
ATOM     19  H   UNL     1      32.842  -8.212 -18.765  0.00  0.00    +0.142 HD
ENDBRANCH  12  17
ENDBRANCH   8  11
ENDBRANCH   2   9
BRANCH   1  20
ATOM     20  C   UNL     1      34.715 -15.754 -23.205  0.00  0.00    +0.119 C 
BRANCH  20  22
ATOM     21  O   UNL     1      35.339 -18.590 -23.226  0.00  0.00    -0.226 OA
ATOM     22  N   UNL     1      34.965 -16.614 -22.071  0.00  0.00    -0.267 N 
ATOM     23  C   UNL     1      35.255 -17.957 -22.179  0.00  0.00    +0.402 C 
ATOM     24  H   UNL     1      34.925 -16.218 -21.170  0.00  0.00    +0.153 HD
BRANCH  23  25
ATOM     25  O   UNL     1      35.438 -18.491 -20.934  0.00  0.00    -0.430 OA
BRANCH  25  26
ATOM     26  C   UNL     1      36.033 -19.793 -20.894  0.00  0.00    +0.238 C 
BRANCH  26  28
ATOM     27  N   UNL     1      32.896 -21.421 -19.585  0.00  0.00    -0.243 NA
ATOM     28  C   UNL     1      35.132 -20.719 -20.129  0.00  0.00    +0.040 C 
ATOM     29  C   UNL     1      35.663 -21.685 -19.293  0.00  0.00    +0.002 C 
ATOM     30  C   UNL     1      33.762 -20.621 -20.246  0.00  0.00    +0.098 C 
ATOM     31  C   UNL     1      34.804 -22.528 -18.597  0.00  0.00    +0.020 C 
ATOM     32  C   UNL     1      33.441 -22.357 -18.776  0.00  0.00    +0.099 C 
ENDBRANCH  26  28
ENDBRANCH  25  26
ENDBRANCH  23  25
ENDBRANCH  20  22
ENDBRANCH   1  20
TORSDOF 8
ENDMDL
MODEL 4
REMARK VINA RESULT:     -10.6      3.290      9.949
REMARK  Name = 4261
REMARK  8 active torsions:
REMARK  status: ('A' for Active; 'I' for Inactive)
REMARK    1  A    between atoms: C_1  and  C_20
REMARK    2  A    between atoms: C_2  and  C_9
REMARK    3  A    between atoms: N_8  and  C_11
REMARK    4  A    between atoms: C_12  and  N_17
REMARK    5  A    between atoms: C_20  and  N_22
REMARK    6  A    between atoms: C_23  and  O_25
REMARK    7  A    between atoms: O_25  and  C_26
REMARK    8  A    between atoms: C_26  and  C_28
REMARK                            x       y       z     vdW  Elec       q    Type
REMARK                         _______ _______ _______ _____ _____    ______ ____
ROOT
ATOM      1  C   UNL     1      34.793 -23.231 -16.885  0.00  0.00    -0.002 C 
ATOM      2  C   UNL     1      34.145 -21.670 -19.093  0.00  0.00    +0.054 C 
ATOM      3  C   UNL     1      33.465 -23.117 -17.281  0.00  0.00    -0.002 C 
ATOM      4  C   UNL     1      35.800 -22.573 -17.582  0.00  0.00    -0.002 C 
ATOM      5  C   UNL     1      33.141 -22.334 -18.388  0.00  0.00    +0.004 C 
ATOM      6  C   UNL     1      35.476 -21.790 -18.690  0.00  0.00    +0.004 C 
ENDROOT
BRANCH   2   9
ATOM      7  O   UNL     1      32.618 -20.762 -20.593  0.00  0.00    -0.270 OA
ATOM      8  N   UNL     1      34.880 -20.199 -20.870  0.00  0.00    -0.279 N 
ATOM      9  C   UNL     1      33.806 -20.853 -20.246  0.00  0.00    +0.250 C 
ATOM     10  H   UNL     1      35.768 -20.368 -20.480  0.00  0.00    +0.155 HD
BRANCH   8  11
ATOM     11  C   UNL     1      34.852 -19.328 -21.986  0.00  0.00    +0.064 C 
ATOM     12  C   UNL     1      35.085 -17.972 -21.821  0.00  0.00    +0.055 C 
ATOM     13  C   UNL     1      34.589 -19.867 -23.235  0.00  0.00    +0.016 C 
ATOM     14  C   UNL     1      35.053 -17.133 -22.936  0.00  0.00    +0.015 C 
ATOM     15  C   UNL     1      34.557 -19.028 -24.349  0.00  0.00    +0.001 C 
ATOM     16  C   UNL     1      34.789 -17.661 -24.199  0.00  0.00    +0.001 C 
BRANCH  12  17
ATOM     17  N   UNL     1      35.355 -17.415 -20.551  0.00  0.00    -0.356 N 
ATOM     18  H   UNL     1      34.849 -16.630 -20.241  0.00  0.00    +0.142 HD
ATOM     19  H   UNL     1      36.049 -17.812 -19.977  0.00  0.00    +0.142 HD
ENDBRANCH  12  17
ENDBRANCH   8  11
ENDBRANCH   2   9
BRANCH   1  20
ATOM     20  C   UNL     1      35.143 -24.075 -15.695  0.00  0.00    +0.119 C 
BRANCH  20  22
ATOM     21  O   UNL     1      35.149 -24.904 -12.911  0.00  0.00    -0.226 OA
ATOM     22  N   UNL     1      34.004 -24.293 -14.833  0.00  0.00    -0.267 N 
ATOM     23  C   UNL     1      34.105 -24.688 -13.516  0.00  0.00    +0.402 C 
ATOM     24  H   UNL     1      33.104 -24.150 -15.208  0.00  0.00    +0.153 HD
BRANCH  23  25
ATOM     25  O   UNL     1      32.856 -24.807 -12.974  0.00  0.00    -0.430 OA
BRANCH  25  26
ATOM     26  C   UNL     1      32.002 -23.666 -13.117  0.00  0.00    +0.238 C 
BRANCH  26  28
ATOM     27  N   UNL     1      29.147 -25.541 -14.710  0.00  0.00    -0.243 NA
ATOM     28  C   UNL     1      30.883 -24.007 -14.057  0.00  0.00    +0.040 C 
ATOM     29  C   UNL     1      30.553 -23.156 -15.097  0.00  0.00    +0.002 C 
ATOM     30  C   UNL     1      30.165 -25.174 -13.900  0.00  0.00    +0.098 C 
ATOM     31  C   UNL     1      29.513 -23.499 -15.952  0.00  0.00    +0.020 C 
ATOM     32  C   UNL     1      28.846 -24.691 -15.718  0.00  0.00    +0.099 C 
ENDBRANCH  26  28
ENDBRANCH  25  26
ENDBRANCH  23  25
ENDBRANCH  20  22
ENDBRANCH   1  20
TORSDOF 8
ENDMDL
MODEL 5
REMARK VINA RESULT:     -10.5      4.445      7.419
REMARK  Name = 4261
REMARK  8 active torsions:
REMARK  status: ('A' for Active; 'I' for Inactive)
REMARK    1  A    between atoms: C_1  and  C_20
REMARK    2  A    between atoms: C_2  and  C_9
REMARK    3  A    between atoms: N_8  and  C_11
REMARK    4  A    between atoms: C_12  and  N_17
REMARK    5  A    between atoms: C_20  and  N_22
REMARK    6  A    between atoms: C_23  and  O_25
REMARK    7  A    between atoms: O_25  and  C_26
REMARK    8  A    between atoms: C_26  and  C_28
REMARK                            x       y       z     vdW  Elec       q    Type
REMARK                         _______ _______ _______ _____ _____    ______ ____
ROOT
ATOM      1  C   UNL     1      34.081 -15.003 -24.129  0.00  0.00    -0.002 C 
ATOM      2  C   UNL     1      34.984 -17.339 -22.921  0.00  0.00    +0.054 C 
ATOM      3  C   UNL     1      34.258 -16.150 -24.895  0.00  0.00    -0.002 C 
ATOM      4  C   UNL     1      34.351 -15.013 -22.765  0.00  0.00    -0.002 C 
ATOM      5  C   UNL     1      34.711 -17.321 -24.289  0.00  0.00    +0.004 C 
ATOM      6  C   UNL     1      34.803 -16.184 -22.159  0.00  0.00    +0.004 C 
ENDROOT
BRANCH   2   9
ATOM      7  O   UNL     1      36.515 -19.074 -22.688  0.00  0.00    -0.270 OA
ATOM      8  N   UNL     1      34.669 -19.051 -21.239  0.00  0.00    -0.279 N 
ATOM      9  C   UNL     1      35.458 -18.560 -22.290  0.00  0.00    +0.250 C 
ATOM     10  H   UNL     1      33.856 -18.533 -21.036  0.00  0.00    +0.155 HD
BRANCH   8  11
ATOM     11  C   UNL     1      34.889 -20.192 -20.431  0.00  0.00    +0.064 C 
ATOM     12  C   UNL     1      33.821 -20.965 -20.003  0.00  0.00    +0.055 C 
ATOM     13  C   UNL     1      36.193 -20.511 -20.084  0.00  0.00    +0.016 C 
ATOM     14  C   UNL     1      34.064 -22.085 -19.207  0.00  0.00    +0.015 C 
ATOM     15  C   UNL     1      36.435 -21.631 -19.289  0.00  0.00    +0.001 C 
ATOM     16  C   UNL     1      35.370 -22.418 -18.850  0.00  0.00    +0.001 C 
BRANCH  12  17
ATOM     17  N   UNL     1      32.490 -20.647 -20.353  0.00  0.00    -0.356 N 
ATOM     18  H   UNL     1      31.904 -21.339 -20.737  0.00  0.00    +0.142 HD
ATOM     19  H   UNL     1      32.149 -19.735 -20.214  0.00  0.00    +0.142 HD
ENDBRANCH  12  17
ENDBRANCH   8  11
ENDBRANCH   2   9
BRANCH   1  20
ATOM     20  C   UNL     1      33.592 -13.743 -24.781  0.00  0.00    +0.119 C 
BRANCH  20  22
ATOM     21  O   UNL     1      34.774 -11.103 -25.045  0.00  0.00    -0.226 OA
ATOM     22  N   UNL     1      33.522 -12.643 -23.846  0.00  0.00    -0.267 N 
ATOM     23  C   UNL     1      34.118 -11.419 -24.059  0.00  0.00    +0.402 C 
ATOM     24  H   UNL     1      33.019 -12.776 -23.010  0.00  0.00    +0.153 HD
BRANCH  23  25
ATOM     25  O   UNL     1      33.871 -10.596 -22.996  0.00  0.00    -0.430 OA
BRANCH  25  26
ATOM     26  C   UNL     1      32.526 -10.116 -22.878  0.00  0.00    +0.238 C 
BRANCH  26  28
ATOM     27  N   UNL     1      31.886  -9.259 -19.264  0.00  0.00    -0.243 NA
ATOM     28  C   UNL     1      32.084 -10.247 -21.449  0.00  0.00    +0.040 C 
ATOM     29  C   UNL     1      31.493 -11.414 -20.999  0.00  0.00    +0.002 C 
ATOM     30  C   UNL     1      32.260  -9.207 -20.562  0.00  0.00    +0.098 C 
ATOM     31  C   UNL     1      31.095 -11.507 -19.671  0.00  0.00    +0.020 C 
ATOM     32  C   UNL     1      31.311 -10.411 -18.851  0.00  0.00    +0.099 C 
ENDBRANCH  26  28
ENDBRANCH  25  26
ENDBRANCH  23  25
ENDBRANCH  20  22
ENDBRANCH   1  20
TORSDOF 8
ENDMDL
MODEL 6
REMARK VINA RESULT:     -10.5      3.252      4.288
REMARK  Name = 4261
REMARK  8 active torsions:
REMARK  status: ('A' for Active; 'I' for Inactive)
REMARK    1  A    between atoms: C_1  and  C_20
REMARK    2  A    between atoms: C_2  and  C_9
REMARK    3  A    between atoms: N_8  and  C_11
REMARK    4  A    between atoms: C_12  and  N_17
REMARK    5  A    between atoms: C_20  and  N_22
REMARK    6  A    between atoms: C_23  and  O_25
REMARK    7  A    between atoms: O_25  and  C_26
REMARK    8  A    between atoms: C_26  and  C_28
REMARK                            x       y       z     vdW  Elec       q    Type
REMARK                         _______ _______ _______ _____ _____    ______ ____
ROOT
ATOM      1  C   UNL     1      35.810 -21.336 -19.446  0.00  0.00    -0.002 C 
ATOM      2  C   UNL     1      34.524 -22.834 -17.488  0.00  0.00    +0.054 C 
ATOM      3  C   UNL     1      36.531 -21.800 -18.351  0.00  0.00    -0.002 C 
ATOM      4  C   UNL     1      34.454 -21.613 -19.572  0.00  0.00    -0.002 C 
ATOM      5  C   UNL     1      35.886 -22.552 -17.370  0.00  0.00    +0.004 C 
ATOM      6  C   UNL     1      33.809 -22.365 -18.591  0.00  0.00    +0.004 C 
ENDROOT
BRANCH   2   9
ATOM      7  O   UNL     1      34.520 -24.393 -15.763  0.00  0.00    -0.270 OA
ATOM      8  N   UNL     1      32.472 -23.401 -16.338  0.00  0.00    -0.279 N 
ATOM      9  C   UNL     1      33.852 -23.616 -16.464  0.00  0.00    +0.250 C 
ATOM     10  H   UNL     1      32.081 -22.753 -16.967  0.00  0.00    +0.155 HD
BRANCH   8  11
ATOM     11  C   UNL     1      31.568 -23.994 -15.423  0.00  0.00    +0.064 C 
ATOM     12  C   UNL     1      30.200 -23.868 -15.608  0.00  0.00    +0.055 C 
ATOM     13  C   UNL     1      32.087 -24.698 -14.348  0.00  0.00    +0.016 C 
ATOM     14  C   UNL     1      29.329 -24.460 -14.693  0.00  0.00    +0.015 C 
ATOM     15  C   UNL     1      31.216 -25.290 -13.433  0.00  0.00    +0.001 C 
ATOM     16  C   UNL     1      29.837 -25.171 -13.606  0.00  0.00    +0.001 C 
BRANCH  12  17
ATOM     17  N   UNL     1      29.664 -23.153 -16.703  0.00  0.00    -0.356 N 
ATOM     18  H   UNL     1      29.955 -23.366 -17.619  0.00  0.00    +0.142 HD
ATOM     19  H   UNL     1      29.000 -22.443 -16.549  0.00  0.00    +0.142 HD
ENDBRANCH  12  17
ENDBRANCH   8  11
ENDBRANCH   2   9
BRANCH   1  20
ATOM     20  C   UNL     1      36.505 -20.528 -20.504  0.00  0.00    +0.119 C 
BRANCH  20  22
ATOM     21  O   UNL     1      35.206 -19.663 -22.953  0.00  0.00    -0.226 OA
ATOM     22  N   UNL     1      35.832 -19.274 -20.754  0.00  0.00    -0.267 N 
ATOM     23  C   UNL     1      35.241 -18.950 -21.957  0.00  0.00    +0.402 C 
ATOM     24  H   UNL     1      35.794 -18.614 -20.025  0.00  0.00    +0.153 HD
BRANCH  23  25
ATOM     25  O   UNL     1      34.692 -17.701 -21.878  0.00  0.00    -0.430 OA
BRANCH  25  26
ATOM     26  C   UNL     1      35.440 -16.649 -22.498  0.00  0.00    +0.238 C 
BRANCH  26  28
ATOM     27  N   UNL     1      33.873 -16.255 -25.902  0.00  0.00    -0.243 NA
ATOM     28  C   UNL     1      34.634 -16.075 -23.627  0.00  0.00    +0.040 C 
ATOM     29  C   UNL     1      33.936 -14.892 -23.463  0.00  0.00    +0.002 C 
ATOM     30  C   UNL     1      34.578 -16.717 -24.845  0.00  0.00    +0.098 C 
ATOM     31  C   UNL     1      33.200 -14.385 -24.527  0.00  0.00    +0.020 C 
ATOM     32  C   UNL     1      33.200 -15.097 -25.715  0.00  0.00    +0.099 C 
ENDBRANCH  26  28
ENDBRANCH  25  26
ENDBRANCH  23  25
ENDBRANCH  20  22
ENDBRANCH   1  20
TORSDOF 8
ENDMDL
MODEL 7
REMARK VINA RESULT:     -10.3      1.869     10.728
REMARK  Name = 4261
REMARK  8 active torsions:
REMARK  status: ('A' for Active; 'I' for Inactive)
REMARK    1  A    between atoms: C_1  and  C_20
REMARK    2  A    between atoms: C_2  and  C_9
REMARK    3  A    between atoms: N_8  and  C_11
REMARK    4  A    between atoms: C_12  and  N_17
REMARK    5  A    between atoms: C_20  and  N_22
REMARK    6  A    between atoms: C_23  and  O_25
REMARK    7  A    between atoms: O_25  and  C_26
REMARK    8  A    between atoms: C_26  and  C_28
REMARK                            x       y       z     vdW  Elec       q    Type
REMARK                         _______ _______ _______ _____ _____    ______ ____
ROOT
ATOM      1  C   UNL     1      34.455 -22.366 -19.093  0.00  0.00    -0.002 C 
ATOM      2  C   UNL     1      35.081 -20.059 -20.514  0.00  0.00    +0.054 C 
ATOM      3  C   UNL     1      33.433 -21.573 -19.604  0.00  0.00    -0.002 C 
ATOM      4  C   UNL     1      35.787 -22.016 -19.286  0.00  0.00    -0.002 C 
ATOM      5  C   UNL     1      33.747 -20.417 -20.317  0.00  0.00    +0.004 C 
ATOM      6  C   UNL     1      36.101 -20.860 -19.998  0.00  0.00    +0.004 C 
ENDROOT
BRANCH   2   9
ATOM      7  O   UNL     1      36.468 -18.809 -21.901  0.00  0.00    -0.270 OA
ATOM      8  N   UNL     1      34.459 -17.822 -21.197  0.00  0.00    -0.279 N 
ATOM      9  C   UNL     1      35.408 -18.853 -21.256  0.00  0.00    +0.250 C 
ATOM     10  H   UNL     1      33.666 -18.003 -20.643  0.00  0.00    +0.155 HD
BRANCH   8  11
ATOM     11  C   UNL     1      34.492 -16.556 -21.830  0.00  0.00    +0.064 C 
ATOM     12  C   UNL     1      34.646 -16.464 -23.204  0.00  0.00    +0.055 C 
ATOM     13  C   UNL     1      34.367 -15.422 -21.042  0.00  0.00    +0.016 C 
ATOM     14  C   UNL     1      34.676 -15.205 -23.805  0.00  0.00    +0.015 C 
ATOM     15  C   UNL     1      34.397 -14.164 -21.643  0.00  0.00    +0.001 C 
ATOM     16  C   UNL     1      34.552 -14.056 -23.025  0.00  0.00    +0.001 C 
BRANCH  12  17
ATOM     17  N   UNL     1      34.773 -17.614 -24.014  0.00  0.00    -0.356 N 
ATOM     18  H   UNL     1      35.089 -18.459 -23.621  0.00  0.00    +0.142 HD
ATOM     19  H   UNL     1      34.545 -17.570 -24.971  0.00  0.00    +0.142 HD
ENDBRANCH  12  17
ENDBRANCH   8  11
ENDBRANCH   2   9
BRANCH   1  20
ATOM     20  C   UNL     1      34.118 -23.611 -18.327  0.00  0.00    +0.119 C 
BRANCH  20  22
ATOM     21  O   UNL     1      32.408 -23.790 -15.986  0.00  0.00    -0.226 OA
ATOM     22  N   UNL     1      34.504 -23.513 -16.938  0.00  0.00    -0.267 N 
ATOM     23  C   UNL     1      33.617 -23.611 -15.888  0.00  0.00    +0.402 C 
ATOM     24  H   UNL     1      35.456 -23.368 -16.730  0.00  0.00    +0.153 HD
BRANCH  23  25
ATOM     25  O   UNL     1      34.287 -23.477 -14.704  0.00  0.00    -0.430 OA
BRANCH  25  26
ATOM     26  C   UNL     1      34.503 -24.687 -13.969  0.00  0.00    +0.238 C 
BRANCH  26  28
ATOM     27  N   UNL     1      38.240 -24.445 -13.550  0.00  0.00    -0.243 NA
ATOM     28  C   UNL     1      35.960 -25.044 -14.030  0.00  0.00    +0.040 C 
ATOM     29  C   UNL     1      36.369 -26.240 -14.593  0.00  0.00    +0.002 C 
ATOM     30  C   UNL     1      36.914 -24.185 -13.527  0.00  0.00    +0.098 C 
ATOM     31  C   UNL     1      37.724 -26.542 -14.636  0.00  0.00    +0.020 C 
ATOM     32  C   UNL     1      38.612 -25.620 -14.106  0.00  0.00    +0.099 C 
ENDBRANCH  26  28
ENDBRANCH  25  26
ENDBRANCH  23  25
ENDBRANCH  20  22
ENDBRANCH   1  20
TORSDOF 8
ENDMDL
MODEL 8
REMARK VINA RESULT:     -10.2      3.042     10.241
REMARK  Name = 4261
REMARK  8 active torsions:
REMARK  status: ('A' for Active; 'I' for Inactive)
REMARK    1  A    between atoms: C_1  and  C_20
REMARK    2  A    between atoms: C_2  and  C_9
REMARK    3  A    between atoms: N_8  and  C_11
REMARK    4  A    between atoms: C_12  and  N_17
REMARK    5  A    between atoms: C_20  and  N_22
REMARK    6  A    between atoms: C_23  and  O_25
REMARK    7  A    between atoms: O_25  and  C_26
REMARK    8  A    between atoms: C_26  and  C_28
REMARK                            x       y       z     vdW  Elec       q    Type
REMARK                         _______ _______ _______ _____ _____    ______ ____
ROOT
ATOM      1  C   UNL     1      34.454 -22.408 -19.043  0.00  0.00    -0.002 C 
ATOM      2  C   UNL     1      35.080 -20.108 -20.475  0.00  0.00    +0.054 C 
ATOM      3  C   UNL     1      33.432 -21.617 -19.555  0.00  0.00    -0.002 C 
ATOM      4  C   UNL     1      35.786 -22.061 -19.239  0.00  0.00    -0.002 C 
ATOM      5  C   UNL     1      33.746 -20.464 -20.273  0.00  0.00    +0.004 C 
ATOM      6  C   UNL     1      36.100 -20.908 -19.957  0.00  0.00    +0.004 C 
ENDROOT
BRANCH   2   9
ATOM      7  O   UNL     1      36.459 -18.871 -21.881  0.00  0.00    -0.270 OA
ATOM      8  N   UNL     1      34.467 -17.867 -21.152  0.00  0.00    -0.279 N 
ATOM      9  C   UNL     1      35.407 -18.905 -21.222  0.00  0.00    +0.250 C 
ATOM     10  H   UNL     1      33.680 -18.041 -20.588  0.00  0.00    +0.155 HD
BRANCH   8  11
ATOM     11  C   UNL     1      34.502 -16.602 -21.787  0.00  0.00    +0.064 C 
ATOM     12  C   UNL     1      34.655 -16.512 -23.161  0.00  0.00    +0.055 C 
ATOM     13  C   UNL     1      34.380 -15.467 -21.000  0.00  0.00    +0.016 C 
ATOM     14  C   UNL     1      34.688 -15.254 -23.764  0.00  0.00    +0.015 C 
ATOM     15  C   UNL     1      34.412 -14.210 -21.603  0.00  0.00    +0.001 C 
ATOM     16  C   UNL     1      34.566 -14.104 -22.985  0.00  0.00    +0.001 C 
BRANCH  12  17
ATOM     17  N   UNL     1      34.780 -17.664 -23.970  0.00  0.00    -0.356 N 
ATOM     18  H   UNL     1      34.768 -17.579 -24.950  0.00  0.00    +0.142 HD
ATOM     19  H   UNL     1      34.878 -18.550 -23.553  0.00  0.00    +0.142 HD
ENDBRANCH  12  17
ENDBRANCH   8  11
ENDBRANCH   2   9
BRANCH   1  20
ATOM     20  C   UNL     1      34.116 -23.650 -18.271  0.00  0.00    +0.119 C 
BRANCH  20  22
ATOM     21  O   UNL     1      35.238 -24.178 -15.644  0.00  0.00    -0.226 OA
ATOM     22  N   UNL     1      33.537 -23.345 -16.983  0.00  0.00    -0.267 N 
ATOM     23  C   UNL     1      34.147 -23.635 -15.781  0.00  0.00    +0.402 C 
ATOM     24  H   UNL     1      32.656 -22.905 -16.962  0.00  0.00    +0.153 HD
BRANCH  23  25
ATOM     25  O   UNL     1      33.351 -23.225 -14.749  0.00  0.00    -0.430 OA
BRANCH  25  26
ATOM     26  C   UNL     1      32.677 -24.263 -14.029  0.00  0.00    +0.238 C 
BRANCH  26  28
ATOM     27  N   UNL     1      29.163 -25.480 -14.639  0.00  0.00    -0.243 NA
ATOM     28  C   UNL     1      31.226 -24.262 -14.412  0.00  0.00    +0.040 C 
ATOM     29  C   UNL     1      30.620 -23.107 -14.874  0.00  0.00    +0.002 C 
ATOM     30  C   UNL     1      30.473 -25.412 -14.310  0.00  0.00    +0.098 C 
ATOM     31  C   UNL     1      29.275 -23.137 -15.222  0.00  0.00    +0.020 C 
ATOM     32  C   UNL     1      28.597 -24.337 -15.087  0.00  0.00    +0.099 C 
ENDBRANCH  26  28
ENDBRANCH  25  26
ENDBRANCH  23  25
ENDBRANCH  20  22
ENDBRANCH   1  20
TORSDOF 8
ENDMDL
MODEL 9
REMARK VINA RESULT:     -10.2      4.224      7.514
REMARK  Name = 4261
REMARK  8 active torsions:
REMARK  status: ('A' for Active; 'I' for Inactive)
REMARK    1  A    between atoms: C_1  and  C_20
REMARK    2  A    between atoms: C_2  and  C_9
REMARK    3  A    between atoms: N_8  and  C_11
REMARK    4  A    between atoms: C_12  and  N_17
REMARK    5  A    between atoms: C_20  and  N_22
REMARK    6  A    between atoms: C_23  and  O_25
REMARK    7  A    between atoms: O_25  and  C_26
REMARK    8  A    between atoms: C_26  and  C_28
REMARK                            x       y       z     vdW  Elec       q    Type
REMARK                         _______ _______ _______ _____ _____    ______ ____
ROOT
ATOM      1  C   UNL     1      34.265 -15.163 -23.650  0.00  0.00    -0.002 C 
ATOM      2  C   UNL     1      35.129 -17.277 -22.064  0.00  0.00    +0.054 C 
ATOM      3  C   UNL     1      34.240 -15.039 -22.265  0.00  0.00    -0.002 C 
ATOM      4  C   UNL     1      34.718 -16.332 -24.249  0.00  0.00    -0.002 C 
ATOM      5  C   UNL     1      34.673 -16.100 -21.470  0.00  0.00    +0.004 C 
ATOM      6  C   UNL     1      35.151 -17.393 -23.455  0.00  0.00    +0.004 C 
ENDROOT
BRANCH   2   9
ATOM      7  O   UNL     1      36.755 -18.400 -20.838  0.00  0.00    -0.270 OA
ATOM      8  N   UNL     1      34.611 -19.350 -20.926  0.00  0.00    -0.279 N 
ATOM      9  C   UNL     1      35.579 -18.383 -21.235  0.00  0.00    +0.250 C 
ATOM     10  H   UNL     1      33.719 -19.201 -21.314  0.00  0.00    +0.155 HD
BRANCH   8  11
ATOM     11  C   UNL     1      34.749 -20.512 -20.129  0.00  0.00    +0.064 C 
ATOM     12  C   UNL     1      33.627 -21.193 -19.684  0.00  0.00    +0.055 C 
ATOM     13  C   UNL     1      36.027 -20.943 -19.810  0.00  0.00    +0.016 C 
ATOM     14  C   UNL     1      33.789 -22.335 -18.898  0.00  0.00    +0.015 C 
ATOM     15  C   UNL     1      36.188 -22.084 -19.025  0.00  0.00    +0.001 C 
ATOM     16  C   UNL     1      35.069 -22.781 -18.569  0.00  0.00    +0.001 C 
BRANCH  12  17
ATOM     17  N   UNL     1      32.321 -20.760 -20.005  0.00  0.00    -0.356 N 
ATOM     18  H   UNL     1      32.082 -19.810 -19.914  0.00  0.00    +0.142 HD
ATOM     19  H   UNL     1      31.652 -21.409 -20.320  0.00  0.00    +0.142 HD
ENDBRANCH  12  17
ENDBRANCH   8  11
ENDBRANCH   2   9
BRANCH   1  20
ATOM     20  C   UNL     1      33.800 -14.021 -24.506  0.00  0.00    +0.119 C 
BRANCH  20  22
ATOM     21  O   UNL     1      34.764 -11.325 -24.996  0.00  0.00    -0.226 OA
ATOM     22  N   UNL     1      33.541 -12.832 -23.726  0.00  0.00    -0.267 N 
ATOM     23  C   UNL     1      34.045 -11.588 -24.039  0.00  0.00    +0.402 C 
ATOM     24  H   UNL     1      32.972 -12.916 -22.927  0.00  0.00    +0.153 HD
BRANCH  23  25
ATOM     25  O   UNL     1      33.622 -10.674 -23.114  0.00  0.00    -0.430 OA
BRANCH  25  26
ATOM     26  C   UNL     1      34.058  -9.326 -23.323  0.00  0.00    +0.238 C 
BRANCH  26  28
ATOM     27  N   UNL     1      30.841  -7.459 -22.719  0.00  0.00    -0.243 NA
ATOM     28  C   UNL     1      33.060  -8.388 -22.708  0.00  0.00    +0.040 C 
ATOM     29  C   UNL     1      33.404  -7.612 -21.615  0.00  0.00    +0.002 C 
ATOM     30  C   UNL     1      31.786  -8.283 -23.223  0.00  0.00    +0.098 C 
ATOM     31  C   UNL     1      32.459  -6.752 -21.068  0.00  0.00    +0.020 C 
ATOM     32  C   UNL     1      31.203  -6.713 -21.651  0.00  0.00    +0.099 C 
ENDBRANCH  26  28
ENDBRANCH  25  26
ENDBRANCH  23  25
ENDBRANCH  20  22
ENDBRANCH   1  20
TORSDOF 8
ENDMDL
