MODEL 1
REMARK VINA RESULT:     -11.8      0.000      0.000
REMARK  Name = 12136798
REMARK  7 active torsions:
REMARK  status: ('A' for Active; 'I' for Inactive)
REMARK    1  A    between atoms: C_1  and  C_21
REMARK    2  A    between atoms: C_2  and  C_9
REMARK    3  A    between atoms: N_8  and  C_12
REMARK    4  A    between atoms: C_13  and  N_18
REMARK    5  A    between atoms: C_21  and  N_23
REMARK    6  A    between atoms: C_24  and  C_26
REMARK    7  A    between atoms: C_27  and  C_29
REMARK                            x       y       z     vdW  Elec       q    Type
REMARK                         _______ _______ _______ _____ _____    ______ ____
ROOT
ATOM      1  C   UNL     1      35.011 -20.238 -20.534  0.00  0.00    -0.003 C 
ATOM      2  C   UNL     1      34.019 -22.209 -18.844  0.00  0.00    +0.054 C 
ATOM      3  C   UNL     1      33.639 -20.370 -20.362  0.00  0.00    -0.002 C 
ATOM      4  C   UNL     1      35.893 -21.082 -19.870  0.00  0.00    -0.002 C 
ATOM      5  C   UNL     1      33.140 -21.359 -19.513  0.00  0.00    +0.004 C 
ATOM      6  C   UNL     1      35.396 -22.072 -19.022  0.00  0.00    +0.004 C 
ENDROOT
BRANCH   2   9
ATOM      7  O   UNL     1      33.556 -24.429 -18.321  0.00  0.00    -0.270 OA
ATOM      8  N   UNL     1      32.991 -22.797 -16.733  0.00  0.00    -0.279 N 
ATOM      9  C   UNL     1      33.500 -23.242 -17.960  0.00  0.00    +0.250 C 
ATOM     10  H   UNL     1      33.014 -21.823 -16.588  0.00  0.00    +0.155 HD
BRANCH   8  12
ATOM     11  F   UNL     1      30.941 -25.802 -12.572  0.00  0.00    -0.204 F 
ATOM     12  C   UNL     1      32.447 -23.564 -15.673  0.00  0.00    +0.064 C 
ATOM     13  C   UNL     1      31.077 -23.728 -15.559  0.00  0.00    +0.057 C 
ATOM     14  C   UNL     1      33.321 -24.137 -14.762  0.00  0.00    +0.018 C 
ATOM     15  C   UNL     1      30.565 -24.488 -14.506  0.00  0.00    +0.045 C 
ATOM     16  C   UNL     1      32.809 -24.897 -13.711  0.00  0.00    +0.031 C 
ATOM     17  C   UNL     1      31.431 -25.072 -13.582  0.00  0.00    +0.141 C 
BRANCH  13  18
ATOM     18  N   UNL     1      30.181 -23.146 -16.483  0.00  0.00    -0.356 N 
ATOM     19  H   UNL     1      30.513 -22.819 -17.350  0.00  0.00    +0.142 HD
ATOM     20  H   UNL     1      29.225 -23.068 -16.260  0.00  0.00    +0.142 HD
ENDBRANCH  13  18
ENDBRANCH   8  12
ENDBRANCH   2   9
BRANCH   1  21
ATOM     21  C   UNL     1      35.548 -19.174 -21.446  0.00  0.00    +0.117 C 
BRANCH  21  23
ATOM     22  O   UNL     1      35.354 -16.870 -23.192  0.00  0.00    -0.270 OA
ATOM     23  N   UNL     1      35.028 -17.865 -21.117  0.00  0.00    -0.297 N 
ATOM     24  C   UNL     1      34.977 -16.822 -22.026  0.00  0.00    +0.246 C 
ATOM     25  H   UNL     1      34.695 -17.709 -20.203  0.00  0.00    +0.150 HD
BRANCH  24  26
ATOM     26  C   UNL     1      34.397 -15.589 -21.422  0.00  0.00    +0.058 C 
ATOM     27  C   UNL     1      33.463 -14.894 -22.087  0.00  0.00    +0.006 C 
BRANCH  27  29
ATOM     28  N   UNL     1      32.140 -11.402 -21.978  0.00  0.00    -0.242 NA
ATOM     29  C   UNL     1      32.814 -13.670 -21.582  0.00  0.00    +0.019 C 
ATOM     30  C   UNL     1      32.295 -13.635 -20.305  0.00  0.00    +0.003 C 
ATOM     31  C   UNL     1      32.722 -12.556 -22.380  0.00  0.00    +0.099 C 
ATOM     32  C   UNL     1      31.689 -12.467 -19.856  0.00  0.00    +0.021 C 
ATOM     33  C   UNL     1      31.637 -11.389 -20.723  0.00  0.00    +0.099 C 
ENDBRANCH  27  29
ENDBRANCH  24  26
ENDBRANCH  21  23
ENDBRANCH   1  21
TORSDOF 7
ENDMDL
MODEL 2
REMARK VINA RESULT:     -11.7      0.559      1.553
REMARK  Name = 12136798
REMARK  7 active torsions:
REMARK  status: ('A' for Active; 'I' for Inactive)
REMARK    1  A    between atoms: C_1  and  C_21
REMARK    2  A    between atoms: C_2  and  C_9
REMARK    3  A    between atoms: N_8  and  C_12
REMARK    4  A    between atoms: C_13  and  N_18
REMARK    5  A    between atoms: C_21  and  N_23
REMARK    6  A    between atoms: C_24  and  C_26
REMARK    7  A    between atoms: C_27  and  C_29
REMARK                            x       y       z     vdW  Elec       q    Type
REMARK                         _______ _______ _______ _____ _____    ______ ____
ROOT
ATOM      1  C   UNL     1      35.062 -20.258 -20.555  0.00  0.00    -0.003 C 
ATOM      2  C   UNL     1      34.060 -22.216 -18.856  0.00  0.00    +0.054 C 
ATOM      3  C   UNL     1      35.940 -21.090 -19.872  0.00  0.00    -0.002 C 
ATOM      4  C   UNL     1      33.688 -20.394 -20.397  0.00  0.00    -0.002 C 
ATOM      5  C   UNL     1      35.438 -22.074 -19.019  0.00  0.00    +0.004 C 
ATOM      6  C   UNL     1      33.185 -21.377 -19.544  0.00  0.00    +0.004 C 
ENDROOT
BRANCH   2   9
ATOM      7  O   UNL     1      33.575 -24.428 -18.323  0.00  0.00    -0.270 OA
ATOM      8  N   UNL     1      33.042 -22.785 -16.735  0.00  0.00    -0.279 N 
ATOM      9  C   UNL     1      33.536 -23.240 -17.965  0.00  0.00    +0.250 C 
ATOM     10  H   UNL     1      33.078 -21.811 -16.593  0.00  0.00    +0.155 HD
BRANCH   8  12
ATOM     11  F   UNL     1      30.851 -25.746 -12.614  0.00  0.00    -0.204 F 
ATOM     12  C   UNL     1      32.497 -23.542 -15.668  0.00  0.00    +0.064 C 
ATOM     13  C   UNL     1      33.260 -23.821 -14.547  0.00  0.00    +0.057 C 
ATOM     14  C   UNL     1      31.192 -23.993 -15.783  0.00  0.00    +0.018 C 
ATOM     15  C   UNL     1      32.701 -24.569 -13.509  0.00  0.00    +0.045 C 
ATOM     16  C   UNL     1      30.634 -24.740 -14.746  0.00  0.00    +0.031 C 
ATOM     17  C   UNL     1      31.388 -25.029 -13.610  0.00  0.00    +0.141 C 
BRANCH  13  18
ATOM     18  N   UNL     1      34.591 -23.366 -14.423  0.00  0.00    -0.356 N 
ATOM     19  H   UNL     1      35.043 -23.398 -13.549  0.00  0.00    +0.142 HD
ATOM     20  H   UNL     1      35.068 -23.017 -15.211  0.00  0.00    +0.142 HD
ENDBRANCH  13  18
ENDBRANCH   8  12
ENDBRANCH   2   9
BRANCH   1  21
ATOM     21  C   UNL     1      35.602 -19.200 -21.473  0.00  0.00    +0.117 C 
BRANCH  21  23
ATOM     22  O   UNL     1      35.303 -16.938 -23.258  0.00  0.00    -0.270 OA
ATOM     23  N   UNL     1      35.091 -17.887 -21.148  0.00  0.00    -0.297 N 
ATOM     24  C   UNL     1      34.986 -16.866 -22.076  0.00  0.00    +0.246 C 
ATOM     25  H   UNL     1      34.804 -17.713 -20.222  0.00  0.00    +0.150 HD
BRANCH  24  26
ATOM     26  C   UNL     1      34.429 -15.623 -21.470  0.00  0.00    +0.058 C 
ATOM     27  C   UNL     1      33.429 -14.970 -22.082  0.00  0.00    +0.006 C 
BRANCH  27  29
ATOM     28  N   UNL     1      32.117 -11.475 -21.966  0.00  0.00    -0.242 NA
ATOM     29  C   UNL     1      32.797 -13.741 -21.570  0.00  0.00    +0.019 C 
ATOM     30  C   UNL     1      32.310 -13.696 -20.281  0.00  0.00    +0.003 C 
ATOM     31  C   UNL     1      32.686 -12.633 -22.374  0.00  0.00    +0.099 C 
ATOM     32  C   UNL     1      31.718 -12.523 -19.825  0.00  0.00    +0.021 C 
ATOM     33  C   UNL     1      31.646 -11.451 -20.699  0.00  0.00    +0.099 C 
ENDBRANCH  27  29
ENDBRANCH  24  26
ENDBRANCH  21  23
ENDBRANCH   1  21
TORSDOF 7
ENDMDL
MODEL 3
REMARK VINA RESULT:     -11.7      5.053     12.429
REMARK  Name = 12136798
REMARK  7 active torsions:
REMARK  status: ('A' for Active; 'I' for Inactive)
REMARK    1  A    between atoms: C_1  and  C_21
REMARK    2  A    between atoms: C_2  and  C_9
REMARK    3  A    between atoms: N_8  and  C_12
REMARK    4  A    between atoms: C_13  and  N_18
REMARK    5  A    between atoms: C_21  and  N_23
REMARK    6  A    between atoms: C_24  and  C_26
REMARK    7  A    between atoms: C_27  and  C_29
REMARK                            x       y       z     vdW  Elec       q    Type
REMARK                         _______ _______ _______ _____ _____    ______ ____
ROOT
ATOM      1  C   UNL     1      34.143 -14.518 -22.790  0.00  0.00    -0.003 C 
ATOM      2  C   UNL     1      32.622 -12.290 -22.117  0.00  0.00    +0.054 C 
ATOM      3  C   UNL     1      33.319 -14.560 -21.671  0.00  0.00    -0.002 C 
ATOM      4  C   UNL     1      34.215 -13.374 -23.575  0.00  0.00    -0.002 C 
ATOM      5  C   UNL     1      32.555 -13.442 -21.334  0.00  0.00    +0.004 C 
ATOM      6  C   UNL     1      33.451 -12.256 -23.238  0.00  0.00    +0.004 C 
ENDROOT
BRANCH   2   9
ATOM      7  O   UNL     1      30.762 -11.284 -21.147  0.00  0.00    -0.270 OA
ATOM      8  N   UNL     1      32.362  -9.884 -22.141  0.00  0.00    -0.279 N 
ATOM      9  C   UNL     1      31.827 -11.124 -21.764  0.00  0.00    +0.250 C 
ATOM     10  H   UNL     1      33.218  -9.917 -22.626  0.00  0.00    +0.155 HD
BRANCH   8  12
ATOM     11  F   UNL     1      30.259  -4.838 -21.326  0.00  0.00    -0.204 F 
ATOM     12  C   UNL     1      31.832  -8.590 -21.914  0.00  0.00    +0.064 C 
ATOM     13  C   UNL     1      32.096  -7.922 -20.730  0.00  0.00    +0.057 C 
ATOM     14  C   UNL     1      31.046  -8.020 -22.904  0.00  0.00    +0.018 C 
ATOM     15  C   UNL     1      31.563  -6.648 -20.531  0.00  0.00    +0.045 C 
ATOM     16  C   UNL     1      30.514  -6.747 -22.704  0.00  0.00    +0.031 C 
ATOM     17  C   UNL     1      30.771  -6.061 -21.517  0.00  0.00    +0.141 C 
BRANCH  13  18
ATOM     18  N   UNL     1      32.895  -8.497 -19.718  0.00  0.00    -0.356 N 
ATOM     19  H   UNL     1      32.917  -9.475 -19.604  0.00  0.00    +0.142 HD
ATOM     20  H   UNL     1      33.431  -7.921 -19.126  0.00  0.00    +0.142 HD
ENDBRANCH  13  18
ENDBRANCH   8  12
ENDBRANCH   2   9
BRANCH   1  21
ATOM     21  C   UNL     1      34.964 -15.720 -23.154  0.00  0.00    +0.117 C 
BRANCH  21  23
ATOM     22  O   UNL     1      35.388 -18.567 -23.488  0.00  0.00    -0.270 OA
ATOM     23  N   UNL     1      34.916 -16.740 -22.130  0.00  0.00    -0.297 N 
ATOM     24  C   UNL     1      35.134 -18.083 -22.390  0.00  0.00    +0.246 C 
ATOM     25  H   UNL     1      34.718 -16.467 -21.205  0.00  0.00    +0.150 HD
BRANCH  24  26
ATOM     26  C   UNL     1      35.023 -18.910 -21.155  0.00  0.00    +0.058 C 
ATOM     27  C   UNL     1      34.519 -20.152 -21.225  0.00  0.00    +0.006 C 
BRANCH  27  29
ATOM     28  N   UNL     1      32.922 -22.256 -18.585  0.00  0.00    -0.242 NA
ATOM     29  C   UNL     1      34.374 -21.060 -20.073  0.00  0.00    +0.019 C 
ATOM     30  C   UNL     1      35.491 -21.549 -19.429  0.00  0.00    +0.003 C 
ATOM     31  C   UNL     1      33.125 -21.427 -19.634  0.00  0.00    +0.099 C 
ATOM     32  C   UNL     1      35.323 -22.404 -18.345  0.00  0.00    +0.021 C 
ATOM     33  C   UNL     1      34.029 -22.724 -17.967  0.00  0.00    +0.099 C 
ENDBRANCH  27  29
ENDBRANCH  24  26
ENDBRANCH  21  23
ENDBRANCH   1  21
TORSDOF 7
ENDMDL
MODEL 4
REMARK VINA RESULT:     -11.4      3.062      3.833
REMARK  Name = 12136798
REMARK  7 active torsions:
REMARK  status: ('A' for Active; 'I' for Inactive)
REMARK    1  A    between atoms: C_1  and  C_21
REMARK    2  A    between atoms: C_2  and  C_9
REMARK    3  A    between atoms: N_8  and  C_12
REMARK    4  A    between atoms: C_13  and  N_18
REMARK    5  A    between atoms: C_21  and  N_23
REMARK    6  A    between atoms: C_24  and  C_26
REMARK    7  A    between atoms: C_27  and  C_29
REMARK                            x       y       z     vdW  Elec       q    Type
REMARK                         _______ _______ _______ _____ _____    ______ ____
ROOT
ATOM      1  C   UNL     1      35.144 -21.468 -19.775  0.00  0.00    -0.003 C 
ATOM      2  C   UNL     1      35.324 -22.682 -17.281  0.00  0.00    +0.054 C 
ATOM      3  C   UNL     1      36.347 -21.437 -19.080  0.00  0.00    -0.002 C 
ATOM      4  C   UNL     1      34.030 -22.099 -19.236  0.00  0.00    -0.002 C 
ATOM      5  C   UNL     1      36.438 -22.047 -17.829  0.00  0.00    +0.004 C 
ATOM      6  C   UNL     1      34.120 -22.708 -17.984  0.00  0.00    +0.004 C 
ENDROOT
BRANCH   2   9
ATOM      7  O   UNL     1      34.486 -23.172 -15.167  0.00  0.00    -0.270 OA
ATOM      8  N   UNL     1      36.573 -24.075 -15.746  0.00  0.00    -0.279 N 
ATOM      9  C   UNL     1      35.418 -23.316 -15.975  0.00  0.00    +0.250 C 
ATOM     10  H   UNL     1      37.225 -24.095 -16.483  0.00  0.00    +0.155 HD
BRANCH   8  12
ATOM     11  F   UNL     1      37.966 -26.906 -11.207  0.00  0.00    -0.204 F 
ATOM     12  C   UNL     1      36.926 -24.818 -14.592  0.00  0.00    +0.064 C 
ATOM     13  C   UNL     1      36.838 -26.200 -14.594  0.00  0.00    +0.057 C 
ATOM     14  C   UNL     1      37.356 -24.124 -13.471  0.00  0.00    +0.018 C 
ATOM     15  C   UNL     1      37.191 -26.909 -13.446  0.00  0.00    +0.045 C 
ATOM     16  C   UNL     1      37.709 -24.833 -12.324  0.00  0.00    +0.031 C 
ATOM     17  C   UNL     1      37.626 -26.225 -12.310  0.00  0.00    +0.141 C 
BRANCH  13  18
ATOM     18  N   UNL     1      36.400 -26.912 -15.732  0.00  0.00    -0.356 N 
ATOM     19  H   UNL     1      36.726 -26.660 -16.626  0.00  0.00    +0.142 HD
ATOM     20  H   UNL     1      35.770 -27.662 -15.632  0.00  0.00    +0.142 HD
ENDBRANCH  13  18
ENDBRANCH   8  12
ENDBRANCH   2   9
BRANCH   1  21
ATOM     21  C   UNL     1      35.046 -20.813 -21.123  0.00  0.00    +0.117 C 
BRANCH  21  23
ATOM     22  O   UNL     1      36.794 -18.515 -21.363  0.00  0.00    -0.270 OA
ATOM     23  N   UNL     1      34.680 -19.418 -21.022  0.00  0.00    -0.297 N 
ATOM     24  C   UNL     1      35.592 -18.386 -21.152  0.00  0.00    +0.246 C 
ATOM     25  H   UNL     1      33.736 -19.193 -20.852  0.00  0.00    +0.150 HD
BRANCH  24  26
ATOM     26  C   UNL     1      34.944 -17.052 -21.003  0.00  0.00    +0.058 C 
ATOM     27  C   UNL     1      34.534 -16.382 -22.091  0.00  0.00    +0.006 C 
BRANCH  27  29
ATOM     28  N   UNL     1      33.622 -12.882 -23.024  0.00  0.00    -0.242 NA
ATOM     29  C   UNL     1      33.873 -15.065 -22.061  0.00  0.00    +0.019 C 
ATOM     30  C   UNL     1      32.930 -14.783 -21.095  0.00  0.00    +0.003 C 
ATOM     31  C   UNL     1      34.191 -14.109 -22.995  0.00  0.00    +0.099 C 
ATOM     32  C   UNL     1      32.323 -13.531 -21.092  0.00  0.00    +0.021 C 
ATOM     33  C   UNL     1      32.701 -12.625 -22.069  0.00  0.00    +0.099 C 
ENDBRANCH  27  29
ENDBRANCH  24  26
ENDBRANCH  21  23
ENDBRANCH   1  21
TORSDOF 7
ENDMDL
MODEL 5
REMARK VINA RESULT:     -11.2      1.989      2.839
REMARK  Name = 12136798
REMARK  7 active torsions:
REMARK  status: ('A' for Active; 'I' for Inactive)
REMARK    1  A    between atoms: C_1  and  C_21
REMARK    2  A    between atoms: C_2  and  C_9
REMARK    3  A    between atoms: N_8  and  C_12
REMARK    4  A    between atoms: C_13  and  N_18
REMARK    5  A    between atoms: C_21  and  N_23
REMARK    6  A    between atoms: C_24  and  C_26
REMARK    7  A    between atoms: C_27  and  C_29
REMARK                            x       y       z     vdW  Elec       q    Type
REMARK                         _______ _______ _______ _____ _____    ______ ____
ROOT
ATOM      1  C   UNL     1      34.943 -19.845 -21.139  0.00  0.00    -0.003 C 
ATOM      2  C   UNL     1      34.703 -21.758 -19.137  0.00  0.00    +0.054 C 
ATOM      3  C   UNL     1      36.086 -20.402 -20.580  0.00  0.00    -0.002 C 
ATOM      4  C   UNL     1      33.680 -20.233 -20.707  0.00  0.00    -0.002 C 
ATOM      5  C   UNL     1      35.967 -21.363 -19.575  0.00  0.00    +0.004 C 
ATOM      6  C   UNL     1      33.560 -21.194 -19.702  0.00  0.00    +0.004 C 
ENDROOT
BRANCH   2   9
ATOM      7  O   UNL     1      33.721 -23.649 -18.203  0.00  0.00    -0.270 OA
ATOM      8  N   UNL     1      35.477 -22.639 -17.019  0.00  0.00    -0.279 N 
ATOM      9  C   UNL     1      34.577 -22.758 -18.087  0.00  0.00    +0.250 C 
ATOM     10  H   UNL     1      36.100 -21.878 -17.067  0.00  0.00    +0.155 HD
BRANCH   8  12
ATOM     11  F   UNL     1      35.908 -25.888 -12.569  0.00  0.00    -0.204 F 
ATOM     12  C   UNL     1      35.607 -23.470 -15.879  0.00  0.00    +0.064 C 
ATOM     13  C   UNL     1      36.860 -23.770 -15.371  0.00  0.00    +0.057 C 
ATOM     14  C   UNL     1      34.453 -23.969 -15.295  0.00  0.00    +0.018 C 
ATOM     15  C   UNL     1      36.962 -24.591 -14.247  0.00  0.00    +0.045 C 
ATOM     16  C   UNL     1      34.556 -24.788 -14.172  0.00  0.00    +0.031 C 
ATOM     17  C   UNL     1      35.810 -25.100 -13.648  0.00  0.00    +0.141 C 
BRANCH  13  18
ATOM     18  N   UNL     1      38.040 -23.266 -15.961  0.00  0.00    -0.356 N 
ATOM     19  H   UNL     1      38.271 -23.513 -16.886  0.00  0.00    +0.142 HD
ATOM     20  H   UNL     1      38.630 -22.667 -15.449  0.00  0.00    +0.142 HD
ENDBRANCH  13  18
ENDBRANCH   8  12
ENDBRANCH   2   9
BRANCH   1  21
ATOM     21  C   UNL     1      35.071 -18.812 -22.221  0.00  0.00    +0.117 C 
BRANCH  21  23
ATOM     22  O   UNL     1      35.612 -16.270 -23.500  0.00  0.00    -0.270 OA
ATOM     23  N   UNL     1      34.672 -17.499 -21.766  0.00  0.00    -0.297 N 
ATOM     24  C   UNL     1      34.979 -16.336 -22.452  0.00  0.00    +0.246 C 
ATOM     25  H   UNL     1      34.156 -17.429 -20.930  0.00  0.00    +0.150 HD
BRANCH  24  26
ATOM     26  C   UNL     1      34.446 -15.128 -21.760  0.00  0.00    +0.058 C 
ATOM     27  C   UNL     1      33.241 -14.644 -22.093  0.00  0.00    +0.006 C 
BRANCH  27  29
ATOM     28  N   UNL     1      31.833 -11.208 -21.691  0.00  0.00    -0.242 NA
ATOM     29  C   UNL     1      32.612 -13.465 -21.469  0.00  0.00    +0.019 C 
ATOM     30  C   UNL     1      32.228 -13.502 -20.145  0.00  0.00    +0.003 C 
ATOM     31  C   UNL     1      32.404 -12.322 -22.202  0.00  0.00    +0.099 C 
ATOM     32  C   UNL     1      31.637 -12.375 -19.583  0.00  0.00    +0.021 C 
ATOM     33  C   UNL     1      31.463 -11.264 -20.391  0.00  0.00    +0.099 C 
ENDBRANCH  27  29
ENDBRANCH  24  26
ENDBRANCH  21  23
ENDBRANCH   1  21
TORSDOF 7
ENDMDL
MODEL 6
REMARK VINA RESULT:     -11.2      3.984     10.920
REMARK  Name = 12136798
REMARK  7 active torsions:
REMARK  status: ('A' for Active; 'I' for Inactive)
REMARK    1  A    between atoms: C_1  and  C_21
REMARK    2  A    between atoms: C_2  and  C_9
REMARK    3  A    between atoms: N_8  and  C_12
REMARK    4  A    between atoms: C_13  and  N_18
REMARK    5  A    between atoms: C_21  and  N_23
REMARK    6  A    between atoms: C_24  and  C_26
REMARK    7  A    between atoms: C_27  and  C_29
REMARK                            x       y       z     vdW  Elec       q    Type
REMARK                         _______ _______ _______ _____ _____    ______ ____
ROOT
ATOM      1  C   UNL     1      34.426 -22.481 -19.184  0.00  0.00    -0.003 C 
ATOM      2  C   UNL     1      35.082 -20.098 -20.454  0.00  0.00    +0.054 C 
ATOM      3  C   UNL     1      33.416 -21.656 -19.661  0.00  0.00    -0.002 C 
ATOM      4  C   UNL     1      35.762 -22.127 -19.334  0.00  0.00    -0.002 C 
ATOM      5  C   UNL     1      33.744 -20.460 -20.299  0.00  0.00    +0.004 C 
ATOM      6  C   UNL     1      36.091 -20.931 -19.972  0.00  0.00    +0.004 C 
ENDROOT
BRANCH   2   9
ATOM      7  O   UNL     1      36.546 -18.732 -21.639  0.00  0.00    -0.270 OA
ATOM      8  N   UNL     1      34.423 -17.870 -21.133  0.00  0.00    -0.279 N 
ATOM      9  C   UNL     1      35.426 -18.849 -21.118  0.00  0.00    +0.250 C 
ATOM     10  H   UNL     1      33.584 -18.109 -20.677  0.00  0.00    +0.155 HD
BRANCH   8  12
ATOM     11  F   UNL     1      34.554 -12.808 -23.348  0.00  0.00    -0.204 F 
ATOM     12  C   UNL     1      34.459 -16.580 -21.719  0.00  0.00    +0.064 C 
ATOM     13  C   UNL     1      34.646 -16.436 -23.083  0.00  0.00    +0.057 C 
ATOM     14  C   UNL     1      34.305 -15.479 -20.891  0.00  0.00    +0.018 C 
ATOM     15  C   UNL     1      34.678 -15.156 -23.637  0.00  0.00    +0.045 C 
ATOM     16  C   UNL     1      34.336 -14.200 -21.445  0.00  0.00    +0.031 C 
ATOM     17  C   UNL     1      34.524 -14.037 -22.817  0.00  0.00    +0.141 C 
BRANCH  13  18
ATOM     18  N   UNL     1      34.804 -17.553 -23.932  0.00  0.00    -0.356 N 
ATOM     19  H   UNL     1      34.853 -18.459 -23.549  0.00  0.00    +0.142 HD
ATOM     20  H   UNL     1      34.864 -17.428 -24.907  0.00  0.00    +0.142 HD
ENDBRANCH  13  18
ENDBRANCH   8  12
ENDBRANCH   2   9
BRANCH   1  21
ATOM     21  C   UNL     1      34.073 -23.769 -18.497  0.00  0.00    +0.117 C 
BRANCH  21  23
ATOM     22  O   UNL     1      32.038 -23.526 -16.450  0.00  0.00    -0.270 OA
ATOM     23  N   UNL     1      34.272 -23.693 -17.067  0.00  0.00    -0.297 N 
ATOM     24  C   UNL     1      33.229 -23.578 -16.164  0.00  0.00    +0.246 C 
ATOM     25  H   UNL     1      35.193 -23.725 -16.720  0.00  0.00    +0.150 HD
BRANCH  24  26
ATOM     26  C   UNL     1      33.719 -23.520 -14.757  0.00  0.00    +0.058 C 
ATOM     27  C   UNL     1      34.781 -24.251 -14.388  0.00  0.00    +0.006 C 
BRANCH  27  29
ATOM     28  N   UNL     1      35.256 -25.075 -10.776  0.00  0.00    -0.242 NA
ATOM     29  C   UNL     1      35.356 -24.263 -13.030  0.00  0.00    +0.019 C 
ATOM     30  C   UNL     1      36.479 -23.514 -12.745  0.00  0.00    +0.003 C 
ATOM     31  C   UNL     1      34.779 -25.019 -12.040  0.00  0.00    +0.099 C 
ATOM     32  C   UNL     1      36.999 -23.545 -11.456  0.00  0.00    +0.021 C 
ATOM     33  C   UNL     1      36.357 -24.334 -10.517  0.00  0.00    +0.099 C 
ENDBRANCH  27  29
ENDBRANCH  24  26
ENDBRANCH  21  23
ENDBRANCH   1  21
TORSDOF 7
ENDMDL
MODEL 7
REMARK VINA RESULT:     -11.0      3.730     10.599
REMARK  Name = 12136798
REMARK  7 active torsions:
REMARK  status: ('A' for Active; 'I' for Inactive)
REMARK    1  A    between atoms: C_1  and  C_21
REMARK    2  A    between atoms: C_2  and  C_9
REMARK    3  A    between atoms: N_8  and  C_12
REMARK    4  A    between atoms: C_13  and  N_18
REMARK    5  A    between atoms: C_21  and  N_23
REMARK    6  A    between atoms: C_24  and  C_26
REMARK    7  A    between atoms: C_27  and  C_29
REMARK                            x       y       z     vdW  Elec       q    Type
REMARK                         _______ _______ _______ _____ _____    ______ ____
ROOT
ATOM      1  C   UNL     1      35.865 -20.985 -19.891  0.00  0.00    -0.003 C 
ATOM      2  C   UNL     1      35.262 -18.674 -21.314  0.00  0.00    +0.054 C 
ATOM      3  C   UNL     1      34.543 -20.699 -20.211  0.00  0.00    -0.002 C 
ATOM      4  C   UNL     1      36.888 -20.127 -20.275  0.00  0.00    -0.002 C 
ATOM      5  C   UNL     1      34.240 -19.540 -20.925  0.00  0.00    +0.004 C 
ATOM      6  C   UNL     1      36.586 -18.967 -20.989  0.00  0.00    +0.004 C 
ENDROOT
BRANCH   2   9
ATOM      7  O   UNL     1      35.157 -17.435 -23.280  0.00  0.00    -0.270 OA
ATOM      8  N   UNL     1      34.391 -16.416 -21.310  0.00  0.00    -0.279 N 
ATOM      9  C   UNL     1      34.946 -17.464 -22.057  0.00  0.00    +0.250 C 
ATOM     10  H   UNL     1      34.283 -16.587 -20.347  0.00  0.00    +0.155 HD
BRANCH   8  12
ATOM     11  F   UNL     1      32.783 -11.448 -23.123  0.00  0.00    -0.204 F 
ATOM     12  C   UNL     1      33.966 -15.141 -21.760  0.00  0.00    +0.064 C 
ATOM     13  C   UNL     1      32.975 -14.454 -21.080  0.00  0.00    +0.057 C 
ATOM     14  C   UNL     1      34.566 -14.611 -22.891  0.00  0.00    +0.018 C 
ATOM     15  C   UNL     1      32.573 -13.200 -21.543  0.00  0.00    +0.045 C 
ATOM     16  C   UNL     1      34.165 -13.358 -23.353  0.00  0.00    +0.031 C 
ATOM     17  C   UNL     1      33.168 -12.652 -22.679  0.00  0.00    +0.141 C 
BRANCH  13  18
ATOM     18  N   UNL     1      32.359 -14.988 -19.928  0.00  0.00    -0.356 N 
ATOM     19  H   UNL     1      32.802 -14.909 -19.052  0.00  0.00    +0.142 HD
ATOM     20  H   UNL     1      31.487 -15.439 -19.999  0.00  0.00    +0.142 HD
ENDBRANCH  13  18
ENDBRANCH   8  12
ENDBRANCH   2   9
BRANCH   1  21
ATOM     21  C   UNL     1      36.191 -22.233 -19.123  0.00  0.00    +0.117 C 
BRANCH  21  23
ATOM     22  O   UNL     1      35.831 -22.785 -16.302  0.00  0.00    -0.270 OA
ATOM     23  N   UNL     1      35.024 -22.796 -18.482  0.00  0.00    -0.297 N 
ATOM     24  C   UNL     1      34.947 -23.023 -17.118  0.00  0.00    +0.246 C 
ATOM     25  H   UNL     1      34.248 -23.027 -19.042  0.00  0.00    +0.150 HD
BRANCH  24  26
ATOM     26  C   UNL     1      33.633 -23.609 -16.728  0.00  0.00    +0.058 C 
ATOM     27  C   UNL     1      33.219 -23.536 -15.455  0.00  0.00    +0.006 C 
BRANCH  27  29
ATOM     28  N   UNL     1      30.765 -25.411 -13.353  0.00  0.00    -0.242 NA
ATOM     29  C   UNL     1      31.937 -24.070 -14.961  0.00  0.00    +0.019 C 
ATOM     30  C   UNL     1      30.758 -23.751 -15.602  0.00  0.00    +0.003 C 
ATOM     31  C   UNL     1      31.907 -24.888 -13.858  0.00  0.00    +0.099 C 
ATOM     32  C   UNL     1      29.564 -24.270 -15.113  0.00  0.00    +0.021 C 
ATOM     33  C   UNL     1      29.621 -25.086 -13.996  0.00  0.00    +0.099 C 
ENDBRANCH  27  29
ENDBRANCH  24  26
ENDBRANCH  21  23
ENDBRANCH   1  21
TORSDOF 7
ENDMDL
MODEL 8
REMARK VINA RESULT:     -10.8      2.491      3.100
REMARK  Name = 12136798
REMARK  7 active torsions:
REMARK  status: ('A' for Active; 'I' for Inactive)
REMARK    1  A    between atoms: C_1  and  C_21
REMARK    2  A    between atoms: C_2  and  C_9
REMARK    3  A    between atoms: N_8  and  C_12
REMARK    4  A    between atoms: C_13  and  N_18
REMARK    5  A    between atoms: C_21  and  N_23
REMARK    6  A    between atoms: C_24  and  C_26
REMARK    7  A    between atoms: C_27  and  C_29
REMARK                            x       y       z     vdW  Elec       q    Type
REMARK                         _______ _______ _______ _____ _____    ______ ____
ROOT
ATOM      1  C   UNL     1      35.481 -18.806 -21.727  0.00  0.00    -0.003 C 
ATOM      2  C   UNL     1      35.564 -20.917 -19.921  0.00  0.00    +0.054 C 
ATOM      3  C   UNL     1      34.310 -19.479 -21.402  0.00  0.00    -0.002 C 
ATOM      4  C   UNL     1      36.694 -19.178 -21.160  0.00  0.00    -0.002 C 
ATOM      5  C   UNL     1      34.351 -20.538 -20.495  0.00  0.00    +0.004 C 
ATOM      6  C   UNL     1      36.736 -20.237 -20.253  0.00  0.00    +0.004 C 
ENDROOT
BRANCH   2   9
ATOM      7  O   UNL     1      35.141 -23.123 -19.315  0.00  0.00    -0.270 OA
ATOM      8  N   UNL     1      36.213 -21.749 -17.743  0.00  0.00    -0.279 N 
ATOM      9  C   UNL     1      35.608 -22.023 -18.977  0.00  0.00    +0.250 C 
ATOM     10  H   UNL     1      36.537 -20.828 -17.620  0.00  0.00    +0.155 HD
BRANCH   8  12
ATOM     11  F   UNL     1      37.094 -25.149 -13.475  0.00  0.00    -0.204 F 
ATOM     12  C   UNL     1      36.419 -22.625 -16.648  0.00  0.00    +0.064 C 
ATOM     13  C   UNL     1      35.349 -23.283 -16.066  0.00  0.00    +0.057 C 
ATOM     14  C   UNL     1      37.713 -22.799 -16.181  0.00  0.00    +0.018 C 
ATOM     15  C   UNL     1      35.577 -24.140 -14.990  0.00  0.00    +0.045 C 
ATOM     16  C   UNL     1      37.941 -23.656 -15.105  0.00  0.00    +0.031 C 
ATOM     17  C   UNL     1      36.873 -24.326 -14.508  0.00  0.00    +0.141 C 
BRANCH  13  18
ATOM     18  N   UNL     1      34.028 -23.110 -16.536  0.00  0.00    -0.356 N 
ATOM     19  H   UNL     1      33.775 -23.447 -17.426  0.00  0.00    +0.142 HD
ATOM     20  H   UNL     1      33.360 -22.654 -15.975  0.00  0.00    +0.142 HD
ENDBRANCH  13  18
ENDBRANCH   8  12
ENDBRANCH   2   9
BRANCH   1  21
ATOM     21  C   UNL     1      35.438 -17.665 -22.702  0.00  0.00    +0.117 C 
BRANCH  21  23
ATOM     22  O   UNL     1      34.228 -15.398 -24.041  0.00  0.00    -0.270 OA
ATOM     23  N   UNL     1      34.940 -16.451 -22.094  0.00  0.00    -0.297 N 
ATOM     24  C   UNL     1      34.375 -15.418 -22.823  0.00  0.00    +0.246 C 
ATOM     25  H   UNL     1      35.005 -16.355 -21.116  0.00  0.00    +0.150 HD
BRANCH  24  26
ATOM     26  C   UNL     1      33.948 -14.291 -21.946  0.00  0.00    +0.058 C 
ATOM     27  C   UNL     1      32.749 -13.719 -22.127  0.00  0.00    +0.006 C 
BRANCH  27  29
ATOM     28  N   UNL     1      31.506 -10.322 -21.198  0.00  0.00    -0.242 NA
ATOM     29  C   UNL     1      32.221 -12.608 -21.314  0.00  0.00    +0.019 C 
ATOM     30  C   UNL     1      31.955 -12.794 -19.974  0.00  0.00    +0.003 C 
ATOM     31  C   UNL     1      31.989 -11.381 -21.886  0.00  0.00    +0.099 C 
ATOM     32  C   UNL     1      31.458 -11.728 -19.232  0.00  0.00    +0.021 C 
ATOM     33  C   UNL     1      31.253 -10.524 -19.885  0.00  0.00    +0.099 C 
ENDBRANCH  27  29
ENDBRANCH  24  26
ENDBRANCH  21  23
ENDBRANCH   1  21
TORSDOF 7
ENDMDL
MODEL 9
REMARK VINA RESULT:     -10.8      4.393     11.353
REMARK  Name = 12136798
REMARK  7 active torsions:
REMARK  status: ('A' for Active; 'I' for Inactive)
REMARK    1  A    between atoms: C_1  and  C_21
REMARK    2  A    between atoms: C_2  and  C_9
REMARK    3  A    between atoms: N_8  and  C_12
REMARK    4  A    between atoms: C_13  and  N_18
REMARK    5  A    between atoms: C_21  and  N_23
REMARK    6  A    between atoms: C_24  and  C_26
REMARK    7  A    between atoms: C_27  and  C_29
REMARK                            x       y       z     vdW  Elec       q    Type
REMARK                         _______ _______ _______ _____ _____    ______ ____
ROOT
ATOM      1  C   UNL     1      35.010 -17.747 -23.514  0.00  0.00    -0.003 C 
ATOM      2  C   UNL     1      34.135 -15.130 -23.849  0.00  0.00    +0.054 C 
ATOM      3  C   UNL     1      35.017 -16.876 -22.432  0.00  0.00    -0.002 C 
ATOM      4  C   UNL     1      34.572 -17.323 -24.763  0.00  0.00    -0.002 C 
ATOM      5  C   UNL     1      34.577 -15.562 -22.599  0.00  0.00    +0.004 C 
ATOM      6  C   UNL     1      34.132 -16.010 -24.931  0.00  0.00    +0.004 C 
ENDROOT
BRANCH   2   9
ATOM      7  O   UNL     1      33.439 -13.346 -25.170  0.00  0.00    -0.270 OA
ATOM      8  N   UNL     1      33.521 -13.013 -22.849  0.00  0.00    -0.279 N 
ATOM      9  C   UNL     1      33.679 -13.760 -24.025  0.00  0.00    +0.250 C 
ATOM     10  H   UNL     1      33.751 -13.478 -22.013  0.00  0.00    +0.155 HD
BRANCH   8  12
ATOM     11  F   UNL     1      31.832  -7.775 -22.341  0.00  0.00    -0.204 F 
ATOM     12  C   UNL     1      33.073 -11.676 -22.707  0.00  0.00    +0.064 C 
ATOM     13  C   UNL     1      31.965 -11.388 -21.929  0.00  0.00    +0.057 C 
ATOM     14  C   UNL     1      33.772 -10.677 -23.366  0.00  0.00    +0.018 C 
ATOM     15  C   UNL     1      31.543 -10.064 -21.804  0.00  0.00    +0.045 C 
ATOM     16  C   UNL     1      33.351  -9.353 -23.241  0.00  0.00    +0.031 C 
ATOM     17  C   UNL     1      32.236  -9.046 -22.461  0.00  0.00    +0.141 C 
BRANCH  13  18
ATOM     18  N   UNL     1      31.248 -12.402 -21.256  0.00  0.00    -0.356 N 
ATOM     19  H   UNL     1      31.472 -12.626 -20.324  0.00  0.00    +0.142 HD
ATOM     20  H   UNL     1      30.524 -12.883 -21.717  0.00  0.00    +0.142 HD
ENDBRANCH  13  18
ENDBRANCH   8  12
ENDBRANCH   2   9
BRANCH   1  21
ATOM     21  C   UNL     1      35.483 -19.161 -23.334  0.00  0.00    +0.117 C 
BRANCH  21  23
ATOM     22  O   UNL     1      36.690 -19.650 -20.747  0.00  0.00    -0.270 OA
ATOM     23  N   UNL     1      34.872 -19.794 -22.187  0.00  0.00    -0.297 N 
ATOM     24  C   UNL     1      35.534 -19.984 -20.987  0.00  0.00    +0.246 C 
ATOM     25  H   UNL     1      33.940 -20.105 -22.264  0.00  0.00    +0.150 HD
BRANCH  24  26
ATOM     26  C   UNL     1      34.670 -20.661 -19.978  0.00  0.00    +0.058 C 
ATOM     27  C   UNL     1      35.165 -21.664 -19.238  0.00  0.00    +0.006 C 
BRANCH  27  29
ATOM     28  N   UNL     1      32.290 -23.193 -17.409  0.00  0.00    -0.242 NA
ATOM     29  C   UNL     1      34.406 -22.395 -18.207  0.00  0.00    +0.019 C 
ATOM     30  C   UNL     1      35.059 -22.945 -17.124  0.00  0.00    +0.003 C 
ATOM     31  C   UNL     1      33.045 -22.534 -18.319  0.00  0.00    +0.099 C 
ATOM     32  C   UNL     1      34.317 -23.630 -16.167  0.00  0.00    +0.021 C 
ATOM     33  C   UNL     1      32.948 -23.725 -16.355  0.00  0.00    +0.099 C 
ENDBRANCH  27  29
ENDBRANCH  24  26
ENDBRANCH  21  23
ENDBRANCH   1  21
TORSDOF 7
ENDMDL
