MODEL 1
REMARK VINA RESULT:     -11.5      0.000      0.000
REMARK  Name = 11992146
REMARK  2 active torsions:
REMARK  status: ('A' for Active; 'I' for Inactive)
REMARK    1  A    between atoms: C_2  and  C_14
REMARK    2  A    between atoms: C_5  and  C_20
REMARK                            x       y       z     vdW  Elec       q    Type
REMARK                         _______ _______ _______ _____ _____    ______ ____
ROOT
ATOM      1  N   UNL     1      32.529 -22.704 -17.868  0.00  0.00    -0.244 NA
ATOM      2  C   UNL     1      34.364 -23.753 -16.040  0.00  0.00    +0.016 C 
ATOM      3  C   UNL     1      34.807 -22.974 -17.102  0.00  0.00    +0.020 C 
ATOM      4  C   UNL     1      33.007 -24.009 -15.889  0.00  0.00    +0.022 C 
ATOM      5  C   UNL     1      33.857 -22.478 -17.981  0.00  0.00    +0.084 C 
ATOM      6  C   UNL     1      32.137 -23.466 -16.823  0.00  0.00    +0.099 C 
ENDROOT
BRANCH   2  14
ATOM      7  O   UNL     1      36.007 -25.783 -11.076  0.00  0.00    -0.270 OA
ATOM      8  N   UNL     1      36.644 -24.426 -15.397  0.00  0.00    -0.316 N 
ATOM      9  N   UNL     1      38.089 -26.184 -11.996  0.00  0.00    -0.300 N 
ATOM     10  C   UNL     1      37.291 -24.960 -14.319  0.00  0.00    +0.031 C 
ATOM     11  C   UNL     1      38.743 -25.236 -14.220  0.00  0.00    +0.063 C 
ATOM     12  C   UNL     1      36.370 -25.182 -13.317  0.00  0.00    +0.064 C 
ATOM     13  C   UNL     1      38.939 -26.346 -13.181  0.00  0.00    +0.096 C 
ATOM     14  C   UNL     1      35.311 -24.295 -15.095  0.00  0.00    +0.048 C 
ATOM     15  C   UNL     1      35.113 -24.752 -13.807  0.00  0.00    +0.020 C 
ATOM     16  C   UNL     1      36.768 -25.736 -12.038  0.00  0.00    +0.247 C 
ATOM     17  H   UNL     1      37.066 -24.177 -16.252  0.00  0.00    +0.152 HD
ATOM     18  H   UNL     1      38.474 -26.405 -11.116  0.00  0.00    +0.150 HD
ENDBRANCH   2  14
BRANCH   5  20
ATOM     19  F   UNL     1      36.538 -22.182 -18.771  0.00  0.00    -0.204 F 
ATOM     20  C   UNL     1      34.242 -21.661 -19.108  0.00  0.00    +0.045 C 
ATOM     21  C   UNL     1      35.587 -21.541 -19.464  0.00  0.00    +0.142 C 
ATOM     22  C   UNL     1      33.266 -20.987 -19.844  0.00  0.00    +0.004 C 
ATOM     23  C   UNL     1      35.954 -20.747 -20.552  0.00  0.00    +0.030 C 
ATOM     24  C   UNL     1      33.632 -20.194 -20.931  0.00  0.00    +0.000 C 
ATOM     25  C   UNL     1      34.976 -20.073 -21.285  0.00  0.00    +0.002 C 
ENDBRANCH   5  20
TORSDOF 2
ENDMDL
MODEL 2
REMARK VINA RESULT:     -10.9      7.570     11.883
REMARK  Name = 11992146
REMARK  2 active torsions:
REMARK  status: ('A' for Active; 'I' for Inactive)
REMARK    1  A    between atoms: C_2  and  C_14
REMARK    2  A    between atoms: C_5  and  C_20
REMARK                            x       y       z     vdW  Elec       q    Type
REMARK                         _______ _______ _______ _____ _____    ______ ____
ROOT
ATOM      1  N   UNL     1      35.263 -18.029 -23.652  0.00  0.00    -0.244 NA
ATOM      2  C   UNL     1      34.079 -15.665 -22.746  0.00  0.00    +0.016 C 
ATOM      3  C   UNL     1      34.395 -16.675 -21.845  0.00  0.00    +0.020 C 
ATOM      4  C   UNL     1      34.353 -15.833 -24.098  0.00  0.00    +0.022 C 
ATOM      5  C   UNL     1      34.981 -17.828 -22.345  0.00  0.00    +0.084 C 
ATOM      6  C   UNL     1      34.941 -17.024 -24.497  0.00  0.00    +0.099 C 
ENDROOT
BRANCH   2  14
ATOM      7  O   UNL     1      32.703 -10.234 -23.021  0.00  0.00    -0.270 OA
ATOM      8  N   UNL     1      32.853 -14.361 -21.055  0.00  0.00    -0.316 N 
ATOM      9  N   UNL     1      31.468 -10.511 -21.087  0.00  0.00    -0.300 N 
ATOM     10  C   UNL     1      32.375 -13.094 -20.885  0.00  0.00    +0.031 C 
ATOM     11  C   UNL     1      31.670 -12.579 -19.688  0.00  0.00    +0.063 C 
ATOM     12  C   UNL     1      32.676 -12.354 -22.009  0.00  0.00    +0.064 C 
ATOM     13  C   UNL     1      30.797 -11.398 -20.130  0.00  0.00    +0.096 C 
ATOM     14  C   UNL     1      33.468 -14.444 -22.280  0.00  0.00    +0.048 C 
ATOM     15  C   UNL     1      33.378 -13.209 -22.892  0.00  0.00    +0.020 C 
ATOM     16  C   UNL     1      32.300 -10.957 -22.114  0.00  0.00    +0.247 C 
ATOM     17  H   UNL     1      32.769 -15.097 -20.405  0.00  0.00    +0.152 HD
ATOM     18  H   UNL     1      31.321  -9.541 -20.999  0.00  0.00    +0.150 HD
ENDBRANCH   2  14
BRANCH   5  20
ATOM     19  F   UNL     1      37.646 -18.375 -21.641  0.00  0.00    -0.204 F 
ATOM     20  C   UNL     1      35.337 -18.920 -21.470  0.00  0.00    +0.045 C 
ATOM     21  C   UNL     1      36.675 -19.157 -21.148  0.00  0.00    +0.142 C 
ATOM     22  C   UNL     1      34.341 -19.744 -20.945  0.00  0.00    +0.004 C 
ATOM     23  C   UNL     1      37.014 -20.215 -20.305  0.00  0.00    +0.030 C 
ATOM     24  C   UNL     1      34.679 -20.802 -20.102  0.00  0.00    +0.000 C 
ATOM     25  C   UNL     1      36.017 -21.038 -19.782  0.00  0.00    +0.002 C 
ENDBRANCH   5  20
TORSDOF 2
ENDMDL
MODEL 3
REMARK VINA RESULT:     -10.8      9.800     13.264
REMARK  Name = 11992146
REMARK  2 active torsions:
REMARK  status: ('A' for Active; 'I' for Inactive)
REMARK    1  A    between atoms: C_2  and  C_14
REMARK    2  A    between atoms: C_5  and  C_20
REMARK                            x       y       z     vdW  Elec       q    Type
REMARK                         _______ _______ _______ _____ _____    ______ ____
ROOT
ATOM      1  N   UNL     1      31.128 -10.433 -20.018  0.00  0.00    -0.244 NA
ATOM      2  C   UNL     1      32.489 -12.649 -21.039  0.00  0.00    +0.016 C 
ATOM      3  C   UNL     1      32.556 -11.427 -21.698  0.00  0.00    +0.020 C 
ATOM      4  C   UNL     1      31.745 -12.766 -19.872  0.00  0.00    +0.022 C 
ATOM      5  C   UNL     1      31.863 -10.359 -21.151  0.00  0.00    +0.084 C 
ATOM      6  C   UNL     1      31.088 -11.637 -19.407  0.00  0.00    +0.099 C 
ENDROOT
BRANCH   2  14
ATOM      7  O   UNL     1      35.358 -17.457 -20.701  0.00  0.00    -0.270 OA
ATOM      8  N   UNL     1      33.430 -13.946 -22.909  0.00  0.00    -0.316 N 
ATOM      9  N   UNL     1      35.301 -17.584 -23.008  0.00  0.00    -0.300 N 
ATOM     10  C   UNL     1      34.112 -15.112 -23.108  0.00  0.00    +0.031 C 
ATOM     11  C   UNL     1      34.588 -15.635 -24.410  0.00  0.00    +0.063 C 
ATOM     12  C   UNL     1      34.310 -15.723 -21.887  0.00  0.00    +0.064 C 
ATOM     13  C   UNL     1      34.717 -17.158 -24.285  0.00  0.00    +0.096 C 
ATOM     14  C   UNL     1      33.192 -13.795 -21.565  0.00  0.00    +0.048 C 
ATOM     15  C   UNL     1      33.733 -14.881 -20.905  0.00  0.00    +0.020 C 
ATOM     16  C   UNL     1      35.020 -16.982 -21.781  0.00  0.00    +0.247 C 
ATOM     17  H   UNL     1      33.154 -13.317 -23.615  0.00  0.00    +0.152 HD
ATOM     18  H   UNL     1      35.930 -18.342 -23.017  0.00  0.00    +0.150 HD
ENDBRANCH   2  14
BRANCH   5  20
ATOM     19  F   UNL     1      33.247  -8.181 -20.038  0.00  0.00    -0.204 F 
ATOM     20  C   UNL     1      31.885  -9.059 -21.779  0.00  0.00    +0.045 C 
ATOM     21  C   UNL     1      32.584  -8.004 -21.190  0.00  0.00    +0.142 C 
ATOM     22  C   UNL     1      31.203  -8.854 -22.980  0.00  0.00    +0.004 C 
ATOM     23  C   UNL     1      32.600  -6.748 -21.800  0.00  0.00    +0.030 C 
ATOM     24  C   UNL     1      31.218  -7.600 -23.589  0.00  0.00    +0.000 C 
ATOM     25  C   UNL     1      31.916  -6.546 -22.999  0.00  0.00    +0.002 C 
ENDBRANCH   5  20
TORSDOF 2
ENDMDL
MODEL 4
REMARK VINA RESULT:     -10.7      1.505      2.001
REMARK  Name = 11992146
REMARK  2 active torsions:
REMARK  status: ('A' for Active; 'I' for Inactive)
REMARK    1  A    between atoms: C_2  and  C_14
REMARK    2  A    between atoms: C_5  and  C_20
REMARK                            x       y       z     vdW  Elec       q    Type
REMARK                         _______ _______ _______ _____ _____    ______ ____
ROOT
ATOM      1  N   UNL     1      32.486 -22.679 -17.898  0.00  0.00    -0.244 NA
ATOM      2  C   UNL     1      34.136 -23.698 -15.888  0.00  0.00    +0.016 C 
ATOM      3  C   UNL     1      34.686 -22.972 -16.938  0.00  0.00    +0.020 C 
ATOM      4  C   UNL     1      32.765 -23.916 -15.840  0.00  0.00    +0.022 C 
ATOM      5  C   UNL     1      33.824 -22.488 -17.910  0.00  0.00    +0.084 C 
ATOM      6  C   UNL     1      31.989 -23.390 -16.862  0.00  0.00    +0.099 C 
ENDROOT
BRANCH   2  14
ATOM      7  O   UNL     1      37.476 -27.515 -13.491  0.00  0.00    -0.270 OA
ATOM      8  N   UNL     1      35.179 -23.563 -13.661  0.00  0.00    -0.316 N 
ATOM      9  N   UNL     1      37.853 -26.017 -11.772  0.00  0.00    -0.300 N 
ATOM     10  C   UNL     1      36.023 -24.296 -12.877  0.00  0.00    +0.031 C 
ATOM     11  C   UNL     1      36.464 -23.950 -11.506  0.00  0.00    +0.063 C 
ATOM     12  C   UNL     1      36.386 -25.435 -13.564  0.00  0.00    +0.064 C 
ATOM     13  C   UNL     1      37.809 -24.644 -11.256  0.00  0.00    +0.096 C 
ATOM     14  C   UNL     1      34.988 -24.225 -14.849  0.00  0.00    +0.048 C 
ATOM     15  C   UNL     1      35.722 -25.395 -14.814  0.00  0.00    +0.020 C 
ATOM     16  C   UNL     1      37.275 -26.419 -12.976  0.00  0.00    +0.247 C 
ATOM     17  H   UNL     1      34.773 -22.700 -13.414  0.00  0.00    +0.152 HD
ATOM     18  H   UNL     1      38.321 -26.698 -11.234  0.00  0.00    +0.150 HD
ENDBRANCH   2  14
BRANCH   5  20
ATOM     19  F   UNL     1      32.193 -20.716 -19.357  0.00  0.00    -0.204 F 
ATOM     20  C   UNL     1      34.321 -21.726 -19.031  0.00  0.00    +0.045 C 
ATOM     21  C   UNL     1      33.474 -20.857 -19.723  0.00  0.00    +0.142 C 
ATOM     22  C   UNL     1      35.654 -21.857 -19.426  0.00  0.00    +0.004 C 
ATOM     23  C   UNL     1      33.959 -20.125 -20.808  0.00  0.00    +0.030 C 
ATOM     24  C   UNL     1      36.138 -21.126 -20.510  0.00  0.00    +0.000 C 
ATOM     25  C   UNL     1      35.291 -20.259 -21.201  0.00  0.00    +0.002 C 
ENDBRANCH   5  20
TORSDOF 2
ENDMDL
MODEL 5
REMARK VINA RESULT:     -10.7      6.375     10.901
REMARK  Name = 11992146
REMARK  2 active torsions:
REMARK  status: ('A' for Active; 'I' for Inactive)
REMARK    1  A    between atoms: C_2  and  C_14
REMARK    2  A    between atoms: C_5  and  C_20
REMARK                            x       y       z     vdW  Elec       q    Type
REMARK                         _______ _______ _______ _____ _____    ______ ____
ROOT
ATOM      1  N   UNL     1      35.740 -19.920 -22.319  0.00  0.00    -0.244 NA
ATOM      2  C   UNL     1      34.676 -17.349 -22.065  0.00  0.00    +0.016 C 
ATOM      3  C   UNL     1      34.458 -18.295 -21.070  0.00  0.00    +0.020 C 
ATOM      4  C   UNL     1      35.425 -17.686 -23.186  0.00  0.00    +0.022 C 
ATOM      5  C   UNL     1      35.007 -19.556 -21.243  0.00  0.00    +0.084 C 
ATOM      6  C   UNL     1      35.931 -18.974 -23.265  0.00  0.00    +0.099 C 
ENDROOT
BRANCH   2  14
ATOM      7  O   UNL     1      33.724 -12.057 -23.659  0.00  0.00    -0.270 OA
ATOM      8  N   UNL     1      33.440 -15.626 -20.814  0.00  0.00    -0.316 N 
ATOM      9  N   UNL     1      32.347 -11.813 -21.819  0.00  0.00    -0.300 N 
ATOM     10  C   UNL     1      33.046 -14.328 -20.971  0.00  0.00    +0.031 C 
ATOM     11  C   UNL     1      32.304 -13.514 -19.981  0.00  0.00    +0.063 C 
ATOM     12  C   UNL     1      33.474 -13.883 -22.204  0.00  0.00    +0.064 C 
ATOM     13  C   UNL     1      31.551 -12.418 -20.745  0.00  0.00    +0.096 C 
ATOM     14  C   UNL     1      34.127 -16.021 -21.935  0.00  0.00    +0.048 C 
ATOM     15  C   UNL     1      34.169 -14.956 -22.813  0.00  0.00    +0.020 C 
ATOM     16  C   UNL     1      33.210 -12.529 -22.649  0.00  0.00    +0.247 C 
ATOM     17  H   UNL     1      33.260 -16.187 -20.024  0.00  0.00    +0.152 HD
ATOM     18  H   UNL     1      32.267 -10.842 -21.963  0.00  0.00    +0.150 HD
ENDBRANCH   2  14
BRANCH   5  20
ATOM     19  F   UNL     1      32.459 -20.471 -20.489  0.00  0.00    -0.204 F 
ATOM     20  C   UNL     1      34.823 -20.590 -20.253  0.00  0.00    +0.045 C 
ATOM     21  C   UNL     1      33.538 -21.013 -19.906  0.00  0.00    +0.142 C 
ATOM     22  C   UNL     1      35.934 -21.168 -19.636  0.00  0.00    +0.004 C 
ATOM     23  C   UNL     1      33.365 -22.010 -18.945  0.00  0.00    +0.030 C 
ATOM     24  C   UNL     1      35.761 -22.164 -18.675  0.00  0.00    +0.000 C 
ATOM     25  C   UNL     1      34.477 -22.586 -18.330  0.00  0.00    +0.002 C 
ENDBRANCH   5  20
TORSDOF 2
ENDMDL
MODEL 6
REMARK VINA RESULT:     -10.6     10.543     14.071
REMARK  Name = 11992146
REMARK  2 active torsions:
REMARK  status: ('A' for Active; 'I' for Inactive)
REMARK    1  A    between atoms: C_2  and  C_14
REMARK    2  A    between atoms: C_5  and  C_20
REMARK                            x       y       z     vdW  Elec       q    Type
REMARK                         _______ _______ _______ _____ _____    ______ ____
ROOT
ATOM      1  N   UNL     1      31.398  -9.893 -20.864  0.00  0.00    -0.244 NA
ATOM      2  C   UNL     1      32.531 -12.240 -21.872  0.00  0.00    +0.016 C 
ATOM      3  C   UNL     1      32.790 -11.022 -22.488  0.00  0.00    +0.020 C 
ATOM      4  C   UNL     1      31.707 -12.289 -20.754  0.00  0.00    +0.022 C 
ATOM      5  C   UNL     1      32.204  -9.887 -21.949  0.00  0.00    +0.084 C 
ATOM      6  C   UNL     1      31.169 -11.096 -20.293  0.00  0.00    +0.099 C 
ENDROOT
BRANCH   2  14
ATOM      7  O   UNL     1      33.944 -15.896 -25.884  0.00  0.00    -0.270 OA
ATOM      8  N   UNL     1      33.649 -14.413 -21.568  0.00  0.00    -0.316 N 
ATOM      9  N   UNL     1      35.048 -17.140 -24.279  0.00  0.00    -0.300 N 
ATOM     10  C   UNL     1      34.120 -15.441 -22.333  0.00  0.00    +0.031 C 
ATOM     11  C   UNL     1      34.746 -16.687 -21.834  0.00  0.00    +0.063 C 
ATOM     12  C   UNL     1      33.896 -15.141 -23.661  0.00  0.00    +0.064 C 
ATOM     13  C   UNL     1      35.651 -17.235 -22.944  0.00  0.00    +0.096 C 
ATOM     14  C   UNL     1      33.115 -13.453 -22.392  0.00  0.00    +0.048 C 
ATOM     15  C   UNL     1      33.250 -13.882 -23.698  0.00  0.00    +0.020 C 
ATOM     16  C   UNL     1      34.284 -16.058 -24.715  0.00  0.00    +0.247 C 
ATOM     17  H   UNL     1      33.686 -14.368 -20.584  0.00  0.00    +0.152 HD
ATOM     18  H   UNL     1      35.192 -17.886 -24.906  0.00  0.00    +0.150 HD
ENDBRANCH   2  14
BRANCH   5  20
ATOM     19  F   UNL     1      30.164  -8.459 -23.250  0.00  0.00    -0.204 F 
ATOM     20  C   UNL     1      32.428  -8.586 -22.534  0.00  0.00    +0.045 C 
ATOM     21  C   UNL     1      31.385  -7.912 -23.173  0.00  0.00    +0.142 C 
ATOM     22  C   UNL     1      33.693  -7.999 -22.463  0.00  0.00    +0.004 C 
ATOM     23  C   UNL     1      31.608  -6.656 -23.740  0.00  0.00    +0.030 C 
ATOM     24  C   UNL     1      33.915  -6.744 -23.029  0.00  0.00    +0.000 C 
ATOM     25  C   UNL     1      32.873  -6.073 -23.668  0.00  0.00    +0.002 C 
ENDBRANCH   5  20
TORSDOF 2
ENDMDL
MODEL 7
REMARK VINA RESULT:     -10.5      2.424      4.427
REMARK  Name = 11992146
REMARK  2 active torsions:
REMARK  status: ('A' for Active; 'I' for Inactive)
REMARK    1  A    between atoms: C_2  and  C_14
REMARK    2  A    between atoms: C_5  and  C_20
REMARK                            x       y       z     vdW  Elec       q    Type
REMARK                         _______ _______ _______ _____ _____    ______ ____
ROOT
ATOM      1  N   UNL     1      32.342 -22.881 -17.455  0.00  0.00    -0.244 NA
ATOM      2  C   UNL     1      34.427 -23.906 -15.904  0.00  0.00    +0.016 C 
ATOM      3  C   UNL     1      33.110 -24.052 -15.484  0.00  0.00    +0.020 C 
ATOM      4  C   UNL     1      34.704 -23.249 -17.096  0.00  0.00    +0.022 C 
ATOM      5  C   UNL     1      32.112 -23.526 -16.289  0.00  0.00    +0.084 C 
ATOM      6  C   UNL     1      33.634 -22.758 -17.830  0.00  0.00    +0.099 C 
ENDROOT
BRANCH   2  14
ATOM      7  O   UNL     1      36.685 -26.396 -11.414  0.00  0.00    -0.270 OA
ATOM      8  N   UNL     1      36.819 -24.311 -15.482  0.00  0.00    -0.316 N 
ATOM      9  N   UNL     1      38.735 -26.326 -12.479  0.00  0.00    -0.300 N 
ATOM     10  C   UNL     1      37.610 -24.897 -14.535  0.00  0.00    +0.031 C 
ATOM     11  C   UNL     1      39.089 -24.958 -14.548  0.00  0.00    +0.063 C 
ATOM     12  C   UNL     1      36.802 -25.409 -13.541  0.00  0.00    +0.064 C 
ATOM     13  C   UNL     1      39.515 -26.171 -13.712  0.00  0.00    +0.096 C 
ATOM     14  C   UNL     1      35.505 -24.434 -15.103  0.00  0.00    +0.048 C 
ATOM     15  C   UNL     1      35.465 -25.108 -13.898  0.00  0.00    +0.020 C 
ATOM     16  C   UNL     1      37.363 -26.086 -12.389  0.00  0.00    +0.247 C 
ATOM     17  H   UNL     1      37.140 -23.871 -16.303  0.00  0.00    +0.152 HD
ATOM     18  H   UNL     1      39.208 -26.617 -11.666  0.00  0.00    +0.150 HD
ENDBRANCH   2  14
BRANCH   5  20
ATOM     19  F   UNL     1      31.188 -25.514 -14.532  0.00  0.00    -0.204 F 
ATOM     20  C   UNL     1      30.721 -23.639 -15.919  0.00  0.00    +0.045 C 
ATOM     21  C   UNL     1      30.305 -24.644 -15.044  0.00  0.00    +0.142 C 
ATOM     22  C   UNL     1      29.787 -22.742 -16.440  0.00  0.00    +0.004 C 
ATOM     23  C   UNL     1      28.959 -24.752 -14.691  0.00  0.00    +0.030 C 
ATOM     24  C   UNL     1      28.442 -22.849 -16.088  0.00  0.00    +0.000 C 
ATOM     25  C   UNL     1      28.027 -23.854 -15.214  0.00  0.00    +0.002 C 
ENDBRANCH   5  20
TORSDOF 2
ENDMDL
MODEL 8
REMARK VINA RESULT:     -10.5     11.446     15.067
REMARK  Name = 11992146
REMARK  2 active torsions:
REMARK  status: ('A' for Active; 'I' for Inactive)
REMARK    1  A    between atoms: C_2  and  C_14
REMARK    2  A    between atoms: C_5  and  C_20
REMARK                            x       y       z     vdW  Elec       q    Type
REMARK                         _______ _______ _______ _____ _____    ______ ____
ROOT
ATOM      1  N   UNL     1      32.335 -14.385 -21.009  0.00  0.00    -0.244 NA
ATOM      2  C   UNL     1      32.115 -11.613 -21.286  0.00  0.00    +0.016 C 
ATOM      3  C   UNL     1      32.710 -12.369 -22.290  0.00  0.00    +0.020 C 
ATOM      4  C   UNL     1      31.630 -12.240 -20.145  0.00  0.00    +0.022 C 
ATOM      5  C   UNL     1      32.795 -13.739 -22.105  0.00  0.00    +0.084 C 
ATOM      6  C   UNL     1      31.764 -13.617 -20.055  0.00  0.00    +0.099 C 
ENDROOT
BRANCH   2  14
ATOM      7  O   UNL     1      32.613  -6.278 -19.628  0.00  0.00    -0.270 OA
ATOM      8  N   UNL     1      31.415  -9.606 -22.528  0.00  0.00    -0.316 N 
ATOM      9  N   UNL     1      31.893  -5.622 -21.724  0.00  0.00    -0.300 N 
ATOM     10  C   UNL     1      31.445  -8.248 -22.386  0.00  0.00    +0.031 C 
ATOM     11  C   UNL     1      30.891  -7.257 -23.336  0.00  0.00    +0.063 C 
ATOM     12  C   UNL     1      32.060  -7.944 -21.189  0.00  0.00    +0.064 C 
ATOM     13  C   UNL     1      31.651  -5.940 -23.136  0.00  0.00    +0.096 C 
ATOM     14  C   UNL     1      32.000 -10.182 -21.428  0.00  0.00    +0.048 C 
ATOM     15  C   UNL     1      32.405  -9.173 -20.576  0.00  0.00    +0.020 C 
ATOM     16  C   UNL     1      32.228  -6.570 -20.757  0.00  0.00    +0.247 C 
ATOM     17  H   UNL     1      31.035 -10.092 -23.297  0.00  0.00    +0.152 HD
ATOM     18  H   UNL     1      31.814  -4.682 -21.442  0.00  0.00    +0.150 HD
ENDBRANCH   2  14
BRANCH   5  20
ATOM     19  F   UNL     1      34.852 -15.551 -21.485  0.00  0.00    -0.204 F 
ATOM     20  C   UNL     1      33.399 -14.589 -23.104  0.00  0.00    +0.045 C 
ATOM     21  C   UNL     1      34.420 -15.474 -22.752  0.00  0.00    +0.142 C 
ATOM     22  C   UNL     1      32.963 -14.524 -24.428  0.00  0.00    +0.004 C 
ATOM     23  C   UNL     1      35.004 -16.290 -23.722  0.00  0.00    +0.030 C 
ATOM     24  C   UNL     1      33.545 -15.340 -25.398  0.00  0.00    +0.000 C 
ATOM     25  C   UNL     1      34.566 -16.223 -25.045  0.00  0.00    +0.002 C 
ENDBRANCH   5  20
TORSDOF 2
ENDMDL
MODEL 9
REMARK VINA RESULT:     -10.5      3.142      7.502
REMARK  Name = 11992146
REMARK  2 active torsions:
REMARK  status: ('A' for Active; 'I' for Inactive)
REMARK    1  A    between atoms: C_2  and  C_14
REMARK    2  A    between atoms: C_5  and  C_20
REMARK                            x       y       z     vdW  Elec       q    Type
REMARK                         _______ _______ _______ _____ _____    ______ ____
ROOT
ATOM      1  N   UNL     1      33.771 -25.026 -13.860  0.00  0.00    -0.244 NA
ATOM      2  C   UNL     1      34.049 -23.544 -16.212  0.00  0.00    +0.016 C 
ATOM      3  C   UNL     1      35.176 -23.999 -15.538  0.00  0.00    +0.020 C 
ATOM      4  C   UNL     1      32.783 -23.828 -15.713  0.00  0.00    +0.022 C 
ATOM      5  C   UNL     1      34.985 -24.730 -14.376  0.00  0.00    +0.084 C 
ATOM      6  C   UNL     1      32.699 -24.566 -14.543  0.00  0.00    +0.099 C 
ENDROOT
BRANCH   2  14
ATOM      7  O   UNL     1      32.206 -20.761 -20.720  0.00  0.00    -0.270 OA
ATOM      8  N   UNL     1      35.420 -22.509 -17.976  0.00  0.00    -0.316 N 
ATOM      9  N   UNL     1      34.397 -20.200 -21.195  0.00  0.00    -0.300 N 
ATOM     10  C   UNL     1      35.246 -21.776 -19.114  0.00  0.00    +0.031 C 
ATOM     11  C   UNL     1      36.316 -21.303 -20.022  0.00  0.00    +0.063 C 
ATOM     12  C   UNL     1      33.896 -21.563 -19.299  0.00  0.00    +0.064 C 
ATOM     13  C   UNL     1      35.792 -20.065 -20.760  0.00  0.00    +0.096 C 
ATOM     14  C   UNL     1      34.191 -22.778 -17.426  0.00  0.00    +0.048 C 
ATOM     15  C   UNL     1      33.225 -22.206 -18.231  0.00  0.00    +0.020 C 
ATOM     16  C   UNL     1      33.400 -20.818 -20.440  0.00  0.00    +0.247 C 
ATOM     17  H   UNL     1      36.288 -22.798 -17.609  0.00  0.00    +0.152 HD
ATOM     18  H   UNL     1      34.149 -19.831 -22.074  0.00  0.00    +0.150 HD
ENDBRANCH   2  14
BRANCH   5  20
ATOM     19  F   UNL     1      36.437 -26.993 -15.190  0.00  0.00    -0.204 F 
ATOM     20  C   UNL     1      36.107 -25.235 -13.622  0.00  0.00    +0.045 C 
ATOM     21  C   UNL     1      36.800 -26.365 -14.063  0.00  0.00    +0.142 C 
ATOM     22  C   UNL     1      36.502 -24.594 -12.447  0.00  0.00    +0.004 C 
ATOM     23  C   UNL     1      37.883 -26.852 -13.329  0.00  0.00    +0.030 C 
ATOM     24  C   UNL     1      37.583 -25.081 -11.713  0.00  0.00    +0.000 C 
ATOM     25  C   UNL     1      38.274 -26.210 -12.154  0.00  0.00    +0.002 C 
ENDBRANCH   5  20
TORSDOF 2
ENDMDL
