MODEL 1
REMARK VINA RESULT:     -13.0      0.000      0.000
REMARK  Name = 25049750
REMARK  7 active torsions:
REMARK  status: ('A' for Active; 'I' for Inactive)
REMARK    1  A    between atoms: C_1  and  C_14
REMARK    2  A    between atoms: C_6  and  O_20
REMARK    3  A    between atoms: C_10  and  C_17
REMARK    4  A    between atoms: C_17  and  O_18
REMARK    5  A    between atoms: O_20  and  C_21
REMARK    6  A    between atoms: C_21  and  C_23
REMARK    7  A    between atoms: C_27  and  C_32
REMARK                            x       y       z     vdW  Elec       q    Type
REMARK                         _______ _______ _______ _____ _____    ______ ____
ROOT
ATOM      1  C   UNL     1      35.080 -20.116 -21.274  0.00  0.00    -0.004 C 
ATOM      2  C   UNL     1      33.691 -20.015 -21.185  0.00  0.00    +0.000 C 
ATOM      3  C   UNL     1      35.782 -20.899 -20.358  0.00  0.00    +0.000 C 
ATOM      4  C   UNL     1      33.006 -20.696 -20.179  0.00  0.00    +0.037 C 
ATOM      5  C   UNL     1      35.096 -21.580 -19.352  0.00  0.00    +0.037 C 
ATOM      6  C   UNL     1      33.708 -21.480 -19.263  0.00  0.00    +0.139 C 
ENDROOT
BRANCH   1  14
ATOM      7  O   UNL     1      33.991 -17.893 -25.024  0.00  0.00    -0.275 OA
ATOM      8  N   UNL     1      35.101 -19.409 -23.627  0.00  0.00    -0.302 N 
ATOM      9  C   UNL     1      35.116 -17.215 -23.040  0.00  0.00    +0.081 C 
ATOM     10  C   UNL     1      34.179 -16.170 -22.543  0.00  0.00    +0.108 C 
ATOM     11  C   UNL     1      35.356 -15.794 -23.404  0.00  0.00    +0.021 C 
ATOM     12  C   UNL     1      36.027 -17.876 -22.072  0.00  0.00    +0.033 C 
ATOM     13  C   UNL     1      34.650 -18.168 -24.034  0.00  0.00    +0.222 C 
ATOM     14  C   UNL     1      35.823 -19.378 -22.365  0.00  0.00    +0.095 C 
ATOM     15  H   UNL     1      34.949 -20.234 -24.142  0.00  0.00    +0.150 HD
BRANCH  10  17
ATOM     16  O   UNL     1      34.203 -16.432 -20.213  0.00  0.00    -0.250 OA
ATOM     17  C   UNL     1      34.269 -15.689 -21.181  0.00  0.00    +0.314 C 
BRANCH  17  18
ATOM     18  O   UNL     1      34.433 -14.345 -21.112  0.00  0.00    -0.480 OA
ATOM     19  H   UNL     1      35.286 -13.972 -21.207  0.00  0.00    +0.295 HD
ENDBRANCH  17  18
ENDBRANCH  10  17
ENDBRANCH   1  14
BRANCH   6  20
ATOM     20  O   UNL     1      33.034 -22.149 -18.275  0.00  0.00    -0.471 OA
BRANCH  20  21
ATOM     21  C   UNL     1      33.488 -23.459 -17.964  0.00  0.00    +0.229 C 
BRANCH  21  23
ATOM     22  N   UNL     1      33.571 -24.001 -13.721  0.00  0.00    -0.406 NA
ATOM     23  C   UNL     1      33.480 -23.643 -16.478  0.00  0.00    +0.012 C 
ATOM     24  C   UNL     1      32.303 -23.561 -15.722  0.00  0.00    +0.096 C 
ATOM     25  C   UNL     1      34.693 -23.903 -15.857  0.00  0.00    +0.028 C 
ATOM     26  C   UNL     1      32.395 -23.750 -14.327  0.00  0.00    +0.117 C 
ATOM     27  C   UNL     1      34.683 -24.073 -14.486  0.00  0.00    +0.130 C 
ATOM     28  C   UNL     1      31.059 -23.300 -16.323  0.00  0.00    -0.015 C 
ATOM     29  C   UNL     1      31.226 -23.668 -13.577  0.00  0.00    +0.028 C 
ATOM     30  C   UNL     1      29.906 -23.224 -15.548  0.00  0.00    -0.004 C 
ATOM     31  C   UNL     1      29.989 -23.408 -14.173  0.00  0.00    +0.002 C 
BRANCH  27  32
ATOM     32  C   UNL     1      35.902 -24.345 -13.763  0.00  0.00    +0.030 C 
ATOM     33  C   UNL     1      36.088 -23.817 -12.485  0.00  0.00    +0.003 C 
ATOM     34  C   UNL     1      36.894 -25.137 -14.340  0.00  0.00    +0.003 C 
ATOM     35  C   UNL     1      37.265 -24.081 -11.785  0.00  0.00    +0.000 C 
ATOM     36  C   UNL     1      38.072 -25.401 -13.640  0.00  0.00    +0.000 C 
ATOM     37  C   UNL     1      38.257 -24.872 -12.363  0.00  0.00    +0.000 C 
ENDBRANCH  27  32
ENDBRANCH  21  23
ENDBRANCH  20  21
ENDBRANCH   6  20
TORSDOF 7
ENDMDL
MODEL 2
REMARK VINA RESULT:     -12.1      1.033      4.126
REMARK  Name = 25049750
REMARK  7 active torsions:
REMARK  status: ('A' for Active; 'I' for Inactive)
REMARK    1  A    between atoms: C_1  and  C_14
REMARK    2  A    between atoms: C_6  and  O_20
REMARK    3  A    between atoms: C_10  and  C_17
REMARK    4  A    between atoms: C_17  and  O_18
REMARK    5  A    between atoms: O_20  and  C_21
REMARK    6  A    between atoms: C_21  and  C_23
REMARK    7  A    between atoms: C_27  and  C_32
REMARK                            x       y       z     vdW  Elec       q    Type
REMARK                         _______ _______ _______ _____ _____    ______ ____
ROOT
ATOM      1  C   UNL     1      35.655 -19.580 -21.489  0.00  0.00    -0.004 C 
ATOM      2  C   UNL     1      34.282 -19.767 -21.323  0.00  0.00    +0.000 C 
ATOM      3  C   UNL     1      36.555 -20.264 -20.673  0.00  0.00    +0.000 C 
ATOM      4  C   UNL     1      33.811 -20.637 -20.339  0.00  0.00    +0.037 C 
ATOM      5  C   UNL     1      36.083 -21.133 -19.689  0.00  0.00    +0.037 C 
ATOM      6  C   UNL     1      34.712 -21.321 -19.523  0.00  0.00    +0.139 C 
ENDROOT
BRANCH   1  14
ATOM      7  O   UNL     1      33.913 -17.402 -25.012  0.00  0.00    -0.275 OA
ATOM      8  N   UNL     1      35.390 -18.739 -23.783  0.00  0.00    -0.302 N 
ATOM      9  C   UNL     1      34.995 -16.631 -23.038  0.00  0.00    +0.081 C 
ATOM     10  C   UNL     1      33.897 -15.834 -22.423  0.00  0.00    +0.108 C 
ATOM     11  C   UNL     1      34.920 -15.170 -23.307  0.00  0.00    +0.021 C 
ATOM     12  C   UNL     1      36.078 -17.148 -22.164  0.00  0.00    +0.033 C 
ATOM     13  C   UNL     1      34.673 -17.595 -24.076  0.00  0.00    +0.222 C 
ATOM     14  C   UNL     1      36.165 -18.639 -22.557  0.00  0.00    +0.095 C 
ATOM     15  H   UNL     1      35.378 -19.544 -24.350  0.00  0.00    +0.150 HD
BRANCH  10  17
ATOM     16  O   UNL     1      34.546 -14.416 -20.672  0.00  0.00    -0.250 OA
ATOM     17  C   UNL     1      33.969 -15.431 -21.035  0.00  0.00    +0.314 C 
BRANCH  17  18
ATOM     18  O   UNL     1      33.333 -16.294 -20.206  0.00  0.00    -0.480 OA
ATOM     19  H   UNL     1      32.563 -16.023 -19.748  0.00  0.00    +0.295 HD
ENDBRANCH  17  18
ENDBRANCH  10  17
ENDBRANCH   1  14
BRANCH   6  20
ATOM     20  O   UNL     1      34.248 -22.175 -18.556  0.00  0.00    -0.471 OA
BRANCH  20  21
ATOM     21  C   UNL     1      35.211 -22.705 -17.655  0.00  0.00    +0.229 C 
BRANCH  21  23
ATOM     22  N   UNL     1      33.107 -24.303 -14.289  0.00  0.00    -0.406 NA
ATOM     23  C   UNL     1      34.507 -23.269 -16.460  0.00  0.00    +0.012 C 
ATOM     24  C   UNL     1      35.199 -23.689 -15.316  0.00  0.00    +0.096 C 
ATOM     25  C   UNL     1      33.124 -23.366 -16.515  0.00  0.00    +0.028 C 
ATOM     26  C   UNL     1      34.449 -24.207 -14.239  0.00  0.00    +0.117 C 
ATOM     27  C   UNL     1      32.478 -23.886 -15.412  0.00  0.00    +0.130 C 
ATOM     28  C   UNL     1      36.600 -23.603 -15.230  0.00  0.00    -0.015 C 
ATOM     29  C   UNL     1      35.137 -24.624 -13.104  0.00  0.00    +0.028 C 
ATOM     30  C   UNL     1      37.261 -24.028 -14.082  0.00  0.00    -0.004 C 
ATOM     31  C   UNL     1      36.529 -24.539 -13.017  0.00  0.00    +0.002 C 
BRANCH  27  32
ATOM     32  C   UNL     1      31.041 -24.022 -15.387  0.00  0.00    +0.030 C 
ATOM     33  C   UNL     1      30.450 -25.058 -14.663  0.00  0.00    +0.003 C 
ATOM     34  C   UNL     1      30.242 -23.118 -16.088  0.00  0.00    +0.003 C 
ATOM     35  C   UNL     1      29.061 -25.189 -14.639  0.00  0.00    +0.000 C 
ATOM     36  C   UNL     1      28.854 -23.249 -16.064  0.00  0.00    +0.000 C 
ATOM     37  C   UNL     1      28.264 -24.285 -15.340  0.00  0.00    +0.000 C 
ENDBRANCH  27  32
ENDBRANCH  21  23
ENDBRANCH  20  21
ENDBRANCH   6  20
TORSDOF 7
ENDMDL
MODEL 3
REMARK VINA RESULT:     -12.0      5.190      9.979
REMARK  Name = 25049750
REMARK  7 active torsions:
REMARK  status: ('A' for Active; 'I' for Inactive)
REMARK    1  A    between atoms: C_1  and  C_14
REMARK    2  A    between atoms: C_6  and  O_20
REMARK    3  A    between atoms: C_10  and  C_17
REMARK    4  A    between atoms: C_17  and  O_18
REMARK    5  A    between atoms: O_20  and  C_21
REMARK    6  A    between atoms: C_21  and  C_23
REMARK    7  A    between atoms: C_27  and  C_32
REMARK                            x       y       z     vdW  Elec       q    Type
REMARK                         _______ _______ _______ _____ _____    ______ ____
ROOT
ATOM      1  C   UNL     1      31.578 -10.627 -20.471  0.00  0.00    -0.004 C 
ATOM      2  C   UNL     1      31.952 -11.182 -21.695  0.00  0.00    +0.000 C 
ATOM      3  C   UNL     1      31.606 -11.407 -19.315  0.00  0.00    +0.000 C 
ATOM      4  C   UNL     1      32.353 -12.516 -21.763  0.00  0.00    +0.037 C 
ATOM      5  C   UNL     1      32.008 -12.741 -19.383  0.00  0.00    +0.037 C 
ATOM      6  C   UNL     1      32.382 -13.296 -20.606  0.00  0.00    +0.139 C 
ENDROOT
BRANCH   1  14
ATOM      7  O   UNL     1      33.386  -6.751 -19.094  0.00  0.00    -0.275 OA
ATOM      8  N   UNL     1      31.811  -8.469 -19.320  0.00  0.00    -0.302 N 
ATOM      9  C   UNL     1      32.566  -7.463 -21.211  0.00  0.00    +0.081 C 
ATOM     10  C   UNL     1      33.810  -7.372 -22.026  0.00  0.00    +0.108 C 
ATOM     11  C   UNL     1      32.841  -6.220 -21.978  0.00  0.00    +0.021 C 
ATOM     12  C   UNL     1      31.479  -8.367 -21.666  0.00  0.00    +0.033 C 
ATOM     13  C   UNL     1      32.670  -7.481 -19.762  0.00  0.00    +0.222 C 
ATOM     14  C   UNL     1      31.144  -9.181 -20.398  0.00  0.00    +0.095 C 
ATOM     15  H   UNL     1      31.665  -8.671 -18.367  0.00  0.00    +0.150 HD
BRANCH  10  17
ATOM     16  O   UNL     1      33.689  -7.424 -24.367  0.00  0.00    -0.250 OA
ATOM     17  C   UNL     1      33.891  -8.018 -23.318  0.00  0.00    +0.314 C 
BRANCH  17  18
ATOM     18  O   UNL     1      34.214  -9.331 -23.226  0.00  0.00    -0.480 OA
ATOM     19  H   UNL     1      34.977  -9.658 -23.659  0.00  0.00    +0.295 HD
ENDBRANCH  17  18
ENDBRANCH  10  17
ENDBRANCH   1  14
BRANCH   6  20
ATOM     20  O   UNL     1      32.777 -14.607 -20.673  0.00  0.00    -0.471 OA
BRANCH  20  21
ATOM     21  C   UNL     1      34.175 -14.857 -20.661  0.00  0.00    +0.229 C 
BRANCH  21  23
ATOM     22  N   UNL     1      34.993 -18.520 -22.715  0.00  0.00    -0.406 NA
ATOM     23  C   UNL     1      34.456 -16.121 -21.412  0.00  0.00    +0.012 C 
ATOM     24  C   UNL     1      34.428 -16.179 -22.812  0.00  0.00    +0.096 C 
ATOM     25  C   UNL     1      34.751 -17.256 -20.671  0.00  0.00    +0.028 C 
ATOM     26  C   UNL     1      34.707 -17.416 -23.431  0.00  0.00    +0.117 C 
ATOM     27  C   UNL     1      35.010 -18.421 -21.366  0.00  0.00    +0.130 C 
ATOM     28  C   UNL     1      34.133 -15.046 -23.590  0.00  0.00    -0.015 C 
ATOM     29  C   UNL     1      34.678 -17.473 -24.821  0.00  0.00    +0.028 C 
ATOM     30  C   UNL     1      34.112 -15.132 -24.979  0.00  0.00    -0.004 C 
ATOM     31  C   UNL     1      34.385 -16.347 -25.595  0.00  0.00    +0.002 C 
BRANCH  27  32
ATOM     32  C   UNL     1      35.324 -19.647 -20.672  0.00  0.00    +0.030 C 
ATOM     33  C   UNL     1      34.299 -20.507 -20.276  0.00  0.00    +0.003 C 
ATOM     34  C   UNL     1      36.652 -19.972 -20.396  0.00  0.00    +0.003 C 
ATOM     35  C   UNL     1      34.603 -21.692 -19.605  0.00  0.00    +0.000 C 
ATOM     36  C   UNL     1      36.956 -21.157 -19.726  0.00  0.00    +0.000 C 
ATOM     37  C   UNL     1      35.931 -22.016 -19.330  0.00  0.00    +0.000 C 
ENDBRANCH  27  32
ENDBRANCH  21  23
ENDBRANCH  20  21
ENDBRANCH   6  20
TORSDOF 7
ENDMDL
MODEL 4
REMARK VINA RESULT:     -11.8      1.516      4.236
REMARK  Name = 25049750
REMARK  7 active torsions:
REMARK  status: ('A' for Active; 'I' for Inactive)
REMARK    1  A    between atoms: C_1  and  C_14
REMARK    2  A    between atoms: C_6  and  O_20
REMARK    3  A    between atoms: C_10  and  C_17
REMARK    4  A    between atoms: C_17  and  O_18
REMARK    5  A    between atoms: O_20  and  C_21
REMARK    6  A    between atoms: C_21  and  C_23
REMARK    7  A    between atoms: C_27  and  C_32
REMARK                            x       y       z     vdW  Elec       q    Type
REMARK                         _______ _______ _______ _____ _____    ______ ____
ROOT
ATOM      1  C   UNL     1      35.245 -18.496 -21.540  0.00  0.00    -0.004 C 
ATOM      2  C   UNL     1      33.871 -18.654 -21.353  0.00  0.00    +0.000 C 
ATOM      3  C   UNL     1      36.130 -19.453 -21.043  0.00  0.00    +0.000 C 
ATOM      4  C   UNL     1      33.383 -19.768 -20.670  0.00  0.00    +0.037 C 
ATOM      5  C   UNL     1      35.642 -20.567 -20.360  0.00  0.00    +0.037 C 
ATOM      6  C   UNL     1      34.269 -20.725 -20.174  0.00  0.00    +0.139 C 
ENDROOT
BRANCH   1  14
ATOM      7  O   UNL     1      33.900 -15.950 -24.989  0.00  0.00    -0.275 OA
ATOM      8  N   UNL     1      35.316 -17.259 -23.661  0.00  0.00    -0.302 N 
ATOM      9  C   UNL     1      34.354 -15.435 -22.711  0.00  0.00    +0.081 C 
ATOM     10  C   UNL     1      33.012 -14.964 -22.269  0.00  0.00    +0.108 C 
ATOM     11  C   UNL     1      34.046 -13.981 -22.753  0.00  0.00    +0.021 C 
ATOM     12  C   UNL     1      35.305 -15.942 -21.689  0.00  0.00    +0.033 C 
ATOM     13  C   UNL     1      34.464 -16.207 -23.937  0.00  0.00    +0.222 C 
ATOM     14  C   UNL     1      35.773 -17.289 -22.281  0.00  0.00    +0.095 C 
ATOM     15  H   UNL     1      35.589 -17.923 -24.335  0.00  0.00    +0.150 HD
BRANCH  10  17
ATOM     16  O   UNL     1      32.248 -15.770 -20.204  0.00  0.00    -0.250 OA
ATOM     17  C   UNL     1      32.701 -14.844 -20.861  0.00  0.00    +0.314 C 
BRANCH  17  18
ATOM     18  O   UNL     1      32.969 -13.610 -20.369  0.00  0.00    -0.480 OA
ATOM     19  H   UNL     1      33.414 -13.518 -19.551  0.00  0.00    +0.295 HD
ENDBRANCH  17  18
ENDBRANCH  10  17
ENDBRANCH   1  14
BRANCH   6  20
ATOM     20  O   UNL     1      33.790 -21.820 -19.503  0.00  0.00    -0.471 OA
BRANCH  20  21
ATOM     21  C   UNL     1      34.753 -22.682 -18.914  0.00  0.00    +0.229 C 
BRANCH  21  23
ATOM     22  N   UNL     1      33.462 -23.598 -14.938  0.00  0.00    -0.406 NA
ATOM     23  C   UNL     1      34.337 -23.000 -17.511  0.00  0.00    +0.012 C 
ATOM     24  C   UNL     1      35.255 -23.052 -16.453  0.00  0.00    +0.096 C 
ATOM     25  C   UNL     1      32.991 -23.245 -17.280  0.00  0.00    +0.028 C 
ATOM     26  C   UNL     1      34.767 -23.359 -15.166  0.00  0.00    +0.117 C 
ATOM     27  C   UNL     1      32.609 -23.537 -15.986  0.00  0.00    +0.130 C 
ATOM     28  C   UNL     1      36.624 -22.808 -16.655  0.00  0.00    -0.015 C 
ATOM     29  C   UNL     1      35.680 -23.412 -14.116  0.00  0.00    +0.028 C 
ATOM     30  C   UNL     1      37.514 -22.867 -15.588  0.00  0.00    -0.004 C 
ATOM     31  C   UNL     1      37.042 -23.169 -14.316  0.00  0.00    +0.002 C 
BRANCH  27  32
ATOM     32  C   UNL     1      31.228 -23.806 -15.661  0.00  0.00    +0.030 C 
ATOM     33  C   UNL     1      30.906 -24.848 -14.791  0.00  0.00    +0.003 C 
ATOM     34  C   UNL     1      30.216 -23.024 -16.216  0.00  0.00    +0.003 C 
ATOM     35  C   UNL     1      29.572 -25.107 -14.475  0.00  0.00    +0.000 C 
ATOM     36  C   UNL     1      28.882 -23.283 -15.901  0.00  0.00    +0.000 C 
ATOM     37  C   UNL     1      28.560 -24.325 -15.032  0.00  0.00    +0.000 C 
ENDBRANCH  27  32
ENDBRANCH  21  23
ENDBRANCH  20  21
ENDBRANCH   6  20
TORSDOF 7
ENDMDL
MODEL 5
REMARK VINA RESULT:     -11.3      3.020     10.792
REMARK  Name = 25049750
REMARK  7 active torsions:
REMARK  status: ('A' for Active; 'I' for Inactive)
REMARK    1  A    between atoms: C_1  and  C_14
REMARK    2  A    between atoms: C_6  and  O_20
REMARK    3  A    between atoms: C_10  and  C_17
REMARK    4  A    between atoms: C_17  and  O_18
REMARK    5  A    between atoms: O_20  and  C_21
REMARK    6  A    between atoms: C_21  and  C_23
REMARK    7  A    between atoms: C_27  and  C_32
REMARK                            x       y       z     vdW  Elec       q    Type
REMARK                         _______ _______ _______ _____ _____    ______ ____
ROOT
ATOM      1  C   UNL     1      35.461 -21.457 -19.533  0.00  0.00    -0.004 C 
ATOM      2  C   UNL     1      36.462 -20.570 -19.931  0.00  0.00    +0.000 C 
ATOM      3  C   UNL     1      34.128 -21.187 -19.840  0.00  0.00    +0.000 C 
ATOM      4  C   UNL     1      36.129 -19.413 -20.635  0.00  0.00    +0.037 C 
ATOM      5  C   UNL     1      33.795 -20.030 -20.545  0.00  0.00    +0.037 C 
ATOM      6  C   UNL     1      34.795 -19.143 -20.943  0.00  0.00    +0.139 C 
ENDROOT
BRANCH   1  14
ATOM      7  O   UNL     1      36.241 -22.552 -15.246  0.00  0.00    -0.275 OA
ATOM      8  N   UNL     1      36.569 -22.414 -17.560  0.00  0.00    -0.302 N 
ATOM      9  C   UNL     1      34.621 -23.311 -16.815  0.00  0.00    +0.081 C 
ATOM     10  C   UNL     1      33.367 -22.887 -16.133  0.00  0.00    +0.108 C 
ATOM     11  C   UNL     1      33.909 -24.279 -15.938  0.00  0.00    +0.021 C 
ATOM     12  C   UNL     1      34.600 -23.519 -18.285  0.00  0.00    +0.033 C 
ATOM     13  C   UNL     1      35.884 -22.724 -16.401  0.00  0.00    +0.222 C 
ATOM     14  C   UNL     1      35.823 -22.712 -18.771  0.00  0.00    +0.095 C 
ATOM     15  H   UNL     1      37.475 -22.028 -17.565  0.00  0.00    +0.150 HD
BRANCH  10  17
ATOM     16  O   UNL     1      32.033 -22.431 -18.006  0.00  0.00    -0.250 OA
ATOM     17  C   UNL     1      32.115 -22.840 -16.858  0.00  0.00    +0.314 C 
BRANCH  17  18
ATOM     18  O   UNL     1      31.070 -23.297 -16.126  0.00  0.00    -0.480 OA
ATOM     19  H   UNL     1      31.103 -23.264 -15.190  0.00  0.00    +0.295 HD
ENDBRANCH  17  18
ENDBRANCH  10  17
ENDBRANCH   1  14
BRANCH   6  20
ATOM     20  O   UNL     1      34.468 -18.006 -21.634  0.00  0.00    -0.471 OA
BRANCH  20  21
ATOM     21  C   UNL     1      34.867 -16.769 -21.060  0.00  0.00    +0.229 C 
BRANCH  21  23
ATOM     22  N   UNL     1      32.758 -13.536 -22.905  0.00  0.00    -0.406 NA
ATOM     23  C   UNL     1      34.137 -15.653 -21.739  0.00  0.00    +0.012 C 
ATOM     24  C   UNL     1      34.015 -15.579 -23.133  0.00  0.00    +0.096 C 
ATOM     25  C   UNL     1      33.571 -14.673 -20.936  0.00  0.00    +0.028 C 
ATOM     26  C   UNL     1      33.307 -14.489 -23.682  0.00  0.00    +0.117 C 
ATOM     27  C   UNL     1      32.898 -13.644 -21.564  0.00  0.00    +0.130 C 
ATOM     28  C   UNL     1      34.576 -16.557 -23.973  0.00  0.00    -0.015 C 
ATOM     29  C   UNL     1      33.188 -14.416 -25.066  0.00  0.00    +0.028 C 
ATOM     30  C   UNL     1      34.441 -16.459 -25.355  0.00  0.00    -0.004 C 
ATOM     31  C   UNL     1      33.745 -15.388 -25.902  0.00  0.00    +0.002 C 
BRANCH  27  32
ATOM     32  C   UNL     1      32.282 -12.584 -20.803  0.00  0.00    +0.030 C 
ATOM     33  C   UNL     1      31.992 -11.363 -21.413  0.00  0.00    +0.003 C 
ATOM     34  C   UNL     1      31.976 -12.779 -19.456  0.00  0.00    +0.003 C 
ATOM     35  C   UNL     1      31.395 -10.339 -20.678  0.00  0.00    +0.000 C 
ATOM     36  C   UNL     1      31.380 -11.755 -18.720  0.00  0.00    +0.000 C 
ATOM     37  C   UNL     1      31.091 -10.535 -19.331  0.00  0.00    +0.000 C 
ENDBRANCH  27  32
ENDBRANCH  21  23
ENDBRANCH  20  21
ENDBRANCH   6  20
TORSDOF 7
ENDMDL
MODEL 6
REMARK VINA RESULT:     -11.2      5.553     12.622
REMARK  Name = 25049750
REMARK  7 active torsions:
REMARK  status: ('A' for Active; 'I' for Inactive)
REMARK    1  A    between atoms: C_1  and  C_14
REMARK    2  A    between atoms: C_6  and  O_20
REMARK    3  A    between atoms: C_10  and  C_17
REMARK    4  A    between atoms: C_17  and  O_18
REMARK    5  A    between atoms: O_20  and  C_21
REMARK    6  A    between atoms: C_21  and  C_23
REMARK    7  A    between atoms: C_27  and  C_32
REMARK                            x       y       z     vdW  Elec       q    Type
REMARK                         _______ _______ _______ _____ _____    ______ ____
ROOT
ATOM      1  C   UNL     1      35.027 -17.077 -22.562  0.00  0.00    -0.004 C 
ATOM      2  C   UNL     1      34.633 -16.618 -21.304  0.00  0.00    +0.000 C 
ATOM      3  C   UNL     1      34.654 -16.374 -23.708  0.00  0.00    +0.000 C 
ATOM      4  C   UNL     1      33.867 -15.458 -21.193  0.00  0.00    +0.037 C 
ATOM      5  C   UNL     1      33.888 -15.214 -23.596  0.00  0.00    +0.037 C 
ATOM      6  C   UNL     1      33.495 -14.755 -22.339  0.00  0.00    +0.139 C 
ENDROOT
BRANCH   1  14
ATOM      7  O   UNL     1      37.617 -19.538 -19.838  0.00  0.00    -0.275 OA
ATOM      8  N   UNL     1      36.968 -18.341 -21.742  0.00  0.00    -0.302 N 
ATOM      9  C   UNL     1      35.650 -20.063 -21.070  0.00  0.00    +0.081 C 
ATOM     10  C   UNL     1      34.722 -20.412 -19.958  0.00  0.00    +0.108 C 
ATOM     11  C   UNL     1      35.512 -21.485 -20.659  0.00  0.00    +0.021 C 
ATOM     12  C   UNL     1      35.078 -19.628 -22.369  0.00  0.00    +0.033 C 
ATOM     13  C   UNL     1      36.861 -19.318 -20.771  0.00  0.00    +0.222 C 
ATOM     14  C   UNL     1      35.859 -18.334 -22.682  0.00  0.00    +0.095 C 
ATOM     15  H   UNL     1      37.722 -17.710 -21.792  0.00  0.00    +0.150 HD
BRANCH  10  17
ATOM     16  O   UNL     1      32.644 -19.543 -20.609  0.00  0.00    -0.250 OA
ATOM     17  C   UNL     1      33.295 -20.488 -20.188  0.00  0.00    +0.314 C 
BRANCH  17  18
ATOM     18  O   UNL     1      32.781 -21.706 -19.889  0.00  0.00    -0.480 OA
ATOM     19  H   UNL     1      32.945 -22.435 -20.454  0.00  0.00    +0.295 HD
ENDBRANCH  17  18
ENDBRANCH  10  17
ENDBRANCH   1  14
BRANCH   6  20
ATOM     20  O   UNL     1      32.742 -13.615 -22.230  0.00  0.00    -0.471 OA
BRANCH  20  21
ATOM     21  C   UNL     1      33.149 -12.501 -23.011  0.00  0.00    +0.229 C 
BRANCH  21  23
ATOM     22  N   UNL     1      31.950  -8.839 -21.152  0.00  0.00    -0.406 NA
ATOM     23  C   UNL     1      32.720 -11.239 -22.330  0.00  0.00    +0.012 C 
ATOM     24  C   UNL     1      32.199 -11.232 -21.029  0.00  0.00    +0.096 C 
ATOM     25  C   UNL     1      32.853 -10.051 -23.035  0.00  0.00    +0.028 C 
ATOM     26  C   UNL     1      31.822  -9.993 -20.471  0.00  0.00    +0.117 C 
ATOM     27  C   UNL     1      32.457  -8.888 -22.405  0.00  0.00    +0.130 C 
ATOM     28  C   UNL     1      32.053 -12.419 -20.289  0.00  0.00    -0.015 C 
ATOM     29  C   UNL     1      31.305  -9.988 -19.179  0.00  0.00    +0.028 C 
ATOM     30  C   UNL     1      31.533 -12.384 -18.999  0.00  0.00    -0.004 C 
ATOM     31  C   UNL     1      31.159 -11.167 -18.443  0.00  0.00    +0.002 C 
BRANCH  27  32
ATOM     32  C   UNL     1      32.562  -7.610 -23.068  0.00  0.00    +0.030 C 
ATOM     33  C   UNL     1      31.505  -6.702 -23.004  0.00  0.00    +0.003 C 
ATOM     34  C   UNL     1      33.719  -7.283 -23.774  0.00  0.00    +0.003 C 
ATOM     35  C   UNL     1      31.606  -5.467 -23.644  0.00  0.00    +0.000 C 
ATOM     36  C   UNL     1      33.821  -6.048 -24.414  0.00  0.00    +0.000 C 
ATOM     37  C   UNL     1      32.764  -5.140 -24.349  0.00  0.00    +0.000 C 
ENDBRANCH  27  32
ENDBRANCH  21  23
ENDBRANCH  20  21
ENDBRANCH   6  20
TORSDOF 7
ENDMDL
MODEL 7
REMARK VINA RESULT:     -10.3      5.226      9.870
REMARK  Name = 25049750
REMARK  7 active torsions:
REMARK  status: ('A' for Active; 'I' for Inactive)
REMARK    1  A    between atoms: C_1  and  C_14
REMARK    2  A    between atoms: C_6  and  O_20
REMARK    3  A    between atoms: C_10  and  C_17
REMARK    4  A    between atoms: C_17  and  O_18
REMARK    5  A    between atoms: O_20  and  C_21
REMARK    6  A    between atoms: C_21  and  C_23
REMARK    7  A    between atoms: C_27  and  C_32
REMARK                            x       y       z     vdW  Elec       q    Type
REMARK                         _______ _______ _______ _____ _____    ______ ____
ROOT
ATOM      1  C   UNL     1      33.007 -10.559 -22.842  0.00  0.00    -0.004 C 
ATOM      2  C   UNL     1      32.150 -10.936 -21.807  0.00  0.00    +0.000 C 
ATOM      3  C   UNL     1      33.882 -11.493 -23.397  0.00  0.00    +0.000 C 
ATOM      4  C   UNL     1      32.168 -12.247 -21.330  0.00  0.00    +0.037 C 
ATOM      5  C   UNL     1      33.899 -12.803 -22.919  0.00  0.00    +0.037 C 
ATOM      6  C   UNL     1      33.042 -13.181 -21.886  0.00  0.00    +0.139 C 
ENDROOT
BRANCH   1  14
ATOM      7  O   UNL     1      29.957  -7.284 -23.243  0.00  0.00    -0.275 OA
ATOM      8  N   UNL     1      31.671  -8.760 -23.849  0.00  0.00    -0.302 N 
ATOM      9  C   UNL     1      32.018  -7.405 -22.060  0.00  0.00    +0.081 C 
ATOM     10  C   UNL     1      31.536  -7.231 -20.661  0.00  0.00    +0.108 C 
ATOM     11  C   UNL     1      32.004  -6.044 -21.462  0.00  0.00    +0.021 C 
ATOM     12  C   UNL     1      33.321  -8.080 -22.287  0.00  0.00    +0.033 C 
ATOM     13  C   UNL     1      31.067  -7.772 -23.094  0.00  0.00    +0.222 C 
ATOM     14  C   UNL     1      32.987  -9.139 -23.360  0.00  0.00    +0.095 C 
ATOM     15  H   UNL     1      31.251  -9.167 -24.641  0.00  0.00    +0.150 HD
BRANCH  10  17
ATOM     16  O   UNL     1      33.282  -6.817 -19.151  0.00  0.00    -0.250 OA
ATOM     17  C   UNL     1      32.393  -7.559 -19.542  0.00  0.00    +0.314 C 
BRANCH  17  18
ATOM     18  O   UNL     1      32.094  -8.761 -18.991  0.00  0.00    -0.480 OA
ATOM     19  H   UNL     1      31.475  -8.814 -18.290  0.00  0.00    +0.295 HD
ENDBRANCH  17  18
ENDBRANCH  10  17
ENDBRANCH   1  14
BRANCH   6  20
ATOM     20  O   UNL     1      33.060 -14.468 -21.416  0.00  0.00    -0.471 OA
BRANCH  20  21
ATOM     21  C   UNL     1      34.322 -14.990 -21.025  0.00  0.00    +0.229 C 
BRANCH  21  23
ATOM     22  N   UNL     1      34.883 -18.879 -22.719  0.00  0.00    -0.406 NA
ATOM     23  C   UNL     1      34.513 -16.336 -21.652  0.00  0.00    +0.012 C 
ATOM     24  C   UNL     1      34.462 -16.528 -23.039  0.00  0.00    +0.096 C 
ATOM     25  C   UNL     1      34.748 -17.411 -20.806  0.00  0.00    +0.028 C 
ATOM     26  C   UNL     1      34.655 -17.834 -23.536  0.00  0.00    +0.117 C 
ATOM     27  C   UNL     1      34.924 -18.651 -21.386  0.00  0.00    +0.130 C 
ATOM     28  C   UNL     1      34.227 -15.459 -23.922  0.00  0.00    -0.015 C 
ATOM     29  C   UNL     1      34.604 -18.024 -24.914  0.00  0.00    +0.028 C 
ATOM     30  C   UNL     1      34.181 -15.678 -25.295  0.00  0.00    -0.004 C 
ATOM     31  C   UNL     1      34.370 -16.962 -25.792  0.00  0.00    +0.002 C 
BRANCH  27  32
ATOM     32  C   UNL     1      35.173 -19.821 -20.578  0.00  0.00    +0.030 C 
ATOM     33  C   UNL     1      36.480 -20.170 -20.238  0.00  0.00    +0.003 C 
ATOM     34  C   UNL     1      34.106 -20.604 -20.136  0.00  0.00    +0.003 C 
ATOM     35  C   UNL     1      36.720 -21.300 -19.456  0.00  0.00    +0.000 C 
ATOM     36  C   UNL     1      34.346 -21.734 -19.354  0.00  0.00    +0.000 C 
ATOM     37  C   UNL     1      35.653 -22.082 -19.016  0.00  0.00    +0.000 C 
ENDBRANCH  27  32
ENDBRANCH  21  23
ENDBRANCH  20  21
ENDBRANCH   6  20
TORSDOF 7
ENDMDL
MODEL 8
REMARK VINA RESULT:     -10.1      4.575      9.040
REMARK  Name = 25049750
REMARK  7 active torsions:
REMARK  status: ('A' for Active; 'I' for Inactive)
REMARK    1  A    between atoms: C_1  and  C_14
REMARK    2  A    between atoms: C_6  and  O_20
REMARK    3  A    between atoms: C_10  and  C_17
REMARK    4  A    between atoms: C_17  and  O_18
REMARK    5  A    between atoms: O_20  and  C_21
REMARK    6  A    between atoms: C_21  and  C_23
REMARK    7  A    between atoms: C_27  and  C_32
REMARK                            x       y       z     vdW  Elec       q    Type
REMARK                         _______ _______ _______ _____ _____    ______ ____
ROOT
ATOM      1  C   UNL     1      32.094 -12.012 -21.362  0.00  0.00    -0.004 C 
ATOM      2  C   UNL     1      32.240 -13.024 -20.412  0.00  0.00    +0.000 C 
ATOM      3  C   UNL     1      32.826 -12.059 -22.548  0.00  0.00    +0.000 C 
ATOM      4  C   UNL     1      33.118 -14.082 -20.649  0.00  0.00    +0.037 C 
ATOM      5  C   UNL     1      33.703 -13.118 -22.785  0.00  0.00    +0.037 C 
ATOM      6  C   UNL     1      33.849 -14.129 -21.836  0.00  0.00    +0.139 C 
ENDROOT
BRANCH   1  14
ATOM      7  O   UNL     1      32.077  -8.297 -18.834  0.00  0.00    -0.275 OA
ATOM      8  N   UNL     1      31.320 -10.302 -19.777  0.00  0.00    -0.302 N 
ATOM      9  C   UNL     1      31.919  -8.625 -21.185  0.00  0.00    +0.081 C 
ATOM     10  C   UNL     1      33.145  -7.911 -21.640  0.00  0.00    +0.108 C 
ATOM     11  C   UNL     1      31.819  -7.199 -21.595  0.00  0.00    +0.021 C 
ATOM     12  C   UNL     1      31.335  -9.670 -22.063  0.00  0.00    +0.033 C 
ATOM     13  C   UNL     1      31.800  -9.006 -19.789  0.00  0.00    +0.222 C 
ATOM     14  C   UNL     1      31.142 -10.866 -21.105  0.00  0.00    +0.095 C 
ATOM     15  H   UNL     1      31.117 -10.795 -18.949  0.00  0.00    +0.150 HD
BRANCH  10  17
ATOM     16  O   UNL     1      34.226  -9.141 -23.319  0.00  0.00    -0.250 OA
ATOM     17  C   UNL     1      33.660  -8.112 -22.977  0.00  0.00    +0.314 C 
BRANCH  17  18
ATOM     18  O   UNL     1      33.443  -7.047 -23.786  0.00  0.00    -0.480 OA
ATOM     19  H   UNL     1      33.405  -6.184 -23.425  0.00  0.00    +0.295 HD
ENDBRANCH  17  18
ENDBRANCH  10  17
ENDBRANCH   1  14
BRANCH   6  20
ATOM     20  O   UNL     1      34.711 -15.169 -22.069  0.00  0.00    -0.471 OA
BRANCH  20  21
ATOM     21  C   UNL     1      34.976 -16.039 -20.977  0.00  0.00    +0.229 C 
BRANCH  21  23
ATOM     22  N   UNL     1      34.559 -20.126 -22.173  0.00  0.00    -0.406 NA
ATOM     23  C   UNL     1      34.828 -17.457 -21.431  0.00  0.00    +0.012 C 
ATOM     24  C   UNL     1      34.701 -17.799 -22.784  0.00  0.00    +0.096 C 
ATOM     25  C   UNL     1      34.821 -18.446 -20.457  0.00  0.00    +0.028 C 
ATOM     26  C   UNL     1      34.567 -19.164 -23.115  0.00  0.00    +0.117 C 
ATOM     27  C   UNL     1      34.684 -19.754 -20.878  0.00  0.00    +0.130 C 
ATOM     28  C   UNL     1      34.706 -16.821 -23.794  0.00  0.00    -0.015 C 
ATOM     29  C   UNL     1      34.441 -19.502 -24.459  0.00  0.00    +0.028 C 
ATOM     30  C   UNL     1      34.578 -17.188 -25.130  0.00  0.00    -0.004 C 
ATOM     31  C   UNL     1      34.445 -18.531 -25.463  0.00  0.00    +0.002 C 
BRANCH  27  32
ATOM     32  C   UNL     1      34.666 -20.842 -19.930  0.00  0.00    +0.030 C 
ATOM     33  C   UNL     1      35.864 -21.339 -19.415  0.00  0.00    +0.003 C 
ATOM     34  C   UNL     1      33.451 -21.397 -19.528  0.00  0.00    +0.003 C 
ATOM     35  C   UNL     1      35.847 -22.389 -18.497  0.00  0.00    +0.000 C 
ATOM     36  C   UNL     1      33.434 -22.448 -18.610  0.00  0.00    +0.000 C 
ATOM     37  C   UNL     1      34.632 -22.945 -18.096  0.00  0.00    +0.000 C 
ENDBRANCH  27  32
ENDBRANCH  21  23
ENDBRANCH  20  21
ENDBRANCH   6  20
TORSDOF 7
ENDMDL
MODEL 9
REMARK VINA RESULT:     -10.0      1.837      4.955
REMARK  Name = 25049750
REMARK  7 active torsions:
REMARK  status: ('A' for Active; 'I' for Inactive)
REMARK    1  A    between atoms: C_1  and  C_14
REMARK    2  A    between atoms: C_6  and  O_20
REMARK    3  A    between atoms: C_10  and  C_17
REMARK    4  A    between atoms: C_17  and  O_18
REMARK    5  A    between atoms: O_20  and  C_21
REMARK    6  A    between atoms: C_21  and  C_23
REMARK    7  A    between atoms: C_27  and  C_32
REMARK                            x       y       z     vdW  Elec       q    Type
REMARK                         _______ _______ _______ _____ _____    ______ ____
ROOT
ATOM      1  C   UNL     1      35.096 -20.321 -20.863  0.00  0.00    -0.004 C 
ATOM      2  C   UNL     1      35.697 -21.348 -20.133  0.00  0.00    +0.000 C 
ATOM      3  C   UNL     1      33.731 -20.074 -20.722  0.00  0.00    +0.000 C 
ATOM      4  C   UNL     1      34.933 -22.125 -19.264  0.00  0.00    +0.037 C 
ATOM      5  C   UNL     1      32.967 -20.852 -19.852  0.00  0.00    +0.037 C 
ATOM      6  C   UNL     1      33.567 -21.877 -19.122  0.00  0.00    +0.139 C 
ENDROOT
BRANCH   1  14
ATOM      7  O   UNL     1      34.384 -18.019 -24.656  0.00  0.00    -0.275 OA
ATOM      8  N   UNL     1      35.402 -19.506 -23.161  0.00  0.00    -0.302 N 
ATOM      9  C   UNL     1      35.145 -17.348 -22.503  0.00  0.00    +0.081 C 
ATOM     10  C   UNL     1      34.060 -16.403 -22.117  0.00  0.00    +0.108 C 
ATOM     11  C   UNL     1      35.315 -15.897 -22.778  0.00  0.00    +0.021 C 
ATOM     12  C   UNL     1      35.957 -17.980 -21.433  0.00  0.00    +0.033 C 
ATOM     13  C   UNL     1      34.912 -18.287 -23.588  0.00  0.00    +0.222 C 
ATOM     14  C   UNL     1      35.925 -19.478 -21.805  0.00  0.00    +0.095 C 
ATOM     15  H   UNL     1      35.397 -20.316 -23.721  0.00  0.00    +0.150 HD
BRANCH  10  17
ATOM     16  O   UNL     1      34.729 -16.248 -19.875  0.00  0.00    -0.250 OA
ATOM     17  C   UNL     1      33.909 -15.980 -20.741  0.00  0.00    +0.314 C 
BRANCH  17  18
ATOM     18  O   UNL     1      32.775 -15.267 -20.536  0.00  0.00    -0.480 OA
ATOM     19  H   UNL     1      32.259 -15.417 -19.769  0.00  0.00    +0.295 HD
ENDBRANCH  17  18
ENDBRANCH  10  17
ENDBRANCH   1  14
BRANCH   6  20
ATOM     20  O   UNL     1      32.816 -22.641 -18.268  0.00  0.00    -0.471 OA
BRANCH  20  21
ATOM     21  C   UNL     1      33.211 -22.653 -16.903  0.00  0.00    +0.229 C 
BRANCH  21  23
ATOM     22  N   UNL     1      29.901 -24.042 -14.574  0.00  0.00    -0.406 NA
ATOM     23  C   UNL     1      32.077 -23.158 -16.067  0.00  0.00    +0.012 C 
ATOM     24  C   UNL     1      32.278 -24.010 -14.971  0.00  0.00    +0.096 C 
ATOM     25  C   UNL     1      30.795 -22.753 -16.410  0.00  0.00    +0.028 C 
ATOM     26  C   UNL     1      31.146 -24.433 -14.243  0.00  0.00    +0.117 C 
ATOM     27  C   UNL     1      29.751 -23.220 -15.638  0.00  0.00    +0.130 C 
ATOM     28  C   UNL     1      33.564 -24.437 -14.598  0.00  0.00    -0.015 C 
ATOM     29  C   UNL     1      31.347 -25.278 -13.156  0.00  0.00    +0.028 C 
ATOM     30  C   UNL     1      33.735 -25.282 -13.506  0.00  0.00    -0.004 C 
ATOM     31  C   UNL     1      32.625 -25.703 -12.784  0.00  0.00    +0.002 C 
BRANCH  27  32
ATOM     32  C   UNL     1      28.387 -22.847 -15.928  0.00  0.00    +0.030 C 
ATOM     33  C   UNL     1      27.485 -22.632 -14.885  0.00  0.00    +0.003 C 
ATOM     34  C   UNL     1      27.969 -22.702 -17.251  0.00  0.00    +0.003 C 
ATOM     35  C   UNL     1      26.167 -22.270 -15.165  0.00  0.00    +0.000 C 
ATOM     36  C   UNL     1      26.651 -22.341 -17.531  0.00  0.00    +0.000 C 
ATOM     37  C   UNL     1      25.750 -22.126 -16.488  0.00  0.00    +0.000 C 
ENDBRANCH  27  32
ENDBRANCH  21  23
ENDBRANCH  20  21
ENDBRANCH   6  20
TORSDOF 7
ENDMDL
