MODEL 1
REMARK VINA RESULT:     -11.3      0.000      0.000
REMARK  Name = 25113615
REMARK  7 active torsions:
REMARK  status: ('A' for Active; 'I' for Inactive)
REMARK    1  A    between atoms: N_2  and  C_20
REMARK    2  A    between atoms: C_3  and  C_7
REMARK    3  A    between atoms: C_11  and  C_12
REMARK    4  A    between atoms: C_12  and  C_13
REMARK    5  A    between atoms: C_13  and  C_14
REMARK    6  A    between atoms: C_20  and  C_21
REMARK    7  A    between atoms: C_26  and  C_29
REMARK                            x       y       z     vdW  Elec       q    Type
REMARK                         _______ _______ _______ _____ _____    ______ ____
ROOT
ATOM      1  O   UNL     1      35.040 -23.950 -13.015  0.00  0.00    -0.273 OA
ATOM      2  N   UNL     1      33.538 -25.378 -14.076  0.00  0.00    -0.299 N 
ATOM      3  C   UNL     1      34.756 -24.742 -13.911  0.00  0.00    +0.241 C 
ATOM      4  H   UNL     1      33.430 -25.994 -14.837  0.00  0.00    +0.150 HD
ENDROOT
BRANCH   3   7
ATOM      5  O   UNL     1      37.059 -22.039 -16.431  0.00  0.00    -0.275 OA
ATOM      6  N   UNL     1      36.577 -23.976 -15.267  0.00  0.00    -0.273 N 
ATOM      7  C   UNL     1      35.752 -25.142 -14.957  0.00  0.00    +0.152 C 
ATOM      8  C   UNL     1      36.736 -26.168 -14.401  0.00  0.00    +0.031 C 
ATOM      9  C   UNL     1      37.821 -25.306 -13.759  0.00  0.00    +0.024 C 
ATOM     10  C   UNL     1      37.908 -24.108 -14.691  0.00  0.00    +0.094 C 
ATOM     11  C   UNL     1      36.261 -22.923 -16.109  0.00  0.00    +0.226 C 
BRANCH  11  12
ATOM     12  C   UNL     1      34.851 -22.900 -16.643  0.00  0.00    +0.090 C 
BRANCH  12  13
ATOM     13  C   UNL     1      34.827 -23.302 -18.110  0.00  0.00    +0.036 C 
BRANCH  13  14
ATOM     14  C   UNL     1      34.586 -22.141 -19.044  0.00  0.00    -0.022 C 
ATOM     15  C   UNL     1      33.285 -21.707 -19.296  0.00  0.00    -0.004 C 
ATOM     16  C   UNL     1      35.665 -21.503 -19.655  0.00  0.00    -0.004 C 
ATOM     17  C   UNL     1      33.061 -20.634 -20.159  0.00  0.00    -0.000 C 
ATOM     18  C   UNL     1      35.442 -20.430 -20.518  0.00  0.00    -0.000 C 
ATOM     19  C   UNL     1      34.140 -19.995 -20.770  0.00  0.00    -0.000 C 
ENDBRANCH  13  14
ENDBRANCH  12  13
ENDBRANCH  11  12
ENDBRANCH   3   7
BRANCH   2  20
ATOM     20  C   UNL     1      32.417 -25.182 -13.186  0.00  0.00    +0.116 C 
BRANCH  20  21
ATOM     21  C   UNL     1      31.196 -24.703 -13.918  0.00  0.00    -0.003 C 
ATOM     22  C   UNL     1      31.090 -23.364 -14.293  0.00  0.00    -0.003 C 
ATOM     23  C   UNL     1      30.168 -25.597 -14.220  0.00  0.00    -0.003 C 
ATOM     24  C   UNL     1      29.955 -22.918 -14.971  0.00  0.00    +0.002 C 
ATOM     25  C   UNL     1      29.034 -25.150 -14.898  0.00  0.00    +0.002 C 
ATOM     26  C   UNL     1      28.927 -23.811 -15.274  0.00  0.00    +0.031 C 
BRANCH  26  29
ATOM     27  N   UNL     1      26.791 -22.549 -15.354  0.00  0.00    -0.343 N 
ATOM     28  N   UNL     1      27.559 -23.684 -17.245  0.00  0.00    -0.285 NA
ATOM     29  C   UNL     1      27.745 -23.346 -15.982  0.00  0.00    +0.117 C 
ATOM     30  H   UNL     1      25.998 -22.246 -15.851  0.00  0.00    +0.144 HD
ATOM     31  H   UNL     1      26.909 -22.289 -14.412  0.00  0.00    +0.144 HD
ATOM     32  H   UNL     1      26.760 -23.370 -17.726  0.00  0.00    +0.188 HD
ENDBRANCH  26  29
ENDBRANCH  20  21
ENDBRANCH   2  20
TORSDOF 7
ENDMDL
MODEL 2
REMARK VINA RESULT:     -10.7      2.663      6.509
REMARK  Name = 25113615
REMARK  7 active torsions:
REMARK  status: ('A' for Active; 'I' for Inactive)
REMARK    1  A    between atoms: N_2  and  C_20
REMARK    2  A    between atoms: C_3  and  C_7
REMARK    3  A    between atoms: C_11  and  C_12
REMARK    4  A    between atoms: C_12  and  C_13
REMARK    5  A    between atoms: C_13  and  C_14
REMARK    6  A    between atoms: C_20  and  C_21
REMARK    7  A    between atoms: C_26  and  C_29
REMARK                            x       y       z     vdW  Elec       q    Type
REMARK                         _______ _______ _______ _____ _____    ______ ____
ROOT
ATOM      1  O   UNL     1      34.972 -25.225 -15.609  0.00  0.00    -0.273 OA
ATOM      2  N   UNL     1      34.744 -23.060 -16.435  0.00  0.00    -0.299 N 
ATOM      3  C   UNL     1      35.104 -24.009 -15.493  0.00  0.00    +0.241 C 
ATOM      4  H   UNL     1      34.899 -22.110 -16.226  0.00  0.00    +0.150 HD
ENDROOT
BRANCH   3   7
ATOM      5  O   UNL     1      34.738 -25.481 -11.412  0.00  0.00    -0.275 OA
ATOM      6  N   UNL     1      35.704 -24.391 -13.206  0.00  0.00    -0.273 N 
ATOM      7  C   UNL     1      35.719 -23.393 -14.273  0.00  0.00    +0.152 C 
ATOM      8  C   UNL     1      37.199 -23.102 -14.503  0.00  0.00    +0.031 C 
ATOM      9  C   UNL     1      37.881 -24.417 -14.130  0.00  0.00    +0.024 C 
ATOM     10  C   UNL     1      37.038 -24.927 -12.971  0.00  0.00    +0.094 C 
ATOM     11  C   UNL     1      34.642 -24.725 -12.382  0.00  0.00    +0.226 C 
BRANCH  11  12
ATOM     12  C   UNL     1      33.313 -24.102 -12.727  0.00  0.00    +0.090 C 
BRANCH  12  13
ATOM     13  C   UNL     1      32.313 -25.172 -13.142  0.00  0.00    +0.036 C 
BRANCH  13  14
ATOM     14  C   UNL     1      31.279 -24.674 -14.122  0.00  0.00    -0.022 C 
ATOM     15  C   UNL     1      31.563 -23.580 -14.940  0.00  0.00    -0.004 C 
ATOM     16  C   UNL     1      30.039 -25.307 -14.210  0.00  0.00    -0.004 C 
ATOM     17  C   UNL     1      30.608 -23.119 -15.846  0.00  0.00    -0.000 C 
ATOM     18  C   UNL     1      29.084 -24.846 -15.116  0.00  0.00    -0.000 C 
ATOM     19  C   UNL     1      29.368 -23.752 -15.934  0.00  0.00    -0.000 C 
ENDBRANCH  13  14
ENDBRANCH  12  13
ENDBRANCH  11  12
ENDBRANCH   3   7
BRANCH   2  20
ATOM     20  C   UNL     1      34.152 -23.397 -17.709  0.00  0.00    +0.116 C 
BRANCH  20  21
ATOM     21  C   UNL     1      34.360 -22.314 -18.728  0.00  0.00    -0.003 C 
ATOM     22  C   UNL     1      35.653 -21.967 -19.122  0.00  0.00    -0.003 C 
ATOM     23  C   UNL     1      33.262 -21.652 -19.279  0.00  0.00    -0.003 C 
ATOM     24  C   UNL     1      35.847 -20.959 -20.067  0.00  0.00    +0.002 C 
ATOM     25  C   UNL     1      33.457 -20.645 -20.224  0.00  0.00    +0.002 C 
ATOM     26  C   UNL     1      34.750 -20.298 -20.618  0.00  0.00    +0.031 C 
BRANCH  26  29
ATOM     27  N   UNL     1      35.278 -17.949 -21.222  0.00  0.00    -0.343 N 
ATOM     28  N   UNL     1      34.826 -19.521 -22.890  0.00  0.00    -0.285 NA
ATOM     29  C   UNL     1      34.953 -19.249 -21.604  0.00  0.00    +0.117 C 
ATOM     30  H   UNL     1      35.410 -17.253 -21.906  0.00  0.00    +0.144 HD
ATOM     31  H   UNL     1      35.373 -17.725 -20.269  0.00  0.00    +0.144 HD
ATOM     32  H   UNL     1      34.963 -18.812 -23.559  0.00  0.00    +0.188 HD
ENDBRANCH  26  29
ENDBRANCH  20  21
ENDBRANCH   2  20
TORSDOF 7
ENDMDL
MODEL 3
REMARK VINA RESULT:     -10.4      8.356     12.186
REMARK  Name = 25113615
REMARK  7 active torsions:
REMARK  status: ('A' for Active; 'I' for Inactive)
REMARK    1  A    between atoms: N_2  and  C_20
REMARK    2  A    between atoms: C_3  and  C_7
REMARK    3  A    between atoms: C_11  and  C_12
REMARK    4  A    between atoms: C_12  and  C_13
REMARK    5  A    between atoms: C_13  and  C_14
REMARK    6  A    between atoms: C_20  and  C_21
REMARK    7  A    between atoms: C_26  and  C_29
REMARK                            x       y       z     vdW  Elec       q    Type
REMARK                         _______ _______ _______ _____ _____    ______ ____
ROOT
ATOM      1  O   UNL     1      33.545 -15.893 -20.914  0.00  0.00    -0.273 OA
ATOM      2  N   UNL     1      33.031 -13.880 -21.966  0.00  0.00    -0.299 N 
ATOM      3  C   UNL     1      33.724 -15.068 -21.807  0.00  0.00    +0.241 C 
ATOM      4  H   UNL     1      33.266 -13.298 -22.725  0.00  0.00    +0.150 HD
ENDROOT
BRANCH   3   7
ATOM      5  O   UNL     1      34.686 -18.858 -23.721  0.00  0.00    -0.275 OA
ATOM      6  N   UNL     1      34.469 -16.566 -23.521  0.00  0.00    -0.273 N 
ATOM      7  C   UNL     1      34.743 -15.280 -22.885  0.00  0.00    +0.152 C 
ATOM      8  C   UNL     1      34.566 -14.256 -24.004  0.00  0.00    +0.031 C 
ATOM      9  C   UNL     1      33.528 -14.905 -24.917  0.00  0.00    +0.024 C 
ATOM     10  C   UNL     1      33.874 -16.383 -24.839  0.00  0.00    +0.094 C 
ATOM     11  C   UNL     1      34.832 -17.823 -23.067  0.00  0.00    +0.226 C 
BRANCH  11  12
ATOM     12  C   UNL     1      35.440 -17.880 -21.688  0.00  0.00    +0.090 C 
BRANCH  12  13
ATOM     13  C   UNL     1      36.140 -19.213 -21.466  0.00  0.00    +0.036 C 
BRANCH  13  14
ATOM     14  C   UNL     1      35.332 -20.181 -20.636  0.00  0.00    -0.022 C 
ATOM     15  C   UNL     1      35.977 -21.159 -19.881  0.00  0.00    -0.004 C 
ATOM     16  C   UNL     1      33.940 -20.096 -20.625  0.00  0.00    -0.004 C 
ATOM     17  C   UNL     1      35.231 -22.054 -19.113  0.00  0.00    -0.000 C 
ATOM     18  C   UNL     1      33.194 -20.991 -19.858  0.00  0.00    -0.000 C 
ATOM     19  C   UNL     1      33.839 -21.970 -19.102  0.00  0.00    -0.000 C 
ENDBRANCH  13  14
ENDBRANCH  12  13
ENDBRANCH  11  12
ENDBRANCH   3   7
BRANCH   2  20
ATOM     20  C   UNL     1      31.979 -13.453 -21.072  0.00  0.00    +0.116 C 
BRANCH  20  21
ATOM     21  C   UNL     1      32.023 -11.973 -20.821  0.00  0.00    -0.003 C 
ATOM     22  C   UNL     1      32.121 -11.087 -21.894  0.00  0.00    -0.003 C 
ATOM     23  C   UNL     1      31.969 -11.484 -19.515  0.00  0.00    -0.003 C 
ATOM     24  C   UNL     1      32.165  -9.712 -21.661  0.00  0.00    +0.002 C 
ATOM     25  C   UNL     1      32.012 -10.110 -19.283  0.00  0.00    +0.002 C 
ATOM     26  C   UNL     1      32.110  -9.224 -20.356  0.00  0.00    +0.031 C 
BRANCH  26  29
ATOM     27  N   UNL     1      31.292  -6.917 -20.774  0.00  0.00    -0.343 N 
ATOM     28  N   UNL     1      33.027  -7.294 -19.255  0.00  0.00    -0.285 NA
ATOM     29  C   UNL     1      32.154  -7.790 -20.114  0.00  0.00    +0.117 C 
ATOM     30  H   UNL     1      31.340  -5.950 -20.596  0.00  0.00    +0.144 HD
ATOM     31  H   UNL     1      30.637  -7.266 -21.420  0.00  0.00    +0.144 HD
ATOM     32  H   UNL     1      33.058  -6.325 -19.090  0.00  0.00    +0.188 HD
ENDBRANCH  26  29
ENDBRANCH  20  21
ENDBRANCH   2  20
TORSDOF 7
ENDMDL
MODEL 4
REMARK VINA RESULT:     -10.2      8.238     12.058
REMARK  Name = 25113615
REMARK  7 active torsions:
REMARK  status: ('A' for Active; 'I' for Inactive)
REMARK    1  A    between atoms: N_2  and  C_20
REMARK    2  A    between atoms: C_3  and  C_7
REMARK    3  A    between atoms: C_11  and  C_12
REMARK    4  A    between atoms: C_12  and  C_13
REMARK    5  A    between atoms: C_13  and  C_14
REMARK    6  A    between atoms: C_20  and  C_21
REMARK    7  A    between atoms: C_26  and  C_29
REMARK                            x       y       z     vdW  Elec       q    Type
REMARK                         _______ _______ _______ _____ _____    ______ ____
ROOT
ATOM      1  O   UNL     1      33.740 -15.992 -20.868  0.00  0.00    -0.273 OA
ATOM      2  N   UNL     1      33.066 -14.088 -22.027  0.00  0.00    -0.299 N 
ATOM      3  C   UNL     1      33.836 -15.219 -21.819  0.00  0.00    +0.241 C 
ATOM      4  H   UNL     1      33.238 -13.545 -22.830  0.00  0.00    +0.150 HD
ENDROOT
BRANCH   3   7
ATOM      5  O   UNL     1      34.718 -19.017 -23.756  0.00  0.00    -0.275 OA
ATOM      6  N   UNL     1      34.527 -16.724 -23.550  0.00  0.00    -0.273 N 
ATOM      7  C   UNL     1      34.828 -15.440 -22.920  0.00  0.00    +0.152 C 
ATOM      8  C   UNL     1      34.636 -14.415 -24.034  0.00  0.00    +0.031 C 
ATOM      9  C   UNL     1      33.571 -15.053 -24.924  0.00  0.00    +0.024 C 
ATOM     10  C   UNL     1      33.905 -16.535 -24.854  0.00  0.00    +0.094 C 
ATOM     11  C   UNL     1      34.889 -17.984 -23.104  0.00  0.00    +0.226 C 
BRANCH  11  12
ATOM     12  C   UNL     1      35.527 -18.048 -21.740  0.00  0.00    +0.090 C 
BRANCH  12  13
ATOM     13  C   UNL     1      36.131 -19.423 -21.495  0.00  0.00    +0.036 C 
BRANCH  13  14
ATOM     14  C   UNL     1      35.267 -20.308 -20.630  0.00  0.00    -0.022 C 
ATOM     15  C   UNL     1      33.880 -20.156 -20.642  0.00  0.00    -0.004 C 
ATOM     16  C   UNL     1      35.854 -21.278 -19.819  0.00  0.00    -0.004 C 
ATOM     17  C   UNL     1      33.080 -20.974 -19.843  0.00  0.00    -0.000 C 
ATOM     18  C   UNL     1      35.055 -22.096 -19.019  0.00  0.00    -0.000 C 
ATOM     19  C   UNL     1      33.668 -21.944 -19.032  0.00  0.00    -0.000 C 
ENDBRANCH  13  14
ENDBRANCH  12  13
ENDBRANCH  11  12
ENDBRANCH   3   7
BRANCH   2  20
ATOM     20  C   UNL     1      32.021 -13.667 -21.122  0.00  0.00    +0.116 C 
BRANCH  20  21
ATOM     21  C   UNL     1      32.018 -12.178 -20.922  0.00  0.00    -0.003 C 
ATOM     22  C   UNL     1      31.853 -11.647 -19.643  0.00  0.00    -0.003 C 
ATOM     23  C   UNL     1      32.179 -11.326 -22.016  0.00  0.00    -0.003 C 
ATOM     24  C   UNL     1      31.847 -10.264 -19.458  0.00  0.00    +0.002 C 
ATOM     25  C   UNL     1      32.175  -9.944 -21.830  0.00  0.00    +0.002 C 
ATOM     26  C   UNL     1      32.009  -9.413 -20.550  0.00  0.00    +0.031 C 
BRANCH  26  29
ATOM     27  N   UNL     1      32.686  -7.382 -19.294  0.00  0.00    -0.343 N 
ATOM     28  N   UNL     1      31.342  -7.196 -21.196  0.00  0.00    -0.285 NA
ATOM     29  C   UNL     1      32.005  -7.972 -20.356  0.00  0.00    +0.117 C 
ATOM     30  H   UNL     1      32.670  -6.404 -19.181  0.00  0.00    +0.144 HD
ATOM     31  H   UNL     1      33.183  -7.942 -18.656  0.00  0.00    +0.144 HD
ATOM     32  H   UNL     1      31.338  -6.221 -21.066  0.00  0.00    +0.188 HD
ENDBRANCH  26  29
ENDBRANCH  20  21
ENDBRANCH   2  20
TORSDOF 7
ENDMDL
MODEL 5
REMARK VINA RESULT:     -10.0      2.504      6.105
REMARK  Name = 25113615
REMARK  7 active torsions:
REMARK  status: ('A' for Active; 'I' for Inactive)
REMARK    1  A    between atoms: N_2  and  C_20
REMARK    2  A    between atoms: C_3  and  C_7
REMARK    3  A    between atoms: C_11  and  C_12
REMARK    4  A    between atoms: C_12  and  C_13
REMARK    5  A    between atoms: C_13  and  C_14
REMARK    6  A    between atoms: C_20  and  C_21
REMARK    7  A    between atoms: C_26  and  C_29
REMARK                            x       y       z     vdW  Elec       q    Type
REMARK                         _______ _______ _______ _____ _____    ______ ____
ROOT
ATOM      1  O   UNL     1      36.862 -24.952 -14.808  0.00  0.00    -0.273 OA
ATOM      2  N   UNL     1      36.975 -22.679 -15.301  0.00  0.00    -0.299 N 
ATOM      3  C   UNL     1      36.704 -23.773 -14.497  0.00  0.00    +0.241 C 
ATOM      4  H   UNL     1      36.806 -21.779 -14.939  0.00  0.00    +0.150 HD
ENDROOT
BRANCH   3   7
ATOM      5  O   UNL     1      33.061 -25.203 -12.590  0.00  0.00    -0.275 OA
ATOM      6  N   UNL     1      35.208 -24.359 -12.720  0.00  0.00    -0.273 N 
ATOM      7  C   UNL     1      36.199 -23.373 -13.144  0.00  0.00    +0.152 C 
ATOM      8  C   UNL     1      37.309 -23.476 -12.102  0.00  0.00    +0.031 C 
ATOM      9  C   UNL     1      37.237 -24.933 -11.650  0.00  0.00    +0.024 C 
ATOM     10  C   UNL     1      35.747 -25.233 -11.687  0.00  0.00    +0.094 C 
ATOM     11  C   UNL     1      33.875 -24.424 -13.091  0.00  0.00    +0.226 C 
BRANCH  11  12
ATOM     12  C   UNL     1      33.438 -23.465 -14.169  0.00  0.00    +0.090 C 
BRANCH  12  13
ATOM     13  C   UNL     1      32.819 -24.219 -15.337  0.00  0.00    +0.036 C 
BRANCH  13  14
ATOM     14  C   UNL     1      31.315 -24.102 -15.393  0.00  0.00    -0.022 C 
ATOM     15  C   UNL     1      30.519 -25.009 -14.695  0.00  0.00    -0.004 C 
ATOM     16  C   UNL     1      30.722 -23.087 -16.144  0.00  0.00    -0.004 C 
ATOM     17  C   UNL     1      29.128 -24.902 -14.746  0.00  0.00    -0.000 C 
ATOM     18  C   UNL     1      29.333 -22.980 -16.195  0.00  0.00    -0.000 C 
ATOM     19  C   UNL     1      28.536 -23.887 -15.496  0.00  0.00    -0.000 C 
ENDBRANCH  13  14
ENDBRANCH  12  13
ENDBRANCH  11  12
ENDBRANCH   3   7
BRANCH   2  20
ATOM     20  C   UNL     1      37.495 -22.795 -16.644  0.00  0.00    +0.116 C 
BRANCH  20  21
ATOM     21  C   UNL     1      36.534 -22.257 -17.665  0.00  0.00    -0.003 C 
ATOM     22  C   UNL     1      36.993 -21.414 -18.677  0.00  0.00    -0.003 C 
ATOM     23  C   UNL     1      35.182 -22.597 -17.600  0.00  0.00    -0.003 C 
ATOM     24  C   UNL     1      36.100 -20.911 -19.624  0.00  0.00    +0.002 C 
ATOM     25  C   UNL     1      34.290 -22.095 -18.548  0.00  0.00    +0.002 C 
ATOM     26  C   UNL     1      34.750 -21.252 -19.560  0.00  0.00    +0.031 C 
BRANCH  26  29
ATOM     27  N   UNL     1      34.270 -20.052 -21.680  0.00  0.00    -0.343 N 
ATOM     28  N   UNL     1      32.520 -20.889 -20.379  0.00  0.00    -0.285 NA
ATOM     29  C   UNL     1      33.820 -20.729 -20.549  0.00  0.00    +0.117 C 
ATOM     30  H   UNL     1      33.623 -19.706 -22.336  0.00  0.00    +0.144 HD
ATOM     31  H   UNL     1      35.235 -19.920 -21.824  0.00  0.00    +0.144 HD
ATOM     32  H   UNL     1      31.889 -20.536 -21.046  0.00  0.00    +0.188 HD
ENDBRANCH  26  29
ENDBRANCH  20  21
ENDBRANCH   2  20
TORSDOF 7
ENDMDL
MODEL 6
REMARK VINA RESULT:      -9.7      3.179      7.521
REMARK  Name = 25113615
REMARK  7 active torsions:
REMARK  status: ('A' for Active; 'I' for Inactive)
REMARK    1  A    between atoms: N_2  and  C_20
REMARK    2  A    between atoms: C_3  and  C_7
REMARK    3  A    between atoms: C_11  and  C_12
REMARK    4  A    between atoms: C_12  and  C_13
REMARK    5  A    between atoms: C_13  and  C_14
REMARK    6  A    between atoms: C_20  and  C_21
REMARK    7  A    between atoms: C_26  and  C_29
REMARK                            x       y       z     vdW  Elec       q    Type
REMARK                         _______ _______ _______ _____ _____    ______ ____
ROOT
ATOM      1  O   UNL     1      34.399 -23.167 -17.338  0.00  0.00    -0.273 OA
ATOM      2  N   UNL     1      36.288 -22.075 -18.151  0.00  0.00    -0.299 N 
ATOM      3  C   UNL     1      35.460 -22.572 -17.159  0.00  0.00    +0.241 C 
ATOM      4  H   UNL     1      37.116 -21.615 -17.883  0.00  0.00    +0.150 HD
ENDROOT
BRANCH   3   7
ATOM      5  O   UNL     1      34.970 -25.174 -13.703  0.00  0.00    -0.275 OA
ATOM      6  N   UNL     1      35.978 -23.596 -15.057  0.00  0.00    -0.273 N 
ATOM      7  C   UNL     1      36.010 -22.331 -15.786  0.00  0.00    +0.152 C 
ATOM      8  C   UNL     1      37.490 -21.966 -15.854  0.00  0.00    +0.031 C 
ATOM      9  C   UNL     1      38.190 -23.323 -15.849  0.00  0.00    +0.024 C 
ATOM     10  C   UNL     1      37.316 -24.160 -14.928  0.00  0.00    +0.094 C 
ATOM     11  C   UNL     1      34.894 -24.170 -14.415  0.00  0.00    +0.226 C 
BRANCH  11  12
ATOM     12  C   UNL     1      33.563 -23.492 -14.625  0.00  0.00    +0.090 C 
BRANCH  12  13
ATOM     13  C   UNL     1      32.548 -23.977 -13.601  0.00  0.00    +0.036 C 
BRANCH  13  14
ATOM     14  C   UNL     1      31.165 -24.167 -14.176  0.00  0.00    -0.022 C 
ATOM     15  C   UNL     1      30.540 -23.118 -14.849  0.00  0.00    -0.004 C 
ATOM     16  C   UNL     1      30.513 -25.392 -14.034  0.00  0.00    -0.004 C 
ATOM     17  C   UNL     1      29.262 -23.293 -15.382  0.00  0.00    -0.000 C 
ATOM     18  C   UNL     1      29.235 -25.567 -14.565  0.00  0.00    -0.000 C 
ATOM     19  C   UNL     1      28.609 -24.517 -15.239  0.00  0.00    -0.000 C 
ENDBRANCH  13  14
ENDBRANCH  12  13
ENDBRANCH  11  12
ENDBRANCH   3   7
BRANCH   2  20
ATOM     20  C   UNL     1      35.996 -22.200 -19.561  0.00  0.00    +0.116 C 
BRANCH  20  21
ATOM     21  C   UNL     1      35.785 -20.862 -20.210  0.00  0.00    -0.003 C 
ATOM     22  C   UNL     1      36.881 -20.055 -20.515  0.00  0.00    -0.003 C 
ATOM     23  C   UNL     1      34.493 -20.425 -20.507  0.00  0.00    -0.003 C 
ATOM     24  C   UNL     1      36.686 -18.811 -21.116  0.00  0.00    +0.002 C 
ATOM     25  C   UNL     1      34.298 -19.182 -21.108  0.00  0.00    +0.002 C 
ATOM     26  C   UNL     1      35.395 -18.375 -21.413  0.00  0.00    +0.031 C 
BRANCH  26  29
ATOM     27  N   UNL     1      35.560 -16.850 -23.364  0.00  0.00    -0.343 N 
ATOM     28  N   UNL     1      34.652 -16.091 -21.350  0.00  0.00    -0.285 NA
ATOM     29  C   UNL     1      35.192 -17.079 -22.040  0.00  0.00    +0.117 C 
ATOM     30  H   UNL     1      35.414 -15.964 -23.769  0.00  0.00    +0.144 HD
ATOM     31  H   UNL     1      35.967 -17.572 -23.895  0.00  0.00    +0.144 HD
ATOM     32  H   UNL     1      34.514 -15.213 -21.773  0.00  0.00    +0.188 HD
ENDBRANCH  26  29
ENDBRANCH  20  21
ENDBRANCH   2  20
TORSDOF 7
ENDMDL
MODEL 7
REMARK VINA RESULT:      -9.7      9.047     12.946
REMARK  Name = 25113615
REMARK  7 active torsions:
REMARK  status: ('A' for Active; 'I' for Inactive)
REMARK    1  A    between atoms: N_2  and  C_20
REMARK    2  A    between atoms: C_3  and  C_7
REMARK    3  A    between atoms: C_11  and  C_12
REMARK    4  A    between atoms: C_12  and  C_13
REMARK    5  A    between atoms: C_13  and  C_14
REMARK    6  A    between atoms: C_20  and  C_21
REMARK    7  A    between atoms: C_26  and  C_29
REMARK                            x       y       z     vdW  Elec       q    Type
REMARK                         _______ _______ _______ _____ _____    ______ ____
ROOT
ATOM      1  O   UNL     1      33.047 -15.349 -21.631  0.00  0.00    -0.273 OA
ATOM      2  N   UNL     1      33.010 -13.088 -22.185  0.00  0.00    -0.299 N 
ATOM      3  C   UNL     1      33.437 -14.399 -22.305  0.00  0.00    +0.241 C 
ATOM      4  H   UNL     1      33.398 -12.411 -22.786  0.00  0.00    +0.150 HD
ENDROOT
BRANCH   3   7
ATOM      5  O   UNL     1      34.515 -18.143 -24.247  0.00  0.00    -0.275 OA
ATOM      6  N   UNL     1      34.214 -15.862 -24.036  0.00  0.00    -0.273 N 
ATOM      7  C   UNL     1      34.448 -14.568 -23.399  0.00  0.00    +0.152 C 
ATOM      8  C   UNL     1      34.216 -13.549 -24.511  0.00  0.00    +0.031 C 
ATOM      9  C   UNL     1      33.191 -14.234 -25.412  0.00  0.00    +0.024 C 
ATOM     10  C   UNL     1      33.594 -15.698 -25.344  0.00  0.00    +0.094 C 
ATOM     11  C   UNL     1      34.631 -17.106 -23.591  0.00  0.00    +0.226 C 
BRANCH  11  12
ATOM     12  C   UNL     1      35.260 -17.144 -22.221  0.00  0.00    +0.090 C 
BRANCH  12  13
ATOM     13  C   UNL     1      36.215 -18.323 -22.103  0.00  0.00    +0.036 C 
BRANCH  13  14
ATOM     14  C   UNL     1      35.700 -19.420 -21.204  0.00  0.00    -0.022 C 
ATOM     15  C   UNL     1      36.595 -20.200 -20.472  0.00  0.00    -0.004 C 
ATOM     16  C   UNL     1      34.328 -19.656 -21.107  0.00  0.00    -0.004 C 
ATOM     17  C   UNL     1      36.119 -21.214 -19.640  0.00  0.00    -0.000 C 
ATOM     18  C   UNL     1      33.853 -20.670 -20.276  0.00  0.00    -0.000 C 
ATOM     19  C   UNL     1      34.748 -21.450 -19.543  0.00  0.00    -0.000 C 
ENDBRANCH  13  14
ENDBRANCH  12  13
ENDBRANCH  11  12
ENDBRANCH   3   7
BRANCH   2  20
ATOM     20  C   UNL     1      32.020 -12.665 -21.221  0.00  0.00    +0.116 C 
BRANCH  20  21
ATOM     21  C   UNL     1      31.947 -11.169 -21.111  0.00  0.00    -0.003 C 
ATOM     22  C   UNL     1      32.059 -10.380 -22.257  0.00  0.00    -0.003 C 
ATOM     23  C   UNL     1      31.770 -10.567 -19.865  0.00  0.00    -0.003 C 
ATOM     24  C   UNL     1      31.994  -8.990 -22.156  0.00  0.00    +0.002 C 
ATOM     25  C   UNL     1      31.705  -9.177 -19.765  0.00  0.00    +0.002 C 
ATOM     26  C   UNL     1      31.816  -8.389 -20.910  0.00  0.00    +0.031 C 
BRANCH  26  29
ATOM     27  N   UNL     1      32.687  -6.221 -20.071  0.00  0.00    -0.343 N 
ATOM     28  N   UNL     1      30.775  -6.282 -21.412  0.00  0.00    -0.285 NA
ATOM     29  C   UNL     1      31.747  -6.940 -20.806  0.00  0.00    +0.117 C 
ATOM     30  H   UNL     1      32.621  -5.240 -20.013  0.00  0.00    +0.144 HD
ATOM     31  H   UNL     1      33.417  -6.692 -19.609  0.00  0.00    +0.144 HD
ATOM     32  H   UNL     1      30.726  -5.302 -21.342  0.00  0.00    +0.188 HD
ENDBRANCH  26  29
ENDBRANCH  20  21
ENDBRANCH   2  20
TORSDOF 7
ENDMDL
MODEL 8
REMARK VINA RESULT:      -9.6     11.217     15.152
REMARK  Name = 25113615
REMARK  7 active torsions:
REMARK  status: ('A' for Active; 'I' for Inactive)
REMARK    1  A    between atoms: N_2  and  C_20
REMARK    2  A    between atoms: C_3  and  C_7
REMARK    3  A    between atoms: C_11  and  C_12
REMARK    4  A    between atoms: C_12  and  C_13
REMARK    5  A    between atoms: C_13  and  C_14
REMARK    6  A    between atoms: C_20  and  C_21
REMARK    7  A    between atoms: C_26  and  C_29
REMARK                            x       y       z     vdW  Elec       q    Type
REMARK                         _______ _______ _______ _____ _____    ______ ____
ROOT
ATOM      1  O   UNL     1      33.735 -12.021 -23.338  0.00  0.00    -0.273 OA
ATOM      2  N   UNL     1      32.530 -10.242 -22.441  0.00  0.00    -0.299 N 
ATOM      3  C   UNL     1      32.793 -11.579 -22.683  0.00  0.00    +0.241 C 
ATOM      4  H   UNL     1      31.741 -10.010 -21.899  0.00  0.00    +0.150 HD
ENDROOT
BRANCH   3   7
ATOM      5  O   UNL     1      33.705 -15.078 -20.258  0.00  0.00    -0.275 OA
ATOM      6  N   UNL     1      32.492 -13.257 -21.000  0.00  0.00    -0.273 N 
ATOM      7  C   UNL     1      31.795 -12.483 -22.025  0.00  0.00    +0.152 C 
ATOM      8  C   UNL     1      30.760 -11.671 -21.252  0.00  0.00    +0.031 C 
ATOM      9  C   UNL     1      31.414 -11.471 -19.886  0.00  0.00    +0.024 C 
ATOM     10  C   UNL     1      32.160 -12.777 -19.665  0.00  0.00    +0.094 C 
ATOM     11  C   UNL     1      33.257 -14.397 -21.183  0.00  0.00    +0.226 C 
BRANCH  11  12
ATOM     12  C   UNL     1      33.529 -14.792 -22.613  0.00  0.00    +0.090 C 
BRANCH  12  13
ATOM     13  C   UNL     1      34.926 -15.379 -22.749  0.00  0.00    +0.036 C 
BRANCH  13  14
ATOM     14  C   UNL     1      34.929 -16.879 -22.915  0.00  0.00    -0.022 C 
ATOM     15  C   UNL     1      35.288 -17.698 -21.844  0.00  0.00    -0.004 C 
ATOM     16  C   UNL     1      34.574 -17.446 -24.138  0.00  0.00    -0.004 C 
ATOM     17  C   UNL     1      35.291 -19.085 -21.996  0.00  0.00    -0.000 C 
ATOM     18  C   UNL     1      34.578 -18.833 -24.291  0.00  0.00    -0.000 C 
ATOM     19  C   UNL     1      34.936 -19.652 -23.220  0.00  0.00    -0.000 C 
ENDBRANCH  13  14
ENDBRANCH  12  13
ENDBRANCH  11  12
ENDBRANCH   3   7
BRANCH   2  20
ATOM     20  C   UNL     1      33.357  -9.169 -22.944  0.00  0.00    +0.116 C 
BRANCH  20  21
ATOM     21  C   UNL     1      32.636  -7.852 -22.934  0.00  0.00    -0.003 C 
ATOM     22  C   UNL     1      33.193  -6.748 -23.579  0.00  0.00    -0.003 C 
ATOM     23  C   UNL     1      31.410  -7.732 -22.278  0.00  0.00    -0.003 C 
ATOM     24  C   UNL     1      32.525  -5.523 -23.567  0.00  0.00    +0.002 C 
ATOM     25  C   UNL     1      30.742  -6.508 -22.267  0.00  0.00    +0.002 C 
ATOM     26  C   UNL     1      31.300  -5.403 -22.911  0.00  0.00    +0.031 C 
BRANCH  26  29
ATOM     27  N   UNL     1      30.496  -3.350 -24.053  0.00  0.00    -0.343 N 
ATOM     28  N   UNL     1      30.060  -3.683 -21.781  0.00  0.00    -0.285 NA
ATOM     29  C   UNL     1      30.603  -4.127 -22.901  0.00  0.00    +0.117 C 
ATOM     30  H   UNL     1      30.020  -2.489 -24.023  0.00  0.00    +0.144 HD
ATOM     31  H   UNL     1      30.896  -3.662 -24.896  0.00  0.00    +0.144 HD
ATOM     32  H   UNL     1      29.588  -2.819 -21.772  0.00  0.00    +0.188 HD
ENDBRANCH  26  29
ENDBRANCH  20  21
ENDBRANCH   2  20
TORSDOF 7
ENDMDL
MODEL 9
REMARK VINA RESULT:      -9.6     11.251     15.222
REMARK  Name = 25113615
REMARK  7 active torsions:
REMARK  status: ('A' for Active; 'I' for Inactive)
REMARK    1  A    between atoms: N_2  and  C_20
REMARK    2  A    between atoms: C_3  and  C_7
REMARK    3  A    between atoms: C_11  and  C_12
REMARK    4  A    between atoms: C_12  and  C_13
REMARK    5  A    between atoms: C_13  and  C_14
REMARK    6  A    between atoms: C_20  and  C_21
REMARK    7  A    between atoms: C_26  and  C_29
REMARK                            x       y       z     vdW  Elec       q    Type
REMARK                         _______ _______ _______ _____ _____    ______ ____
ROOT
ATOM      1  O   UNL     1      33.812 -12.025 -23.330  0.00  0.00    -0.273 OA
ATOM      2  N   UNL     1      32.604 -10.218 -22.497  0.00  0.00    -0.299 N 
ATOM      3  C   UNL     1      32.856 -11.562 -22.712  0.00  0.00    +0.241 C 
ATOM      4  H   UNL     1      31.801  -9.968 -21.985  0.00  0.00    +0.150 HD
ENDROOT
BRANCH   3   7
ATOM      5  O   UNL     1      33.640 -15.092 -20.288  0.00  0.00    -0.275 OA
ATOM      6  N   UNL     1      32.485 -13.238 -21.042  0.00  0.00    -0.273 N 
ATOM      7  C   UNL     1      31.825 -12.443 -22.075  0.00  0.00    +0.152 C 
ATOM      8  C   UNL     1      30.798 -11.608 -21.314  0.00  0.00    +0.031 C 
ATOM      9  C   UNL     1      31.435 -11.430 -19.938  0.00  0.00    +0.024 C 
ATOM     10  C   UNL     1      32.144 -12.756 -19.711  0.00  0.00    +0.094 C 
ATOM     11  C   UNL     1      33.224 -14.396 -21.218  0.00  0.00    +0.226 C 
BRANCH  11  12
ATOM     12  C   UNL     1      33.509 -14.792 -22.645  0.00  0.00    +0.090 C 
BRANCH  12  13
ATOM     13  C   UNL     1      34.911 -15.370 -22.770  0.00  0.00    +0.036 C 
BRANCH  13  14
ATOM     14  C   UNL     1      34.926 -16.871 -22.925  0.00  0.00    -0.022 C 
ATOM     15  C   UNL     1      34.582 -17.450 -24.146  0.00  0.00    -0.004 C 
ATOM     16  C   UNL     1      35.282 -17.680 -21.846  0.00  0.00    -0.004 C 
ATOM     17  C   UNL     1      34.596 -18.838 -24.290  0.00  0.00    -0.000 C 
ATOM     18  C   UNL     1      35.295 -19.068 -21.989  0.00  0.00    -0.000 C 
ATOM     19  C   UNL     1      34.952 -19.647 -23.211  0.00  0.00    -0.000 C 
ENDBRANCH  13  14
ENDBRANCH  12  13
ENDBRANCH  11  12
ENDBRANCH   3   7
BRANCH   2  20
ATOM     20  C   UNL     1      33.462  -9.164 -22.989  0.00  0.00    +0.116 C 
BRANCH  20  21
ATOM     21  C   UNL     1      32.765  -7.834 -23.001  0.00  0.00    -0.003 C 
ATOM     22  C   UNL     1      31.534  -7.686 -22.362  0.00  0.00    -0.003 C 
ATOM     23  C   UNL     1      33.347  -6.746 -23.653  0.00  0.00    -0.003 C 
ATOM     24  C   UNL     1      30.885  -6.451 -22.375  0.00  0.00    +0.002 C 
ATOM     25  C   UNL     1      32.698  -5.511 -23.666  0.00  0.00    +0.002 C 
ATOM     26  C   UNL     1      31.467  -5.364 -23.027  0.00  0.00    +0.031 C 
BRANCH  26  29
ATOM     27  N   UNL     1      30.836  -3.245 -24.156  0.00  0.00    -0.343 N 
ATOM     28  N   UNL     1      30.121  -3.675 -21.973  0.00  0.00    -0.285 NA
ATOM     29  C   UNL     1      30.791  -4.077 -23.039  0.00  0.00    +0.117 C 
ATOM     30  H   UNL     1      30.371  -2.377 -24.142  0.00  0.00    +0.144 HD
ATOM     31  H   UNL     1      31.332  -3.524 -24.958  0.00  0.00    +0.144 HD
ATOM     32  H   UNL     1      29.663  -2.804 -21.979  0.00  0.00    +0.188 HD
ENDBRANCH  26  29
ENDBRANCH  20  21
ENDBRANCH   2  20
TORSDOF 7
ENDMDL
