MODEL 1
REMARK VINA RESULT:     -12.2      0.000      0.000
REMARK  Name = 5288607
REMARK  4 active torsions:
REMARK  status: ('A' for Active; 'I' for Inactive)
REMARK    1  A    between atoms: N_2  and  C_19
REMARK    2  A    between atoms: C_3  and  C_6
REMARK    3  A    between atoms: C_5  and  C_16
REMARK    4  A    between atoms: C_19  and  C_21
REMARK                            x       y       z     vdW  Elec       q    Type
REMARK                         _______ _______ _______ _____ _____    ______ ____
ROOT
ATOM      1  O   UNL     1      34.756 -16.666 -25.670  0.00  0.00    -0.270 OA
ATOM      2  N   UNL     1      33.615 -15.107 -24.379  0.00  0.00    -0.270 N 
ATOM      3  C   UNL     1      34.448 -16.212 -24.567  0.00  0.00    +0.249 C 
ATOM      4  C   UNL     1      33.058 -14.425 -25.541  0.00  0.00    +0.116 C 
ENDROOT
BRANCH   3   6
ATOM      5  C   UNL     1      35.033 -18.224 -23.259  0.00  0.00    +0.006 C 
ATOM      6  C   UNL     1      34.952 -16.874 -23.326  0.00  0.00    +0.058 C 
BRANCH   5  16
ATOM      7  O   UNL     1      36.575 -22.625 -17.128  0.00  0.00    -0.275 OA
ATOM      8  N   UNL     1      36.859 -21.066 -18.789  0.00  0.00    -0.270 N 
ATOM      9  N   UNL     1      37.235 -19.510 -20.532  0.00  0.00    -0.229 NA
ATOM     10  C   UNL     1      34.152 -21.448 -19.541  0.00  0.00    +0.039 C 
ATOM     11  C   UNL     1      35.071 -20.570 -20.336  0.00  0.00    +0.010 C 
ATOM     12  C   UNL     1      34.927 -22.571 -18.867  0.00  0.00    +0.090 C 
ATOM     13  C   UNL     1      36.387 -20.370 -19.919  0.00  0.00    +0.130 C 
ATOM     14  C   UNL     1      34.618 -19.852 -21.443  0.00  0.00    +0.000 C 
ATOM     15  C   UNL     1      36.170 -22.080 -18.155  0.00  0.00    +0.227 C 
ATOM     16  C   UNL     1      35.476 -18.980 -22.101  0.00  0.00    +0.019 C 
ATOM     17  C   UNL     1      36.762 -18.844 -21.608  0.00  0.00    +0.100 C 
ATOM     18  H   UNL     1      37.739 -20.812 -18.429  0.00  0.00    +0.156 HD
ENDBRANCH   5  16
ENDBRANCH   3   6
BRANCH   2  19
ATOM     19  C   UNL     1      33.208 -14.572 -23.081  0.00  0.00    +0.122 C 
BRANCH  19  21
ATOM     20  N   UNL     1      34.001 -11.045 -23.593  0.00  0.00    -0.284 N 
ATOM     21  C   UNL     1      33.334 -13.087 -23.089  0.00  0.00    +0.014 C 
ATOM     22  C   UNL     1      32.602 -12.185 -22.281  0.00  0.00    +0.013 C 
ATOM     23  C   UNL     1      33.041 -10.902 -22.617  0.00  0.00    +0.051 C 
ATOM     24  C   UNL     1      34.185 -12.370 -23.884  0.00  0.00    +0.063 C 
ATOM     25  C   UNL     1      31.606 -12.324 -21.294  0.00  0.00    +0.001 C 
ATOM     26  C   UNL     1      32.530  -9.747 -22.013  0.00  0.00    +0.015 C 
ATOM     27  C   UNL     1      34.721  -9.961 -24.228  0.00  0.00    +0.117 C 
ATOM     28  C   UNL     1      31.088 -11.179 -20.681  0.00  0.00    +0.000 C 
ATOM     29  C   UNL     1      31.543  -9.911 -21.036  0.00  0.00    +0.001 C 
ENDBRANCH  19  21
ENDBRANCH   2  19
TORSDOF 4
ENDMDL
MODEL 2
REMARK VINA RESULT:     -11.8      1.777      2.735
REMARK  Name = 5288607
REMARK  4 active torsions:
REMARK  status: ('A' for Active; 'I' for Inactive)
REMARK    1  A    between atoms: N_2  and  C_19
REMARK    2  A    between atoms: C_3  and  C_6
REMARK    3  A    between atoms: C_5  and  C_16
REMARK    4  A    between atoms: C_19  and  C_21
REMARK                            x       y       z     vdW  Elec       q    Type
REMARK                         _______ _______ _______ _____ _____    ______ ____
ROOT
ATOM      1  O   UNL     1      34.068 -19.332 -24.838  0.00  0.00    -0.270 OA
ATOM      2  N   UNL     1      34.712 -17.311 -23.887  0.00  0.00    -0.270 N 
ATOM      3  C   UNL     1      34.582 -18.702 -23.913  0.00  0.00    +0.249 C 
ATOM      4  C   UNL     1      34.217 -16.527 -25.011  0.00  0.00    +0.116 C 
ENDROOT
BRANCH   3   6
ATOM      5  C   UNL     1      34.215 -20.005 -21.847  0.00  0.00    +0.006 C 
ATOM      6  C   UNL     1      35.086 -19.431 -22.710  0.00  0.00    +0.058 C 
BRANCH   5  16
ATOM      7  O   UNL     1      35.291 -23.990 -15.344  0.00  0.00    -0.275 OA
ATOM      8  N   UNL     1      35.752 -22.673 -17.167  0.00  0.00    -0.270 N 
ATOM      9  N   UNL     1      36.299 -21.383 -19.073  0.00  0.00    -0.229 NA
ATOM     10  C   UNL     1      32.986 -22.651 -17.787  0.00  0.00    +0.039 C 
ATOM     11  C   UNL     1      34.000 -22.027 -18.698  0.00  0.00    +0.010 C 
ATOM     12  C   UNL     1      33.591 -23.820 -17.025  0.00  0.00    +0.090 C 
ATOM     13  C   UNL     1      35.349 -22.019 -18.347  0.00  0.00    +0.130 C 
ATOM     14  C   UNL     1      33.620 -21.352 -19.859  0.00  0.00    +0.000 C 
ATOM     15  C   UNL     1      34.933 -23.486 -16.408  0.00  0.00    +0.227 C 
ATOM     16  C   UNL     1      34.580 -20.711 -20.632  0.00  0.00    +0.019 C 
ATOM     17  C   UNL     1      35.893 -20.752 -20.197  0.00  0.00    +0.100 C 
ATOM     18  H   UNL     1      36.679 -22.542 -16.863  0.00  0.00    +0.156 HD
ENDBRANCH   5  16
ENDBRANCH   3   6
BRANCH   2  19
ATOM     19  C   UNL     1      35.287 -16.541 -22.787  0.00  0.00    +0.122 C 
BRANCH  19  21
ATOM     20  N   UNL     1      33.866 -13.188 -23.049  0.00  0.00    -0.284 N 
ATOM     21  C   UNL     1      34.568 -15.243 -22.654  0.00  0.00    +0.014 C 
ATOM     22  C   UNL     1      33.665 -14.892 -21.623  0.00  0.00    +0.013 C 
ATOM     23  C   UNL     1      33.234 -13.592 -21.894  0.00  0.00    +0.051 C 
ATOM     24  C   UNL     1      34.678 -14.186 -23.516  0.00  0.00    +0.063 C 
ATOM     25  C   UNL     1      33.163 -15.549 -20.482  0.00  0.00    +0.001 C 
ATOM     26  C   UNL     1      32.324 -12.912 -21.077  0.00  0.00    +0.015 C 
ATOM     27  C   UNL     1      33.704 -11.900 -23.688  0.00  0.00    +0.117 C 
ATOM     28  C   UNL     1      32.252 -14.881 -19.655  0.00  0.00    +0.000 C 
ATOM     29  C   UNL     1      31.840 -13.584 -19.950  0.00  0.00    +0.001 C 
ENDBRANCH  19  21
ENDBRANCH   2  19
TORSDOF 4
ENDMDL
MODEL 3
REMARK VINA RESULT:     -11.7      1.870      3.228
REMARK  Name = 5288607
REMARK  4 active torsions:
REMARK  status: ('A' for Active; 'I' for Inactive)
REMARK    1  A    between atoms: N_2  and  C_19
REMARK    2  A    between atoms: C_3  and  C_6
REMARK    3  A    between atoms: C_5  and  C_16
REMARK    4  A    between atoms: C_19  and  C_21
REMARK                            x       y       z     vdW  Elec       q    Type
REMARK                         _______ _______ _______ _____ _____    ______ ____
ROOT
ATOM      1  O   UNL     1      34.014 -19.208 -24.762  0.00  0.00    -0.270 OA
ATOM      2  N   UNL     1      34.798 -17.192 -23.912  0.00  0.00    -0.270 N 
ATOM      3  C   UNL     1      34.591 -18.574 -23.878  0.00  0.00    +0.249 C 
ATOM      4  C   UNL     1      34.311 -16.424 -25.050  0.00  0.00    +0.116 C 
ENDROOT
BRANCH   3   6
ATOM      5  C   UNL     1      34.237 -19.982 -21.881  0.00  0.00    +0.006 C 
ATOM      6  C   UNL     1      35.093 -19.283 -22.663  0.00  0.00    +0.058 C 
BRANCH   5  16
ATOM      7  O   UNL     1      35.295 -23.963 -15.372  0.00  0.00    -0.275 OA
ATOM      8  N   UNL     1      35.758 -22.638 -17.188  0.00  0.00    -0.270 N 
ATOM      9  N   UNL     1      36.309 -21.338 -19.087  0.00  0.00    -0.229 NA
ATOM     10  C   UNL     1      32.999 -22.650 -17.838  0.00  0.00    +0.039 C 
ATOM     11  C   UNL     1      34.015 -22.012 -18.737  0.00  0.00    +0.010 C 
ATOM     12  C   UNL     1      33.611 -23.813 -17.071  0.00  0.00    +0.090 C 
ATOM     13  C   UNL     1      35.360 -21.987 -18.372  0.00  0.00    +0.130 C 
ATOM     14  C   UNL     1      33.639 -21.340 -19.901  0.00  0.00    +0.000 C 
ATOM     15  C   UNL     1      34.942 -23.462 -16.439  0.00  0.00    +0.227 C 
ATOM     16  C   UNL     1      34.599 -20.685 -20.663  0.00  0.00    +0.019 C 
ATOM     17  C   UNL     1      35.908 -20.711 -20.214  0.00  0.00    +0.100 C 
ATOM     18  H   UNL     1      36.680 -22.496 -16.874  0.00  0.00    +0.156 HD
ENDBRANCH   5  16
ENDBRANCH   3   6
BRANCH   2  19
ATOM     19  C   UNL     1      35.450 -16.414 -22.861  0.00  0.00    +0.122 C 
BRANCH  19  21
ATOM     20  N   UNL     1      32.922 -15.150 -20.549  0.00  0.00    -0.284 N 
ATOM     21  C   UNL     1      34.424 -15.665 -22.082  0.00  0.00    +0.014 C 
ATOM     22  C   UNL     1      33.945 -14.365 -22.370  0.00  0.00    +0.013 C 
ATOM     23  C   UNL     1      32.999 -14.061 -21.389  0.00  0.00    +0.051 C 
ATOM     24  C   UNL     1      33.785 -16.128 -20.965  0.00  0.00    +0.063 C 
ATOM     25  C   UNL     1      34.219 -13.407 -23.367  0.00  0.00    +0.001 C 
ATOM     26  C   UNL     1      32.310 -12.843 -21.354  0.00  0.00    +0.015 C 
ATOM     27  C   UNL     1      32.060 -15.258 -19.391  0.00  0.00    +0.117 C 
ATOM     28  C   UNL     1      33.537 -12.185 -23.346  0.00  0.00    +0.000 C 
ATOM     29  C   UNL     1      32.598 -11.910 -22.355  0.00  0.00    +0.001 C 
ENDBRANCH  19  21
ENDBRANCH   2  19
TORSDOF 4
ENDMDL
MODEL 4
REMARK VINA RESULT:     -11.6      1.334      2.187
REMARK  Name = 5288607
REMARK  4 active torsions:
REMARK  status: ('A' for Active; 'I' for Inactive)
REMARK    1  A    between atoms: N_2  and  C_19
REMARK    2  A    between atoms: C_3  and  C_6
REMARK    3  A    between atoms: C_5  and  C_16
REMARK    4  A    between atoms: C_19  and  C_21
REMARK                            x       y       z     vdW  Elec       q    Type
REMARK                         _______ _______ _______ _____ _____    ______ ____
ROOT
ATOM      1  O   UNL     1      33.446 -16.906 -25.786  0.00  0.00    -0.270 OA
ATOM      2  N   UNL     1      34.069 -14.796 -25.036  0.00  0.00    -0.270 N 
ATOM      3  C   UNL     1      34.047 -16.192 -24.982  0.00  0.00    +0.249 C 
ATOM      4  C   UNL     1      33.344 -14.111 -26.098  0.00  0.00    +0.116 C 
ENDROOT
BRANCH   3   6
ATOM      5  C   UNL     1      34.566 -18.112 -23.517  0.00  0.00    +0.006 C 
ATOM      6  C   UNL     1      34.788 -16.817 -23.845  0.00  0.00    +0.058 C 
BRANCH   5  16
ATOM      7  O   UNL     1      37.147 -22.288 -17.581  0.00  0.00    -0.275 OA
ATOM      8  N   UNL     1      37.124 -20.758 -19.293  0.00  0.00    -0.270 N 
ATOM      9  N   UNL     1      37.181 -19.229 -21.097  0.00  0.00    -0.229 NA
ATOM     10  C   UNL     1      34.362 -21.284 -19.658  0.00  0.00    +0.039 C 
ATOM     11  C   UNL     1      35.120 -20.383 -20.587  0.00  0.00    +0.010 C 
ATOM     12  C   UNL     1      35.276 -22.353 -19.078  0.00  0.00    +0.090 C 
ATOM     13  C   UNL     1      36.468 -20.112 -20.359  0.00  0.00    +0.130 C 
ATOM     14  C   UNL     1      34.484 -19.714 -21.633  0.00  0.00    +0.000 C 
ATOM     15  C   UNL     1      36.579 -21.788 -18.552  0.00  0.00    +0.227 C 
ATOM     16  C   UNL     1      35.200 -18.819 -22.419  0.00  0.00    +0.019 C 
ATOM     17  C   UNL     1      36.533 -18.611 -22.110  0.00  0.00    +0.100 C 
ATOM     18  H   UNL     1      38.031 -20.455 -19.061  0.00  0.00    +0.156 HD
ENDBRANCH   5  16
ENDBRANCH   3   6
BRANCH   2  19
ATOM     19  C   UNL     1      34.746 -13.929 -24.075  0.00  0.00    +0.122 C 
BRANCH  19  21
ATOM     20  N   UNL     1      32.285 -12.149 -22.048  0.00  0.00    -0.284 N 
ATOM     21  C   UNL     1      33.764 -13.427 -23.073  0.00  0.00    +0.014 C 
ATOM     22  C   UNL     1      33.380 -14.085 -21.880  0.00  0.00    +0.013 C 
ATOM     23  C   UNL     1      32.446 -13.260 -21.251  0.00  0.00    +0.051 C 
ATOM     24  C   UNL     1      33.083 -12.243 -23.157  0.00  0.00    +0.063 C 
ATOM     25  C   UNL     1      33.730 -15.304 -21.266  0.00  0.00    +0.001 C 
ATOM     26  C   UNL     1      31.842 -13.594 -20.034  0.00  0.00    +0.015 C 
ATOM     27  C   UNL     1      31.404 -11.035 -21.769  0.00  0.00    +0.117 C 
ATOM     28  C   UNL     1      33.135 -15.651 -20.049  0.00  0.00    +0.000 C 
ATOM     29  C   UNL     1      32.205 -14.808 -19.444  0.00  0.00    +0.001 C 
ENDBRANCH  19  21
ENDBRANCH   2  19
TORSDOF 4
ENDMDL
MODEL 5
REMARK VINA RESULT:     -11.6      1.220      2.137
REMARK  Name = 5288607
REMARK  4 active torsions:
REMARK  status: ('A' for Active; 'I' for Inactive)
REMARK    1  A    between atoms: N_2  and  C_19
REMARK    2  A    between atoms: C_3  and  C_6
REMARK    3  A    between atoms: C_5  and  C_16
REMARK    4  A    between atoms: C_19  and  C_21
REMARK                            x       y       z     vdW  Elec       q    Type
REMARK                         _______ _______ _______ _____ _____    ______ ____
ROOT
ATOM      1  O   UNL     1      33.636 -16.820 -25.664  0.00  0.00    -0.270 OA
ATOM      2  N   UNL     1      34.043 -14.739 -24.713  0.00  0.00    -0.270 N 
ATOM      3  C   UNL     1      34.134 -16.132 -24.772  0.00  0.00    +0.249 C 
ATOM      4  C   UNL     1      33.318 -14.025 -25.756  0.00  0.00    +0.116 C 
ENDROOT
BRANCH   3   6
ATOM      5  C   UNL     1      34.617 -18.085 -23.339  0.00  0.00    +0.006 C 
ATOM      6  C   UNL     1      34.866 -16.790 -23.649  0.00  0.00    +0.058 C 
BRANCH   5  16
ATOM      7  O   UNL     1      37.138 -22.426 -17.497  0.00  0.00    -0.275 OA
ATOM      8  N   UNL     1      37.132 -20.849 -19.165  0.00  0.00    -0.270 N 
ATOM      9  N   UNL     1      37.207 -19.270 -20.926  0.00  0.00    -0.229 NA
ATOM     10  C   UNL     1      34.374 -21.363 -19.573  0.00  0.00    +0.039 C 
ATOM     11  C   UNL     1      35.141 -20.438 -20.468  0.00  0.00    +0.010 C 
ATOM     12  C   UNL     1      35.282 -22.449 -19.014  0.00  0.00    +0.090 C 
ATOM     13  C   UNL     1      36.487 -20.173 -20.219  0.00  0.00    +0.130 C 
ATOM     14  C   UNL     1      34.516 -19.739 -21.502  0.00  0.00    +0.000 C 
ATOM     15  C   UNL     1      36.580 -21.898 -18.459  0.00  0.00    +0.227 C 
ATOM     16  C   UNL     1      35.240 -18.822 -22.255  0.00  0.00    +0.019 C 
ATOM     17  C   UNL     1      36.570 -18.624 -21.927  0.00  0.00    +0.100 C 
ATOM     18  H   UNL     1      38.037 -20.553 -18.916  0.00  0.00    +0.156 HD
ENDBRANCH   5  16
ENDBRANCH   3   6
BRANCH   2  19
ATOM     19  C   UNL     1      34.596 -13.905 -23.648  0.00  0.00    +0.122 C 
BRANCH  19  21
ATOM     20  N   UNL     1      32.499 -14.490 -20.717  0.00  0.00    -0.284 N 
ATOM     21  C   UNL     1      33.654 -13.875 -22.494  0.00  0.00    +0.014 C 
ATOM     22  C   UNL     1      32.845 -12.780 -22.107  0.00  0.00    +0.013 C 
ATOM     23  C   UNL     1      32.126 -13.192 -20.983  0.00  0.00    +0.051 C 
ATOM     24  C   UNL     1      33.426 -14.912 -21.632  0.00  0.00    +0.063 C 
ATOM     25  C   UNL     1      32.650 -11.473 -22.595  0.00  0.00    +0.001 C 
ATOM     26  C   UNL     1      31.217 -12.359 -20.321  0.00  0.00    +0.015 C 
ATOM     27  C   UNL     1      31.992 -15.304 -19.632  0.00  0.00    +0.117 C 
ATOM     28  C   UNL     1      31.743 -10.629 -21.944  0.00  0.00    +0.000 C 
ATOM     29  C   UNL     1      31.039 -11.067 -20.825  0.00  0.00    +0.001 C 
ENDBRANCH  19  21
ENDBRANCH   2  19
TORSDOF 4
ENDMDL
MODEL 6
REMARK VINA RESULT:     -11.5      5.804     12.349
REMARK  Name = 5288607
REMARK  4 active torsions:
REMARK  status: ('A' for Active; 'I' for Inactive)
REMARK    1  A    between atoms: N_2  and  C_19
REMARK    2  A    between atoms: C_3  and  C_6
REMARK    3  A    between atoms: C_5  and  C_16
REMARK    4  A    between atoms: C_19  and  C_21
REMARK                            x       y       z     vdW  Elec       q    Type
REMARK                         _______ _______ _______ _____ _____    ______ ____
ROOT
ATOM      1  O   UNL     1      30.907 -24.805 -15.937  0.00  0.00    -0.270 OA
ATOM      2  N   UNL     1      32.341 -24.370 -14.161  0.00  0.00    -0.270 N 
ATOM      3  C   UNL     1      31.852 -24.179 -15.456  0.00  0.00    +0.249 C 
ATOM      4  C   UNL     1      31.715 -25.366 -13.300  0.00  0.00    +0.116 C 
ENDROOT
BRANCH   3   6
ATOM      5  C   UNL     1      33.530 -23.550 -17.156  0.00  0.00    +0.006 C 
ATOM      6  C   UNL     1      32.568 -23.164 -16.285  0.00  0.00    +0.058 C 
BRANCH   5  16
ATOM      7  O   UNL     1      36.913 -18.579 -21.970  0.00  0.00    -0.275 OA
ATOM      8  N   UNL     1      36.670 -20.159 -20.321  0.00  0.00    -0.270 N 
ATOM      9  N   UNL     1      36.468 -21.724 -18.559  0.00  0.00    -0.229 NA
ATOM     10  C   UNL     1      33.911 -20.318 -20.951  0.00  0.00    +0.039 C 
ATOM     11  C   UNL     1      34.495 -21.062 -19.788  0.00  0.00    +0.010 C 
ATOM     12  C   UNL     1      34.684 -19.035 -21.215  0.00  0.00    +0.090 C 
ATOM     13  C   UNL     1      35.863 -20.996 -19.527  0.00  0.00    +0.130 C 
ATOM     14  C   UNL     1      33.718 -21.917 -19.004  0.00  0.00    +0.000 C 
ATOM     15  C   UNL     1      36.183 -19.249 -21.239  0.00  0.00    +0.227 C 
ATOM     16  C   UNL     1      34.313 -22.657 -17.991  0.00  0.00    +0.019 C 
ATOM     17  C   UNL     1      35.680 -22.529 -17.812  0.00  0.00    +0.100 C 
ATOM     18  H   UNL     1      37.646 -20.227 -20.215  0.00  0.00    +0.156 HD
ENDBRANCH   5  16
ENDBRANCH   3   6
BRANCH   2  19
ATOM     19  C   UNL     1      33.481 -23.664 -13.581  0.00  0.00    +0.122 C 
BRANCH  19  21
ATOM     20  N   UNL     1      36.125 -26.054 -14.370  0.00  0.00    -0.284 N 
ATOM     21  C   UNL     1      34.703 -24.508 -13.694  0.00  0.00    +0.014 C 
ATOM     22  C   UNL     1      35.872 -24.393 -12.903  0.00  0.00    +0.013 C 
ATOM     23  C   UNL     1      36.754 -25.379 -13.349  0.00  0.00    +0.051 C 
ATOM     24  C   UNL     1      34.878 -25.532 -14.585  0.00  0.00    +0.063 C 
ATOM     25  C   UNL     1      36.275 -23.548 -11.850  0.00  0.00    +0.001 C 
ATOM     26  C   UNL     1      38.025 -25.563 -12.793  0.00  0.00    +0.015 C 
ATOM     27  C   UNL     1      36.687 -27.159 -15.118  0.00  0.00    +0.117 C 
ATOM     28  C   UNL     1      37.542 -23.721 -11.283  0.00  0.00    +0.000 C 
ATOM     29  C   UNL     1      38.402 -24.713 -11.748  0.00  0.00    +0.001 C 
ENDBRANCH  19  21
ENDBRANCH   2  19
TORSDOF 4
ENDMDL
MODEL 7
REMARK VINA RESULT:     -11.2      0.979      1.939
REMARK  Name = 5288607
REMARK  4 active torsions:
REMARK  status: ('A' for Active; 'I' for Inactive)
REMARK    1  A    between atoms: N_2  and  C_19
REMARK    2  A    between atoms: C_3  and  C_6
REMARK    3  A    between atoms: C_5  and  C_16
REMARK    4  A    between atoms: C_19  and  C_21
REMARK                            x       y       z     vdW  Elec       q    Type
REMARK                         _______ _______ _______ _____ _____    ______ ____
ROOT
ATOM      1  O   UNL     1      33.636 -16.451 -25.328  0.00  0.00    -0.270 OA
ATOM      2  N   UNL     1      34.054 -14.413 -24.290  0.00  0.00    -0.270 N 
ATOM      3  C   UNL     1      34.089 -15.807 -24.380  0.00  0.00    +0.249 C 
ATOM      4  C   UNL     1      33.449 -13.642 -25.369  0.00  0.00    +0.116 C 
ENDROOT
BRANCH   3   6
ATOM      5  C   UNL     1      34.818 -17.873 -23.239  0.00  0.00    +0.006 C 
ATOM      6  C   UNL     1      34.696 -16.525 -23.219  0.00  0.00    +0.058 C 
BRANCH   5  16
ATOM      7  O   UNL     1      36.899 -22.567 -17.497  0.00  0.00    -0.275 OA
ATOM      8  N   UNL     1      37.030 -20.918 -19.089  0.00  0.00    -0.270 N 
ATOM      9  N   UNL     1      37.246 -19.266 -20.769  0.00  0.00    -0.229 NA
ATOM     10  C   UNL     1      34.277 -21.304 -19.644  0.00  0.00    +0.039 C 
ATOM     11  C   UNL     1      35.119 -20.370 -20.460  0.00  0.00    +0.010 C 
ATOM     12  C   UNL     1      35.116 -22.448 -19.095  0.00  0.00    +0.090 C 
ATOM     13  C   UNL     1      36.460 -20.171 -20.139  0.00  0.00    +0.130 C 
ATOM     14  C   UNL     1      34.569 -19.602 -21.487  0.00  0.00    +0.000 C 
ATOM     15  C   UNL     1      36.406 -21.975 -18.458  0.00  0.00    +0.227 C 
ATOM     16  C   UNL     1      35.361 -18.682 -22.163  0.00  0.00    +0.019 C 
ATOM     17  C   UNL     1      36.681 -18.551 -21.767  0.00  0.00    +0.100 C 
ATOM     18  H   UNL     1      37.933 -20.669 -18.786  0.00  0.00    +0.156 HD
ENDBRANCH   5  16
ENDBRANCH   3   6
BRANCH   2  19
ATOM     19  C   UNL     1      34.553 -13.631 -23.161  0.00  0.00    +0.122 C 
BRANCH  19  21
ATOM     20  N   UNL     1      31.666 -11.917 -21.728  0.00  0.00    -0.284 N 
ATOM     21  C   UNL     1      33.492 -12.697 -22.690  0.00  0.00    +0.014 C 
ATOM     22  C   UNL     1      33.446 -11.302 -22.923  0.00  0.00    +0.013 C 
ATOM     23  C   UNL     1      32.285 -10.832 -22.307  0.00  0.00    +0.051 C 
ATOM     24  C   UNL     1      32.393 -13.053 -21.958  0.00  0.00    +0.063 C 
ATOM     25  C   UNL     1      34.276 -10.383 -23.597  0.00  0.00    +0.001 C 
ATOM     26  C   UNL     1      31.910  -9.483 -22.329  0.00  0.00    +0.015 C 
ATOM     27  C   UNL     1      30.425 -11.877 -20.983  0.00  0.00    +0.117 C 
ATOM     28  C   UNL     1      33.914  -9.032 -23.629  0.00  0.00    +0.000 C 
ATOM     29  C   UNL     1      32.749  -8.591 -23.005  0.00  0.00    +0.001 C 
ENDBRANCH  19  21
ENDBRANCH   2  19
TORSDOF 4
ENDMDL
MODEL 8
REMARK VINA RESULT:     -11.0      5.482     11.842
REMARK  Name = 5288607
REMARK  4 active torsions:
REMARK  status: ('A' for Active; 'I' for Inactive)
REMARK    1  A    between atoms: N_2  and  C_19
REMARK    2  A    between atoms: C_3  and  C_6
REMARK    3  A    between atoms: C_5  and  C_16
REMARK    4  A    between atoms: C_19  and  C_21
REMARK                            x       y       z     vdW  Elec       q    Type
REMARK                         _______ _______ _______ _____ _____    ______ ____
ROOT
ATOM      1  O   UNL     1      32.333  -8.938 -18.556  0.00  0.00    -0.270 OA
ATOM      2  N   UNL     1      31.353 -10.694 -19.721  0.00  0.00    -0.270 N 
ATOM      3  C   UNL     1      31.916  -9.420 -19.610  0.00  0.00    +0.249 C 
ATOM      4  C   UNL     1      31.236 -11.530 -18.533  0.00  0.00    +0.116 C 
ENDROOT
BRANCH   3   6
ATOM      5  C   UNL     1      32.032  -7.263 -20.808  0.00  0.00    +0.006 C 
ATOM      6  C   UNL     1      31.971  -8.615 -20.867  0.00  0.00    +0.058 C 
BRANCH   5  16
ATOM      7  O   UNL     1      32.871  -3.028 -27.187  0.00  0.00    -0.275 OA
ATOM      8  N   UNL     1      32.037  -3.754 -25.175  0.00  0.00    -0.270 N 
ATOM      9  N   UNL     1      31.086  -4.510 -23.145  0.00  0.00    -0.229 NA
ATOM     10  C   UNL     1      34.140  -5.650 -25.045  0.00  0.00    +0.039 C 
ATOM     11  C   UNL     1      33.043  -5.623 -24.024  0.00  0.00    +0.010 C 
ATOM     12  C   UNL     1      33.636  -5.156 -26.392  0.00  0.00    +0.090 C 
ATOM     13  C   UNL     1      32.044  -4.654 -24.092  0.00  0.00    +0.130 C 
ATOM     14  C   UNL     1      33.044  -6.488 -22.928  0.00  0.00    +0.000 C 
ATOM     15  C   UNL     1      32.848  -3.867 -26.286  0.00  0.00    +0.227 C 
ATOM     16  C   UNL     1      32.059  -6.374 -21.956  0.00  0.00    +0.019 C 
ATOM     17  C   UNL     1      31.113  -5.375 -22.108  0.00  0.00    +0.100 C 
ATOM     18  H   UNL     1      31.411  -2.995 -25.137  0.00  0.00    +0.156 HD
ENDBRANCH   5  16
ENDBRANCH   3   6
BRANCH   2  19
ATOM     19  C   UNL     1      30.821 -11.273 -20.953  0.00  0.00    +0.122 C 
BRANCH  19  21
ATOM     20  N   UNL     1      33.487 -12.181 -23.276  0.00  0.00    -0.284 N 
ATOM     21  C   UNL     1      31.930 -11.880 -21.741  0.00  0.00    +0.014 C 
ATOM     22  C   UNL     1      32.548 -13.127 -21.487  0.00  0.00    +0.013 C 
ATOM     23  C   UNL     1      33.527 -13.295 -22.468  0.00  0.00    +0.051 C 
ATOM     24  C   UNL     1      32.518 -11.317 -22.841  0.00  0.00    +0.063 C 
ATOM     25  C   UNL     1      32.377 -14.137 -20.519  0.00  0.00    +0.001 C 
ATOM     26  C   UNL     1      34.349 -14.427 -22.529  0.00  0.00    +0.015 C 
ATOM     27  C   UNL     1      34.339 -11.943 -24.422  0.00  0.00    +0.117 C 
ATOM     28  C   UNL     1      33.190 -15.274 -20.568  0.00  0.00    +0.000 C 
ATOM     29  C   UNL     1      34.160 -15.415 -21.558  0.00  0.00    +0.001 C 
ENDBRANCH  19  21
ENDBRANCH   2  19
TORSDOF 4
ENDMDL
MODEL 9
REMARK VINA RESULT:     -10.6      4.175     10.956
REMARK  Name = 5288607
REMARK  4 active torsions:
REMARK  status: ('A' for Active; 'I' for Inactive)
REMARK    1  A    between atoms: N_2  and  C_19
REMARK    2  A    between atoms: C_3  and  C_6
REMARK    3  A    between atoms: C_5  and  C_16
REMARK    4  A    between atoms: C_19  and  C_21
REMARK                            x       y       z     vdW  Elec       q    Type
REMARK                         _______ _______ _______ _____ _____    ______ ____
ROOT
ATOM      1  O   UNL     1      30.854 -12.535 -20.349  0.00  0.00    -0.270 OA
ATOM      2  N   UNL     1      32.887 -13.539 -20.860  0.00  0.00    -0.270 N 
ATOM      3  C   UNL     1      31.945 -12.509 -20.921  0.00  0.00    +0.249 C 
ATOM      4  C   UNL     1      32.591 -14.733 -20.080  0.00  0.00    +0.116 C 
ENDROOT
BRANCH   3   6
ATOM      5  C   UNL     1      31.924 -10.087 -21.405  0.00  0.00    +0.006 C 
ATOM      6  C   UNL     1      32.310 -11.333 -21.767  0.00  0.00    +0.058 C 
BRANCH   5  16
ATOM      7  O   UNL     1      32.589  -3.328 -25.039  0.00  0.00    -0.275 OA
ATOM      8  N   UNL     1      33.063  -5.473 -24.370  0.00  0.00    -0.270 N 
ATOM      9  N   UNL     1      33.644  -7.650 -23.650  0.00  0.00    -0.229 NA
ATOM     10  C   UNL     1      30.600  -5.527 -22.968  0.00  0.00    +0.039 C 
ATOM     11  C   UNL     1      31.581  -6.656 -22.876  0.00  0.00    +0.010 C 
ATOM     12  C   UNL     1      31.317  -4.206 -23.207  0.00  0.00    +0.090 C 
ATOM     13  C   UNL     1      32.767  -6.619 -23.608  0.00  0.00    +0.130 C 
ATOM     14  C   UNL     1      31.296  -7.812 -22.147  0.00  0.00    +0.000 C 
ATOM     15  C   UNL     1      32.350  -4.292 -24.312  0.00  0.00    +0.227 C 
ATOM     16  C   UNL     1      32.191  -8.874 -22.157  0.00  0.00    +0.019 C 
ATOM     17  C   UNL     1      33.339  -8.746 -22.921  0.00  0.00    +0.100 C 
ATOM     18  H   UNL     1      33.830  -5.516 -24.986  0.00  0.00    +0.156 HD
ENDBRANCH   5  16
ENDBRANCH   3   6
BRANCH   2  19
ATOM     19  C   UNL     1      34.172 -13.545 -21.557  0.00  0.00    +0.122 C 
BRANCH  19  21
ATOM     20  N   UNL     1      33.676 -15.130 -24.808  0.00  0.00    -0.284 N 
ATOM     21  C   UNL     1      34.086 -14.421 -22.759  0.00  0.00    +0.014 C 
ATOM     22  C   UNL     1      34.508 -15.769 -22.840  0.00  0.00    +0.013 C 
ATOM     23  C   UNL     1      34.240 -16.195 -24.142  0.00  0.00    +0.051 C 
ATOM     24  C   UNL     1      33.578 -14.049 -23.974  0.00  0.00    +0.063 C 
ATOM     25  C   UNL     1      35.096 -16.677 -21.937  0.00  0.00    +0.001 C 
ATOM     26  C   UNL     1      34.531 -17.488 -24.589  0.00  0.00    +0.015 C 
ATOM     27  C   UNL     1      33.244 -15.137 -26.190  0.00  0.00    +0.117 C 
ATOM     28  C   UNL     1      35.392 -17.975 -22.369  0.00  0.00    +0.000 C 
ATOM     29  C   UNL     1      35.113 -18.372 -23.675  0.00  0.00    +0.001 C 
ENDBRANCH  19  21
ENDBRANCH   2  19
TORSDOF 4
ENDMDL
