MODEL 1
REMARK VINA RESULT:     -11.7      0.000      0.000
REMARK  Name = 6419766
REMARK  1 active torsions:
REMARK  status: ('A' for Active; 'I' for Inactive)
REMARK    1  A    between atoms: C_9  and  C_20
REMARK                            x       y       z     vdW  Elec       q    Type
REMARK                         _______ _______ _______ _____ _____    ______ ____
ROOT
ATOM      1  N   UNL     1      34.248 -24.340 -14.212  0.00  0.00    -0.274 N 
ATOM      2  N   UNL     1      34.029 -23.250 -16.286  0.00  0.00    -0.328 NA
ATOM      3  N   UNL     1      31.858 -22.911 -17.274  0.00  0.00    -0.343 NA
ATOM      4  N   UNL     1      37.460 -25.412 -14.737  0.00  0.00    -0.239 N 
ATOM      5  N   UNL     1      36.329 -24.911 -15.261  0.00  0.00    -0.166 NA
ATOM      6  C   UNL     1      32.038 -24.025 -15.158  0.00  0.00    +0.143 C 
ATOM      7  C   UNL     1      33.416 -23.856 -15.253  0.00  0.00    +0.185 C 
ATOM      8  C   UNL     1      31.277 -23.521 -16.226  0.00  0.00    +0.133 C 
ATOM      9  C   UNL     1      33.202 -22.809 -17.248  0.00  0.00    +0.138 C 
ATOM     10  C   UNL     1      35.567 -24.820 -14.200  0.00  0.00    +0.152 C 
ATOM     11  C   UNL     1      31.420 -24.661 -14.067  0.00  0.00    -0.011 C 
ATOM     12  C   UNL     1      29.894 -23.672 -16.167  0.00  0.00    +0.029 C 
ATOM     13  C   UNL     1      36.136 -25.233 -13.008  0.00  0.00    +0.048 C 
ATOM     14  C   UNL     1      37.397 -25.623 -13.390  0.00  0.00    +0.046 C 
ATOM     15  C   UNL     1      30.036 -24.798 -14.035  0.00  0.00    -0.004 C 
ATOM     16  C   UNL     1      29.272 -24.304 -15.085  0.00  0.00    +0.002 C 
ATOM     17  C   UNL     1      38.532 -26.167 -12.627  0.00  0.00    +0.049 C 
ATOM     18  H   UNL     1      33.818 -24.338 -13.327  0.00  0.00    +0.156 HD
ATOM     19  H   UNL     1      38.261 -25.609 -15.274  0.00  0.00    +0.174 HD
ENDROOT
BRANCH   9  20
ATOM     20  C   UNL     1      33.816 -22.154 -18.373  0.00  0.00    +0.086 C 
ATOM     21  C   UNL     1      33.046 -21.378 -19.244  0.00  0.00    +0.012 C 
ATOM     22  C   UNL     1      35.189 -22.288 -18.603  0.00  0.00    +0.012 C 
ATOM     23  C   UNL     1      33.641 -20.742 -20.333  0.00  0.00    +0.001 C 
ATOM     24  C   UNL     1      35.785 -21.653 -19.691  0.00  0.00    +0.001 C 
ATOM     25  C   UNL     1      35.011 -20.879 -20.557  0.00  0.00    +0.000 C 
ENDBRANCH   9  20
TORSDOF 1
ENDMDL
MODEL 2
REMARK VINA RESULT:     -11.7      1.165      4.925
REMARK  Name = 6419766
REMARK  1 active torsions:
REMARK  status: ('A' for Active; 'I' for Inactive)
REMARK    1  A    between atoms: C_9  and  C_20
REMARK                            x       y       z     vdW  Elec       q    Type
REMARK                         _______ _______ _______ _____ _____    ______ ____
ROOT
ATOM      1  N   UNL     1      35.756 -23.721 -15.882  0.00  0.00    -0.274 N 
ATOM      2  N   UNL     1      33.404 -23.705 -15.929  0.00  0.00    -0.328 NA
ATOM      3  N   UNL     1      32.218 -22.622 -17.725  0.00  0.00    -0.343 NA
ATOM      4  N   UNL     1      36.018 -24.101 -12.487  0.00  0.00    -0.239 N 
ATOM      5  N   UNL     1      35.242 -23.794 -13.539  0.00  0.00    -0.166 NA
ATOM      6  C   UNL     1      34.616 -22.617 -17.715  0.00  0.00    +0.143 C 
ATOM      7  C   UNL     1      34.553 -23.337 -16.526  0.00  0.00    +0.185 C 
ATOM      8  C   UNL     1      33.384 -22.271 -18.295  0.00  0.00    +0.133 C 
ATOM      9  C   UNL     1      32.290 -23.319 -16.573  0.00  0.00    +0.138 C 
ATOM     10  C   UNL     1      36.083 -23.932 -14.533  0.00  0.00    +0.152 C 
ATOM     11  C   UNL     1      35.830 -22.245 -18.319  0.00  0.00    -0.011 C 
ATOM     12  C   UNL     1      33.407 -21.549 -19.485  0.00  0.00    +0.029 C 
ATOM     13  C   UNL     1      37.369 -24.314 -14.190  0.00  0.00    +0.048 C 
ATOM     14  C   UNL     1      37.302 -24.419 -12.822  0.00  0.00    +0.046 C 
ATOM     15  C   UNL     1      35.822 -21.524 -19.508  0.00  0.00    -0.004 C 
ATOM     16  C   UNL     1      34.610 -21.175 -20.092  0.00  0.00    +0.002 C 
ATOM     17  C   UNL     1      38.309 -24.785 -11.813  0.00  0.00    +0.049 C 
ATOM     18  H   UNL     1      36.507 -23.869 -16.500  0.00  0.00    +0.156 HD
ATOM     19  H   UNL     1      35.691 -24.096 -11.558  0.00  0.00    +0.174 HD
ENDROOT
BRANCH   9  20
ATOM     20  C   UNL     1      31.037 -23.691 -15.971  0.00  0.00    +0.086 C 
ATOM     21  C   UNL     1      29.865 -23.007 -16.303  0.00  0.00    +0.012 C 
ATOM     22  C   UNL     1      30.984 -24.741 -15.049  0.00  0.00    +0.012 C 
ATOM     23  C   UNL     1      28.650 -23.368 -15.720  0.00  0.00    +0.001 C 
ATOM     24  C   UNL     1      29.770 -25.104 -14.466  0.00  0.00    +0.001 C 
ATOM     25  C   UNL     1      28.602 -24.418 -14.801  0.00  0.00    +0.000 C 
ENDBRANCH   9  20
TORSDOF 1
ENDMDL
MODEL 3
REMARK VINA RESULT:     -11.0      1.558      5.758
REMARK  Name = 6419766
REMARK  1 active torsions:
REMARK  status: ('A' for Active; 'I' for Inactive)
REMARK    1  A    between atoms: C_9  and  C_20
REMARK                            x       y       z     vdW  Elec       q    Type
REMARK                         _______ _______ _______ _____ _____    ______ ____
ROOT
ATOM      1  N   UNL     1      33.273 -22.786 -17.823  0.00  0.00    -0.274 N 
ATOM      2  N   UNL     1      34.700 -23.947 -16.356  0.00  0.00    -0.328 NA
ATOM      3  N   UNL     1      33.885 -24.772 -14.244  0.00  0.00    -0.343 NA
ATOM      4  N   UNL     1      35.766 -21.056 -19.414  0.00  0.00    -0.239 N 
ATOM      5  N   UNL     1      35.394 -21.802 -18.360  0.00  0.00    -0.166 NA
ATOM      6  C   UNL     1      32.398 -23.595 -15.711  0.00  0.00    +0.143 C 
ATOM      7  C   UNL     1      33.466 -23.464 -16.593  0.00  0.00    +0.185 C 
ATOM      8  C   UNL     1      32.664 -24.278 -14.513  0.00  0.00    +0.133 C 
ATOM      9  C   UNL     1      34.837 -24.580 -15.179  0.00  0.00    +0.138 C 
ATOM     10  C   UNL     1      34.135 -22.031 -18.634  0.00  0.00    +0.152 C 
ATOM     11  C   UNL     1      31.117 -23.082 -15.982  0.00  0.00    -0.011 C 
ATOM     12  C   UNL     1      31.619 -24.428 -13.605  0.00  0.00    +0.029 C 
ATOM     13  C   UNL     1      33.659 -21.476 -19.810  0.00  0.00    +0.048 C 
ATOM     14  C   UNL     1      34.764 -20.831 -20.312  0.00  0.00    +0.046 C 
ATOM     15  C   UNL     1      30.092 -23.247 -15.056  0.00  0.00    -0.004 C 
ATOM     16  C   UNL     1      30.342 -23.921 -13.867  0.00  0.00    +0.002 C 
ATOM     17  C   UNL     1      34.968 -20.036 -21.534  0.00  0.00    +0.049 C 
ATOM     18  H   UNL     1      32.357 -22.860 -18.177  0.00  0.00    +0.156 HD
ATOM     19  H   UNL     1      36.678 -20.704 -19.528  0.00  0.00    +0.174 HD
ENDROOT
BRANCH   9  20
ATOM     20  C   UNL     1      36.141 -25.113 -14.884  0.00  0.00    +0.086 C 
ATOM     21  C   UNL     1      37.240 -24.259 -14.761  0.00  0.00    +0.012 C 
ATOM     22  C   UNL     1      36.317 -26.490 -14.717  0.00  0.00    +0.012 C 
ATOM     23  C   UNL     1      38.503 -24.775 -14.473  0.00  0.00    +0.001 C 
ATOM     24  C   UNL     1      37.579 -27.007 -14.429  0.00  0.00    +0.001 C 
ATOM     25  C   UNL     1      38.674 -26.150 -14.307  0.00  0.00    +0.000 C 
ENDBRANCH   9  20
TORSDOF 1
ENDMDL
MODEL 4
REMARK VINA RESULT:     -11.0      1.557      5.757
REMARK  Name = 6419766
REMARK  1 active torsions:
REMARK  status: ('A' for Active; 'I' for Inactive)
REMARK    1  A    between atoms: C_9  and  C_20
REMARK                            x       y       z     vdW  Elec       q    Type
REMARK                         _______ _______ _______ _____ _____    ______ ____
ROOT
ATOM      1  N   UNL     1      33.272 -22.781 -17.834  0.00  0.00    -0.274 N 
ATOM      2  N   UNL     1      34.693 -23.946 -16.364  0.00  0.00    -0.328 NA
ATOM      3  N   UNL     1      33.869 -24.774 -14.257  0.00  0.00    -0.343 NA
ATOM      4  N   UNL     1      35.773 -21.050 -19.412  0.00  0.00    -0.239 N 
ATOM      5  N   UNL     1      35.397 -21.798 -18.362  0.00  0.00    -0.166 NA
ATOM      6  C   UNL     1      32.389 -23.593 -15.727  0.00  0.00    +0.143 C 
ATOM      7  C   UNL     1      33.461 -23.461 -16.605  0.00  0.00    +0.185 C 
ATOM      8  C   UNL     1      32.650 -24.278 -14.529  0.00  0.00    +0.133 C 
ATOM      9  C   UNL     1      34.825 -24.581 -15.188  0.00  0.00    +0.138 C 
ATOM     10  C   UNL     1      34.138 -22.025 -18.641  0.00  0.00    +0.152 C 
ATOM     11  C   UNL     1      31.109 -23.078 -16.002  0.00  0.00    -0.011 C 
ATOM     12  C   UNL     1      31.601 -24.430 -13.626  0.00  0.00    +0.029 C 
ATOM     13  C   UNL     1      33.668 -21.468 -19.818  0.00  0.00    +0.048 C 
ATOM     14  C   UNL     1      34.775 -20.822 -20.314  0.00  0.00    +0.046 C 
ATOM     15  C   UNL     1      30.081 -23.244 -15.081  0.00  0.00    -0.004 C 
ATOM     16  C   UNL     1      30.326 -23.921 -13.892  0.00  0.00    +0.002 C 
ATOM     17  C   UNL     1      34.984 -20.026 -21.533  0.00  0.00    +0.049 C 
ATOM     18  H   UNL     1      32.358 -22.853 -18.192  0.00  0.00    +0.156 HD
ATOM     19  H   UNL     1      36.686 -20.698 -19.522  0.00  0.00    +0.174 HD
ENDROOT
BRANCH   9  20
ATOM     20  C   UNL     1      36.127 -25.116 -14.889  0.00  0.00    +0.086 C 
ATOM     21  C   UNL     1      36.300 -26.491 -14.708  0.00  0.00    +0.012 C 
ATOM     22  C   UNL     1      37.230 -24.263 -14.778  0.00  0.00    +0.012 C 
ATOM     23  C   UNL     1      37.563 -27.009 -14.419  0.00  0.00    +0.001 C 
ATOM     24  C   UNL     1      38.492 -24.780 -14.491  0.00  0.00    +0.001 C 
ATOM     25  C   UNL     1      38.660 -26.154 -14.311  0.00  0.00    +0.000 C 
ENDBRANCH   9  20
TORSDOF 1
ENDMDL
MODEL 5
REMARK VINA RESULT:     -10.6      1.634      5.223
REMARK  Name = 6419766
REMARK  1 active torsions:
REMARK  status: ('A' for Active; 'I' for Inactive)
REMARK    1  A    between atoms: C_9  and  C_20
REMARK                            x       y       z     vdW  Elec       q    Type
REMARK                         _______ _______ _______ _____ _____    ______ ____
ROOT
ATOM      1  N   UNL     1      32.906 -24.206 -15.892  0.00  0.00    -0.274 N 
ATOM      2  N   UNL     1      34.050 -22.876 -17.460  0.00  0.00    -0.328 NA
ATOM      3  N   UNL     1      36.403 -22.426 -17.206  0.00  0.00    -0.343 NA
ATOM      4  N   UNL     1      29.816 -22.858 -16.502  0.00  0.00    -0.239 N 
ATOM      5  N   UNL     1      31.148 -22.757 -16.645  0.00  0.00    -0.166 NA
ATOM      6  C   UNL     1      35.275 -23.786 -15.587  0.00  0.00    +0.143 C 
ATOM      7  C   UNL     1      34.112 -23.602 -16.329  0.00  0.00    +0.185 C 
ATOM      8  C   UNL     1      36.431 -23.159 -16.080  0.00  0.00    +0.133 C 
ATOM      9  C   UNL     1      35.215 -22.323 -17.835  0.00  0.00    +0.138 C 
ATOM     10  C   UNL     1      31.558 -23.836 -16.027  0.00  0.00    +0.152 C 
ATOM     11  C   UNL     1      35.314 -24.552 -14.407  0.00  0.00    -0.011 C 
ATOM     12  C   UNL     1      37.613 -23.320 -15.364  0.00  0.00    +0.029 C 
ATOM     13  C   UNL     1      30.569 -24.639 -15.487  0.00  0.00    +0.048 C 
ATOM     14  C   UNL     1      29.417 -23.967 -15.815  0.00  0.00    +0.046 C 
ATOM     15  C   UNL     1      36.511 -24.695 -13.712  0.00  0.00    -0.004 C 
ATOM     16  C   UNL     1      37.661 -24.079 -14.190  0.00  0.00    +0.002 C 
ATOM     17  C   UNL     1      27.998 -24.259 -15.553  0.00  0.00    +0.049 C 
ATOM     18  H   UNL     1      33.039 -25.047 -15.399  0.00  0.00    +0.156 HD
ATOM     19  H   UNL     1      29.185 -22.192 -16.860  0.00  0.00    +0.174 HD
ENDROOT
BRANCH   9  20
ATOM     20  C   UNL     1      35.194 -21.536 -19.041  0.00  0.00    +0.086 C 
ATOM     21  C   UNL     1      33.980 -21.230 -19.662  0.00  0.00    +0.012 C 
ATOM     22  C   UNL     1      36.390 -21.072 -19.599  0.00  0.00    +0.012 C 
ATOM     23  C   UNL     1      33.961 -20.466 -20.829  0.00  0.00    +0.001 C 
ATOM     24  C   UNL     1      36.371 -20.309 -20.765  0.00  0.00    +0.001 C 
ATOM     25  C   UNL     1      35.156 -20.004 -21.381  0.00  0.00    +0.000 C 
ENDBRANCH   9  20
TORSDOF 1
ENDMDL
MODEL 6
REMARK VINA RESULT:     -10.5      1.764      6.588
REMARK  Name = 6419766
REMARK  1 active torsions:
REMARK  status: ('A' for Active; 'I' for Inactive)
REMARK    1  A    between atoms: C_9  and  C_20
REMARK                            x       y       z     vdW  Elec       q    Type
REMARK                         _______ _______ _______ _____ _____    ______ ____
ROOT
ATOM      1  N   UNL     1      36.499 -22.794 -16.504  0.00  0.00    -0.274 N 
ATOM      2  N   UNL     1      34.621 -23.571 -15.319  0.00  0.00    -0.328 NA
ATOM      3  N   UNL     1      34.863 -25.206 -13.566  0.00  0.00    -0.343 NA
ATOM      4  N   UNL     1      34.768 -21.901 -19.323  0.00  0.00    -0.239 N 
ATOM      5  N   UNL     1      34.779 -22.579 -18.163  0.00  0.00    -0.166 NA
ATOM      6  C   UNL     1      36.802 -24.440 -14.750  0.00  0.00    +0.143 C 
ATOM      7  C   UNL     1      35.954 -23.626 -15.494  0.00  0.00    +0.185 C 
ATOM      8  C   UNL     1      36.192 -25.237 -13.767  0.00  0.00    +0.133 C 
ATOM      9  C   UNL     1      34.149 -24.375 -14.353  0.00  0.00    +0.138 C 
ATOM     10  C   UNL     1      35.980 -22.311 -17.717  0.00  0.00    +0.152 C 
ATOM     11  C   UNL     1      38.194 -24.479 -14.952  0.00  0.00    -0.011 C 
ATOM     12  C   UNL     1      37.009 -26.064 -13.003  0.00  0.00    +0.029 C 
ATOM     13  C   UNL     1      36.758 -21.495 -18.520  0.00  0.00    +0.048 C 
ATOM     14  C   UNL     1      35.930 -21.236 -19.585  0.00  0.00    +0.046 C 
ATOM     15  C   UNL     1      38.985 -25.317 -14.173  0.00  0.00    -0.004 C 
ATOM     16  C   UNL     1      38.393 -26.110 -13.197  0.00  0.00    +0.002 C 
ATOM     17  C   UNL     1      36.119 -20.435 -20.805  0.00  0.00    +0.049 C 
ATOM     18  H   UNL     1      37.419 -22.497 -16.320  0.00  0.00    +0.156 HD
ATOM     19  H   UNL     1      33.993 -21.887 -19.930  0.00  0.00    +0.174 HD
ENDROOT
BRANCH   9  20
ATOM     20  C   UNL     1      32.727 -24.348 -14.131  0.00  0.00    +0.086 C 
ATOM     21  C   UNL     1      31.953 -23.306 -14.647  0.00  0.00    +0.012 C 
ATOM     22  C   UNL     1      32.110 -25.366 -13.397  0.00  0.00    +0.012 C 
ATOM     23  C   UNL     1      30.575 -23.280 -14.433  0.00  0.00    +0.001 C 
ATOM     24  C   UNL     1      30.732 -25.342 -13.183  0.00  0.00    +0.001 C 
ATOM     25  C   UNL     1      29.964 -24.299 -13.702  0.00  0.00    +0.000 C 
ENDBRANCH   9  20
TORSDOF 1
ENDMDL
MODEL 7
REMARK VINA RESULT:      -9.8      1.790      5.244
REMARK  Name = 6419766
REMARK  1 active torsions:
REMARK  status: ('A' for Active; 'I' for Inactive)
REMARK    1  A    between atoms: C_9  and  C_20
REMARK                            x       y       z     vdW  Elec       q    Type
REMARK                         _______ _______ _______ _____ _____    ______ ____
ROOT
ATOM      1  N   UNL     1      33.381 -24.999 -13.701  0.00  0.00    -0.274 N 
ATOM      2  N   UNL     1      34.596 -23.806 -15.324  0.00  0.00    -0.328 NA
ATOM      3  N   UNL     1      36.788 -22.938 -14.827  0.00  0.00    -0.343 NA
ATOM      4  N   UNL     1      30.295 -24.309 -15.022  0.00  0.00    -0.239 N 
ATOM      5  N   UNL     1      31.606 -24.019 -14.985  0.00  0.00    -0.166 NA
ATOM      6  C   UNL     1      35.582 -24.149 -13.145  0.00  0.00    +0.143 C 
ATOM      7  C   UNL     1      34.554 -24.296 -14.071  0.00  0.00    +0.185 C 
ATOM      8  C   UNL     1      36.713 -23.440 -13.582  0.00  0.00    +0.133 C 
ATOM      9  C   UNL     1      35.725 -23.147 -15.630  0.00  0.00    +0.138 C 
ATOM     10  C   UNL     1      32.041 -24.886 -14.106  0.00  0.00    +0.152 C 
ATOM     11  C   UNL     1      35.515 -24.671 -11.841  0.00  0.00    -0.011 C 
ATOM     12  C   UNL     1      37.763 -23.273 -12.682  0.00  0.00    +0.029 C 
ATOM     13  C   UNL     1      31.086 -25.729 -13.563  0.00  0.00    +0.048 C 
ATOM     14  C   UNL     1      29.931 -25.325 -14.187  0.00  0.00    +0.046 C 
ATOM     15  C   UNL     1      36.578 -24.488 -10.963  0.00  0.00    -0.004 C 
ATOM     16  C   UNL     1      37.704 -23.788 -11.384  0.00  0.00    +0.002 C 
ATOM     17  C   UNL     1      28.540 -25.794 -14.081  0.00  0.00    +0.049 C 
ATOM     18  H   UNL     1      33.535 -25.704 -13.031  0.00  0.00    +0.156 HD
ATOM     19  H   UNL     1      29.655 -23.831 -15.597  0.00  0.00    +0.174 HD
ENDROOT
BRANCH   9  20
ATOM     20  C   UNL     1      35.814 -22.606 -16.961  0.00  0.00    +0.086 C 
ATOM     21  C   UNL     1      34.743 -22.741 -17.849  0.00  0.00    +0.012 C 
ATOM     22  C   UNL     1      36.971 -21.939 -17.375  0.00  0.00    +0.012 C 
ATOM     23  C   UNL     1      34.828 -22.216 -19.138  0.00  0.00    +0.001 C 
ATOM     24  C   UNL     1      37.056 -21.413 -18.663  0.00  0.00    +0.001 C 
ATOM     25  C   UNL     1      35.984 -21.550 -19.546  0.00  0.00    +0.000 C 
ENDBRANCH   9  20
TORSDOF 1
ENDMDL
MODEL 8
REMARK VINA RESULT:      -9.7      1.636      6.505
REMARK  Name = 6419766
REMARK  1 active torsions:
REMARK  status: ('A' for Active; 'I' for Inactive)
REMARK    1  A    between atoms: C_9  and  C_20
REMARK                            x       y       z     vdW  Elec       q    Type
REMARK                         _______ _______ _______ _____ _____    ______ ____
ROOT
ATOM      1  N   UNL     1      32.758 -23.360 -15.839  0.00  0.00    -0.274 N 
ATOM      2  N   UNL     1      34.865 -23.605 -14.822  0.00  0.00    -0.328 NA
ATOM      3  N   UNL     1      36.878 -23.012 -16.005  0.00  0.00    -0.343 NA
ATOM      4  N   UNL     1      31.190 -25.739 -13.935  0.00  0.00    -0.239 N 
ATOM      5  N   UNL     1      32.347 -25.198 -14.352  0.00  0.00    -0.166 NA
ATOM      6  C   UNL     1      34.750 -22.747 -17.078  0.00  0.00    +0.143 C 
ATOM      7  C   UNL     1      34.168 -23.235 -15.912  0.00  0.00    +0.185 C 
ATOM      8  C   UNL     1      36.152 -22.651 -17.077  0.00  0.00    +0.133 C 
ATOM      9  C   UNL     1      36.196 -23.470 -14.935  0.00  0.00    +0.138 C 
ATOM     10  C   UNL     1      31.920 -24.243 -15.139  0.00  0.00    +0.152 C 
ATOM     11  C   UNL     1      34.000 -22.366 -18.204  0.00  0.00    -0.011 C 
ATOM     12  C   UNL     1      36.770 -22.167 -18.226  0.00  0.00    +0.029 C 
ATOM     13  C   UNL     1      30.546 -24.126 -15.260  0.00  0.00    +0.048 C 
ATOM     14  C   UNL     1      30.081 -25.133 -14.450  0.00  0.00    +0.046 C 
ATOM     15  C   UNL     1      34.645 -21.887 -19.339  0.00  0.00    -0.004 C 
ATOM     16  C   UNL     1      36.031 -21.787 -19.351  0.00  0.00    +0.002 C 
ATOM     17  C   UNL     1      28.718 -25.577 -14.115  0.00  0.00    +0.049 C 
ATOM     18  H   UNL     1      32.272 -22.701 -16.385  0.00  0.00    +0.156 HD
ATOM     19  H   UNL     1      31.146 -26.502 -13.315  0.00  0.00    +0.174 HD
ENDROOT
BRANCH   9  20
ATOM     20  C   UNL     1      36.982 -23.854 -13.792  0.00  0.00    +0.086 C 
ATOM     21  C   UNL     1      36.717 -23.299 -12.537  0.00  0.00    +0.012 C 
ATOM     22  C   UNL     1      38.015 -24.787 -13.929  0.00  0.00    +0.012 C 
ATOM     23  C   UNL     1      37.477 -23.673 -11.429  0.00  0.00    +0.001 C 
ATOM     24  C   UNL     1      38.775 -25.160 -12.821  0.00  0.00    +0.001 C 
ATOM     25  C   UNL     1      38.506 -24.604 -11.570  0.00  0.00    +0.000 C 
ENDBRANCH   9  20
TORSDOF 1
ENDMDL
