MODEL 1
REMARK VINA RESULT:     -12.3      0.000      0.000
REMARK  Name = 5288710
REMARK  3 active torsions:
REMARK  status: ('A' for Active; 'I' for Inactive)
REMARK    1  A    between atoms: C_6  and  N_18
REMARK    2  A    between atoms: C_9  and  C_15
REMARK    3  A    between atoms: N_18  and  C_29
REMARK                            x       y       z     vdW  Elec       q    Type
REMARK                         _______ _______ _______ _____ _____    ______ ____
ROOT
ATOM      1  O   UNL     1      34.999 -24.211 -15.614  0.00  0.00    -0.270 OA
ATOM      2  N   UNL     1      33.020 -24.310 -14.329  0.00  0.00    -0.280 N 
ATOM      3  C   UNL     1      31.514 -23.437 -15.832  0.00  0.00    +0.019 C 
ATOM      4  C   UNL     1      32.837 -23.464 -16.447  0.00  0.00    +0.069 C 
ATOM      5  C   UNL     1      31.682 -23.962 -14.548  0.00  0.00    +0.051 C 
ATOM      6  C   UNL     1      33.196 -23.065 -17.670  0.00  0.00    +0.066 C 
ATOM      7  C   UNL     1      33.805 -24.035 -15.452  0.00  0.00    +0.251 C 
ATOM      8  C   UNL     1      30.269 -23.024 -16.269  0.00  0.00    +0.005 C 
ATOM      9  C   UNL     1      29.193 -23.149 -15.386  0.00  0.00    +0.036 C 
ATOM     10  C   UNL     1      30.632 -24.095 -13.660  0.00  0.00    +0.015 C 
ATOM     11  C   UNL     1      29.371 -23.680 -14.094  0.00  0.00    +0.004 C 
ATOM     12  H   UNL     1      33.363 -24.699 -13.492  0.00  0.00    +0.155 HD
ENDROOT
BRANCH   9  15
ATOM     13  O   UNL     1      27.760 -22.337 -17.098  0.00  0.00    -0.431 OA
ATOM     14  N   UNL     1      25.736 -22.152 -16.107  0.00  0.00    -0.203 NA
ATOM     15  C   UNL     1      27.877 -22.728 -15.803  0.00  0.00    +0.166 C 
ATOM     16  C   UNL     1      26.656 -22.618 -15.203  0.00  0.00    +0.140 C 
ATOM     17  C   UNL     1      26.444 -22.006 -17.203  0.00  0.00    +0.285 C 
ENDBRANCH   9  15
BRANCH   6  18
ATOM     18  N   UNL     1      34.426 -23.095 -18.225  0.00  0.00    -0.311 N 
ATOM     19  H   UNL     1      34.932 -23.929 -18.095  0.00  0.00    +0.152 HD
BRANCH  18  29
ATOM     20  S   UNL     1      35.654 -18.477 -22.267  0.00  0.00    -0.002 S 
ATOM     21  O   UNL     1      35.864 -19.004 -23.602  0.00  0.00    -0.172 OA
ATOM     22  O   UNL     1      35.440 -17.063 -22.033  0.00  0.00    -0.172 OA
ATOM     23  C   UNL     1      34.307 -19.382 -21.520  0.00  0.00    +0.177 C 
ATOM     24  C   UNL     1      37.007 -19.021 -21.237  0.00  0.00    +0.177 C 
ATOM     25  C   UNL     1      35.009 -20.296 -20.574  0.00  0.00    +0.000 C 
ATOM     26  C   UNL     1      36.389 -20.112 -20.430  0.00  0.00    -0.001 C 
ATOM     27  C   UNL     1      34.353 -21.284 -19.843  0.00  0.00    +0.012 C 
ATOM     28  C   UNL     1      37.116 -20.915 -19.553  0.00  0.00    -0.002 C 
ATOM     29  C   UNL     1      35.082 -22.091 -18.968  0.00  0.00    +0.048 C 
ATOM     30  C   UNL     1      36.459 -21.906 -18.824  0.00  0.00    +0.014 C 
ENDBRANCH  18  29
ENDBRANCH   6  18
TORSDOF 3
ENDMDL
MODEL 2
REMARK VINA RESULT:     -11.4      2.377      3.767
REMARK  Name = 5288710
REMARK  3 active torsions:
REMARK  status: ('A' for Active; 'I' for Inactive)
REMARK    1  A    between atoms: C_6  and  N_18
REMARK    2  A    between atoms: C_9  and  C_15
REMARK    3  A    between atoms: N_18  and  C_29
REMARK                            x       y       z     vdW  Elec       q    Type
REMARK                         _______ _______ _______ _____ _____    ______ ____
ROOT
ATOM      1  O   UNL     1      37.170 -21.799 -18.945  0.00  0.00    -0.270 OA
ATOM      2  N   UNL     1      36.139 -22.800 -17.070  0.00  0.00    -0.280 N 
ATOM      3  C   UNL     1      33.927 -22.597 -17.665  0.00  0.00    +0.019 C 
ATOM      4  C   UNL     1      34.756 -22.022 -18.719  0.00  0.00    +0.069 C 
ATOM      5  C   UNL     1      34.817 -23.054 -16.689  0.00  0.00    +0.051 C 
ATOM      6  C   UNL     1      34.372 -21.454 -19.865  0.00  0.00    +0.066 C 
ATOM      7  C   UNL     1      36.195 -22.163 -18.314  0.00  0.00    +0.251 C 
ATOM      8  C   UNL     1      32.562 -22.743 -17.500  0.00  0.00    +0.005 C 
ATOM      9  C   UNL     1      32.108 -23.360 -16.331  0.00  0.00    +0.036 C 
ATOM     10  C   UNL     1      34.390 -23.667 -15.527  0.00  0.00    +0.015 C 
ATOM     11  C   UNL     1      33.012 -23.818 -15.353  0.00  0.00    +0.004 C 
ATOM     12  H   UNL     1      36.928 -23.039 -16.532  0.00  0.00    +0.155 HD
ENDROOT
BRANCH   9  15
ATOM     13  O   UNL     1      29.881 -22.673 -16.795  0.00  0.00    -0.431 OA
ATOM     14  N   UNL     1      28.588 -24.070 -15.572  0.00  0.00    -0.203 NA
ATOM     15  C   UNL     1      30.690 -23.530 -16.120  0.00  0.00    +0.166 C 
ATOM     16  C   UNL     1      29.912 -24.374 -15.382  0.00  0.00    +0.140 C 
ATOM     17  C   UNL     1      28.633 -23.062 -16.413  0.00  0.00    +0.285 C 
ENDBRANCH   9  15
BRANCH   6  18
ATOM     18  N   UNL     1      35.152 -20.925 -20.831  0.00  0.00    -0.311 N 
ATOM     19  H   UNL     1      35.923 -21.473 -21.104  0.00  0.00    +0.152 HD
BRANCH  18  29
ATOM     20  S   UNL     1      34.098 -14.889 -22.105  0.00  0.00    -0.002 S 
ATOM     21  O   UNL     1      32.675 -14.627 -22.212  0.00  0.00    -0.172 OA
ATOM     22  O   UNL     1      35.061 -13.814 -21.985  0.00  0.00    -0.172 OA
ATOM     23  C   UNL     1      34.350 -16.025 -20.750  0.00  0.00    +0.177 C 
ATOM     24  C   UNL     1      34.576 -15.925 -23.478  0.00  0.00    +0.177 C 
ATOM     25  C   UNL     1      34.610 -17.317 -21.448  0.00  0.00    +0.000 C 
ATOM     26  C   UNL     1      34.726 -17.266 -22.843  0.00  0.00    -0.001 C 
ATOM     27  C   UNL     1      34.754 -18.529 -20.777  0.00  0.00    +0.012 C 
ATOM     28  C   UNL     1      34.984 -18.427 -23.568  0.00  0.00    -0.002 C 
ATOM     29  C   UNL     1      35.009 -19.693 -21.503  0.00  0.00    +0.048 C 
ATOM     30  C   UNL     1      35.124 -19.642 -22.895  0.00  0.00    +0.014 C 
ENDBRANCH  18  29
ENDBRANCH   6  18
TORSDOF 3
ENDMDL
MODEL 3
REMARK VINA RESULT:     -11.2     10.988     14.200
REMARK  Name = 5288710
REMARK  3 active torsions:
REMARK  status: ('A' for Active; 'I' for Inactive)
REMARK    1  A    between atoms: C_6  and  N_18
REMARK    2  A    between atoms: C_9  and  C_15
REMARK    3  A    between atoms: N_18  and  C_29
REMARK                            x       y       z     vdW  Elec       q    Type
REMARK                         _______ _______ _______ _____ _____    ______ ____
ROOT
ATOM      1  O   UNL     1      31.126 -10.205 -19.045  0.00  0.00    -0.270 OA
ATOM      2  N   UNL     1      31.769 -12.469 -19.247  0.00  0.00    -0.280 N 
ATOM      3  C   UNL     1      32.364 -12.526 -21.468  0.00  0.00    +0.019 C 
ATOM      4  C   UNL     1      31.923 -11.177 -21.129  0.00  0.00    +0.069 C 
ATOM      5  C   UNL     1      32.251 -13.269 -20.289  0.00  0.00    +0.051 C 
ATOM      6  C   UNL     1      31.847 -10.103 -21.919  0.00  0.00    +0.066 C 
ATOM      7  C   UNL     1      31.539 -11.159 -19.678  0.00  0.00    +0.251 C 
ATOM      8  C   UNL     1      32.823 -13.114 -22.632  0.00  0.00    +0.005 C 
ATOM      9  C   UNL     1      33.166 -14.469 -22.588  0.00  0.00    +0.036 C 
ATOM     10  C   UNL     1      32.585 -14.608 -20.224  0.00  0.00    +0.015 C 
ATOM     11  C   UNL     1      33.049 -15.209 -21.396  0.00  0.00    +0.004 C 
ATOM     12  H   UNL     1      31.613 -12.788 -18.329  0.00  0.00    +0.155 HD
ENDROOT
BRANCH   9  15
ATOM     13  O   UNL     1      34.580 -16.089 -23.597  0.00  0.00    -0.431 OA
ATOM     14  N   UNL     1      34.161 -15.909 -25.813  0.00  0.00    -0.203 NA
ATOM     15  C   UNL     1      33.647 -15.120 -23.783  0.00  0.00    +0.166 C 
ATOM     16  C   UNL     1      33.392 -15.010 -25.119  0.00  0.00    +0.140 C 
ATOM     17  C   UNL     1      34.838 -16.515 -24.865  0.00  0.00    +0.285 C 
ENDBRANCH   9  15
BRANCH   6  18
ATOM     18  N   UNL     1      31.436  -8.859 -21.591  0.00  0.00    -0.311 N 
ATOM     19  H   UNL     1      30.933  -8.785 -20.748  0.00  0.00    +0.152 HD
BRANCH  18  29
ATOM     20  S   UNL     1      30.953  -2.948 -23.590  0.00  0.00    -0.002 S 
ATOM     21  O   UNL     1      29.838  -2.805 -24.506  0.00  0.00    -0.172 OA
ATOM     22  O   UNL     1      31.608  -1.796 -23.005  0.00  0.00    -0.172 OA
ATOM     23  C   UNL     1      30.448  -4.041 -22.270  0.00  0.00    +0.177 C 
ATOM     24  C   UNL     1      32.192  -3.962 -24.380  0.00  0.00    +0.177 C 
ATOM     25  C   UNL     1      31.136  -5.316 -22.617  0.00  0.00    +0.000 C 
ATOM     26  C   UNL     1      32.028  -5.277 -23.696  0.00  0.00    -0.001 C 
ATOM     27  C   UNL     1      30.939  -6.503 -21.915  0.00  0.00    +0.012 C 
ATOM     28  C   UNL     1      32.724  -6.423 -24.073  0.00  0.00    -0.002 C 
ATOM     29  C   UNL     1      31.632  -7.653 -22.295  0.00  0.00    +0.048 C 
ATOM     30  C   UNL     1      32.522  -7.612 -23.372  0.00  0.00    +0.014 C 
ENDBRANCH  18  29
ENDBRANCH   6  18
TORSDOF 3
ENDMDL
MODEL 4
REMARK VINA RESULT:     -10.6      3.434      6.871
REMARK  Name = 5288710
REMARK  3 active torsions:
REMARK  status: ('A' for Active; 'I' for Inactive)
REMARK    1  A    between atoms: C_6  and  N_18
REMARK    2  A    between atoms: C_9  and  C_15
REMARK    3  A    between atoms: N_18  and  C_29
REMARK                            x       y       z     vdW  Elec       q    Type
REMARK                         _______ _______ _______ _____ _____    ______ ____
ROOT
ATOM      1  O   UNL     1      32.225 -23.176 -15.176  0.00  0.00    -0.270 OA
ATOM      2  N   UNL     1      33.630 -24.050 -13.491  0.00  0.00    -0.280 N 
ATOM      3  C   UNL     1      35.555 -24.391 -14.703  0.00  0.00    +0.019 C 
ATOM      4  C   UNL     1      34.531 -23.839 -15.584  0.00  0.00    +0.069 C 
ATOM      5  C   UNL     1      34.955 -24.499 -13.445  0.00  0.00    +0.051 C 
ATOM      6  C   UNL     1      34.618 -23.552 -16.886  0.00  0.00    +0.066 C 
ATOM      7  C   UNL     1      33.284 -23.624 -14.777  0.00  0.00    +0.251 C 
ATOM      8  C   UNL     1      36.868 -24.777 -14.895  0.00  0.00    +0.005 C 
ATOM      9  C   UNL     1      37.569 -25.277 -13.793  0.00  0.00    +0.036 C 
ATOM     10  C   UNL     1      35.630 -24.988 -12.343  0.00  0.00    +0.015 C 
ATOM     11  C   UNL     1      36.957 -25.381 -12.529  0.00  0.00    +0.004 C 
ATOM     12  H   UNL     1      33.021 -24.038 -12.718  0.00  0.00    +0.155 HD
ENDROOT
BRANCH   9  15
ATOM     13  O   UNL     1      39.395 -26.605 -13.055  0.00  0.00    -0.431 OA
ATOM     14  N   UNL     1      41.076 -26.108 -14.485  0.00  0.00    -0.203 NA
ATOM     15  C   UNL     1      38.943 -25.692 -13.952  0.00  0.00    +0.166 C 
ATOM     16  C   UNL     1      39.955 -25.391 -14.816  0.00  0.00    +0.140 C 
ATOM     17  C   UNL     1      40.685 -26.805 -13.442  0.00  0.00    +0.285 C 
ENDBRANCH   9  15
BRANCH   6  18
ATOM     18  N   UNL     1      33.660 -23.041 -17.688  0.00  0.00    -0.311 N 
ATOM     19  H   UNL     1      32.748 -23.375 -17.530  0.00  0.00    +0.152 HD
BRANCH  18  29
ATOM     20  S   UNL     1      36.029 -18.948 -21.788  0.00  0.00    -0.002 S 
ATOM     21  O   UNL     1      36.258 -17.663 -21.158  0.00  0.00    -0.172 OA
ATOM     22  O   UNL     1      36.595 -19.272 -23.082  0.00  0.00    -0.172 OA
ATOM     23  C   UNL     1      36.500 -20.224 -20.631  0.00  0.00    +0.177 C 
ATOM     24  C   UNL     1      34.266 -19.224 -21.860  0.00  0.00    +0.177 C 
ATOM     25  C   UNL     1      35.185 -20.724 -20.138  0.00  0.00    +0.000 C 
ATOM     26  C   UNL     1      34.043 -20.213 -20.766  0.00  0.00    -0.001 C 
ATOM     27  C   UNL     1      35.062 -21.665 -19.118  0.00  0.00    +0.012 C 
ATOM     28  C   UNL     1      32.776 -20.642 -20.374  0.00  0.00    -0.002 C 
ATOM     29  C   UNL     1      33.794 -22.091 -18.723  0.00  0.00    +0.048 C 
ATOM     30  C   UNL     1      32.654 -21.581 -19.350  0.00  0.00    +0.014 C 
ENDBRANCH  18  29
ENDBRANCH   6  18
TORSDOF 3
ENDMDL
MODEL 5
REMARK VINA RESULT:     -10.6      2.657      5.415
REMARK  Name = 5288710
REMARK  3 active torsions:
REMARK  status: ('A' for Active; 'I' for Inactive)
REMARK    1  A    between atoms: C_6  and  N_18
REMARK    2  A    between atoms: C_9  and  C_15
REMARK    3  A    between atoms: N_18  and  C_29
REMARK                            x       y       z     vdW  Elec       q    Type
REMARK                         _______ _______ _______ _____ _____    ______ ____
ROOT
ATOM      1  O   UNL     1      31.589 -22.787 -17.559  0.00  0.00    -0.270 OA
ATOM      2  N   UNL     1      31.674 -23.536 -15.320  0.00  0.00    -0.280 N 
ATOM      3  C   UNL     1      33.938 -23.874 -15.091  0.00  0.00    +0.019 C 
ATOM      4  C   UNL     1      33.664 -23.396 -16.442  0.00  0.00    +0.069 C 
ATOM      5  C   UNL     1      32.696 -23.940 -14.453  0.00  0.00    +0.051 C 
ATOM      6  C   UNL     1      34.527 -23.170 -17.436  0.00  0.00    +0.066 C 
ATOM      7  C   UNL     1      32.184 -23.182 -16.573  0.00  0.00    +0.251 C 
ATOM      8  C   UNL     1      35.095 -24.227 -14.422  0.00  0.00    +0.005 C 
ATOM      9  C   UNL     1      34.978 -24.652 -13.095  0.00  0.00    +0.036 C 
ATOM     10  C   UNL     1      32.558 -24.355 -13.143  0.00  0.00    +0.015 C 
ATOM     11  C   UNL     1      33.723 -24.715 -12.461  0.00  0.00    +0.004 C 
ATOM     12  H   UNL     1      30.721 -23.505 -15.079  0.00  0.00    +0.155 HD
ENDROOT
BRANCH   9  15
ATOM     13  O   UNL     1      36.829 -26.118 -12.831  0.00  0.00    -0.431 OA
ATOM     14  N   UNL     1      37.922 -25.333 -11.013  0.00  0.00    -0.203 NA
ATOM     15  C   UNL     1      36.162 -25.032 -12.362  0.00  0.00    +0.166 C 
ATOM     16  C   UNL     1      36.820 -24.555 -11.265  0.00  0.00    +0.140 C 
ATOM     17  C   UNL     1      37.875 -26.234 -11.967  0.00  0.00    +0.285 C 
ENDBRANCH   9  15
BRANCH   6  18
ATOM     18  N   UNL     1      34.257 -22.728 -18.683  0.00  0.00    -0.311 N 
ATOM     19  H   UNL     1      33.520 -23.185 -19.149  0.00  0.00    +0.152 HD
BRANCH  18  29
ATOM     20  S   UNL     1      35.330 -17.821 -22.418  0.00  0.00    -0.002 S 
ATOM     21  O   UNL     1      35.350 -18.228 -23.809  0.00  0.00    -0.172 OA
ATOM     22  O   UNL     1      35.242 -16.426 -22.035  0.00  0.00    -0.172 OA
ATOM     23  C   UNL     1      34.019 -18.714 -21.597  0.00  0.00    +0.177 C 
ATOM     24  C   UNL     1      36.752 -18.538 -21.610  0.00  0.00    +0.177 C 
ATOM     25  C   UNL     1      34.760 -19.754 -20.828  0.00  0.00    +0.000 C 
ATOM     26  C   UNL     1      36.157 -19.664 -20.834  0.00  0.00    -0.001 C 
ATOM     27  C   UNL     1      34.125 -20.768 -20.113  0.00  0.00    +0.012 C 
ATOM     28  C   UNL     1      36.922 -20.589 -20.126  0.00  0.00    -0.002 C 
ATOM     29  C   UNL     1      34.892 -21.696 -19.407  0.00  0.00    +0.048 C 
ATOM     30  C   UNL     1      36.286 -21.606 -19.414  0.00  0.00    +0.014 C 
ENDBRANCH  18  29
ENDBRANCH   6  18
TORSDOF 3
ENDMDL
MODEL 6
REMARK VINA RESULT:     -10.5      7.348     11.588
REMARK  Name = 5288710
REMARK  3 active torsions:
REMARK  status: ('A' for Active; 'I' for Inactive)
REMARK    1  A    between atoms: C_6  and  N_18
REMARK    2  A    between atoms: C_9  and  C_15
REMARK    3  A    between atoms: N_18  and  C_29
REMARK                            x       y       z     vdW  Elec       q    Type
REMARK                         _______ _______ _______ _____ _____    ______ ____
ROOT
ATOM      1  O   UNL     1      33.123 -14.463 -26.148  0.00  0.00    -0.270 OA
ATOM      2  N   UNL     1      33.471 -16.772 -25.790  0.00  0.00    -0.280 N 
ATOM      3  C   UNL     1      34.581 -16.708 -23.777  0.00  0.00    +0.019 C 
ATOM      4  C   UNL     1      34.265 -15.344 -24.188  0.00  0.00    +0.069 C 
ATOM      5  C   UNL     1      34.076 -17.535 -24.785  0.00  0.00    +0.051 C 
ATOM      6  C   UNL     1      34.541 -14.199 -23.557  0.00  0.00    +0.066 C 
ATOM      7  C   UNL     1      33.543 -15.405 -25.502  0.00  0.00    +0.251 C 
ATOM      8  C   UNL     1      35.222 -17.247 -22.677  0.00  0.00    +0.005 C 
ATOM      9  C   UNL     1      35.348 -18.638 -22.612  0.00  0.00    +0.036 C 
ATOM     10  C   UNL     1      34.189 -18.911 -24.740  0.00  0.00    +0.015 C 
ATOM     11  C   UNL     1      34.837 -19.462 -23.632  0.00  0.00    +0.004 C 
ATOM     12  H   UNL     1      33.050 -17.149 -26.596  0.00  0.00    +0.155 HD
ENDROOT
BRANCH   9  15
ATOM     13  O   UNL     1      35.357 -20.266 -20.881  0.00  0.00    -0.431 OA
ATOM     14  N   UNL     1      37.311 -19.930 -19.793  0.00  0.00    -0.203 NA
ATOM     15  C   UNL     1      36.014 -19.240 -21.481  0.00  0.00    +0.166 C 
ATOM     16  C   UNL     1      37.194 -19.036 -20.827  0.00  0.00    +0.140 C 
ATOM     17  C   UNL     1      36.201 -20.627 -19.876  0.00  0.00    +0.285 C 
ENDBRANCH   9  15
BRANCH   6  18
ATOM     18  N   UNL     1      34.243 -12.943 -23.951  0.00  0.00    -0.311 N 
ATOM     19  H   UNL     1      34.561 -12.689 -24.848  0.00  0.00    +0.152 HD
BRANCH  18  29
ATOM     20  S   UNL     1      32.160  -7.419 -21.871  0.00  0.00    -0.002 S 
ATOM     21  O   UNL     1      33.069  -6.865 -20.887  0.00  0.00    -0.172 OA
ATOM     22  O   UNL     1      31.122  -6.616 -22.485  0.00  0.00    -0.172 OA
ATOM     23  C   UNL     1      33.136  -8.166 -23.168  0.00  0.00    +0.177 C 
ATOM     24  C   UNL     1      31.404  -8.876 -21.168  0.00  0.00    +0.177 C 
ATOM     25  C   UNL     1      33.012  -9.623 -22.876  0.00  0.00    +0.000 C 
ATOM     26  C   UNL     1      32.127  -9.986 -21.854  0.00  0.00    -0.001 C 
ATOM     27  C   UNL     1      33.715 -10.601 -23.576  0.00  0.00    +0.012 C 
ATOM     28  C   UNL     1      31.943 -11.329 -21.530  0.00  0.00    -0.002 C 
ATOM     29  C   UNL     1      33.533 -11.946 -23.249  0.00  0.00    +0.048 C 
ATOM     30  C   UNL     1      32.650 -12.308 -22.229  0.00  0.00    +0.014 C 
ENDBRANCH  18  29
ENDBRANCH   6  18
TORSDOF 3
ENDMDL
MODEL 7
REMARK VINA RESULT:     -10.5      3.215      8.736
REMARK  Name = 5288710
REMARK  3 active torsions:
REMARK  status: ('A' for Active; 'I' for Inactive)
REMARK    1  A    between atoms: C_6  and  N_18
REMARK    2  A    between atoms: C_9  and  C_15
REMARK    3  A    between atoms: N_18  and  C_29
REMARK                            x       y       z     vdW  Elec       q    Type
REMARK                         _______ _______ _______ _____ _____    ______ ____
ROOT
ATOM      1  O   UNL     1      36.901 -22.341 -17.115  0.00  0.00    -0.270 OA
ATOM      2  N   UNL     1      37.569 -20.591 -18.555  0.00  0.00    -0.280 N 
ATOM      3  C   UNL     1      35.875 -20.674 -20.108  0.00  0.00    +0.019 C 
ATOM      4  C   UNL     1      35.646 -21.704 -19.101  0.00  0.00    +0.069 C 
ATOM      5  C   UNL     1      37.055 -20.028 -19.728  0.00  0.00    +0.051 C 
ATOM      6  C   UNL     1      34.646 -22.587 -19.025  0.00  0.00    +0.066 C 
ATOM      7  C   UNL     1      36.760 -21.636 -18.097  0.00  0.00    +0.251 C 
ATOM      8  C   UNL     1      35.189 -20.282 -21.242  0.00  0.00    +0.005 C 
ATOM      9  C   UNL     1      35.715 -19.225 -21.991  0.00  0.00    +0.036 C 
ATOM     10  C   UNL     1      37.591 -18.981 -20.452  0.00  0.00    +0.015 C 
ATOM     11  C   UNL     1      36.905 -18.580 -21.601  0.00  0.00    +0.004 C 
ATOM     12  H   UNL     1      38.394 -20.291 -18.109  0.00  0.00    +0.155 HD
ENDROOT
BRANCH   9  15
ATOM     13  O   UNL     1      35.163 -17.472 -23.497  0.00  0.00    -0.431 OA
ATOM     14  N   UNL     1      33.860 -18.457 -25.063  0.00  0.00    -0.203 NA
ATOM     15  C   UNL     1      35.030 -18.787 -23.184  0.00  0.00    +0.166 C 
ATOM     16  C   UNL     1      34.245 -19.383 -24.127  0.00  0.00    +0.140 C 
ATOM     17  C   UNL     1      34.432 -17.352 -24.640  0.00  0.00    +0.285 C 
ENDBRANCH   9  15
BRANCH   6  18
ATOM     18  N   UNL     1      34.447 -23.536 -18.085  0.00  0.00    -0.311 N 
ATOM     19  H   UNL     1      35.018 -24.335 -18.158  0.00  0.00    +0.152 HD
BRANCH  18  29
ATOM     20  S   UNL     1      29.173 -23.400 -14.718  0.00  0.00    -0.002 S 
ATOM     21  O   UNL     1      28.690 -22.040 -14.573  0.00  0.00    -0.172 OA
ATOM     22  O   UNL     1      28.339 -24.540 -14.398  0.00  0.00    -0.172 OA
ATOM     23  C   UNL     1      29.782 -23.597 -16.386  0.00  0.00    +0.177 C 
ATOM     24  C   UNL     1      30.702 -23.546 -13.806  0.00  0.00    +0.177 C 
ATOM     25  C   UNL     1      31.261 -23.557 -16.203  0.00  0.00    +0.000 C 
ATOM     26  C   UNL     1      31.731 -23.531 -14.885  0.00  0.00    -0.001 C 
ATOM     27  C   UNL     1      32.159 -23.561 -17.268  0.00  0.00    +0.012 C 
ATOM     28  C   UNL     1      33.101 -23.509 -14.630  0.00  0.00    -0.002 C 
ATOM     29  C   UNL     1      33.531 -23.535 -17.012  0.00  0.00    +0.048 C 
ATOM     30  C   UNL     1      34.000 -23.509 -15.697  0.00  0.00    +0.014 C 
ENDBRANCH  18  29
ENDBRANCH   6  18
TORSDOF 3
ENDMDL
MODEL 8
REMARK VINA RESULT:     -10.3     10.402     13.967
REMARK  Name = 5288710
REMARK  3 active torsions:
REMARK  status: ('A' for Active; 'I' for Inactive)
REMARK    1  A    between atoms: C_6  and  N_18
REMARK    2  A    between atoms: C_9  and  C_15
REMARK    3  A    between atoms: N_18  and  C_29
REMARK                            x       y       z     vdW  Elec       q    Type
REMARK                         _______ _______ _______ _____ _____    ______ ____
ROOT
ATOM      1  O   UNL     1      31.757 -11.161 -18.786  0.00  0.00    -0.270 OA
ATOM      2  N   UNL     1      31.990  -8.814 -18.926  0.00  0.00    -0.280 N 
ATOM      3  C   UNL     1      32.048  -8.547 -21.210  0.00  0.00    +0.019 C 
ATOM      4  C   UNL     1      31.904  -9.966 -20.902  0.00  0.00    +0.069 C 
ATOM      5  C   UNL     1      32.094  -7.893 -19.975  0.00  0.00    +0.051 C 
ATOM      6  C   UNL     1      31.816 -10.997 -21.747  0.00  0.00    +0.066 C 
ATOM      7  C   UNL     1      31.869 -10.121 -19.409  0.00  0.00    +0.251 C 
ATOM      8  C   UNL     1      32.133  -7.833 -22.390  0.00  0.00    +0.005 C 
ATOM      9  C   UNL     1      32.268  -6.444 -22.305  0.00  0.00    +0.036 C 
ATOM     10  C   UNL     1      32.226  -6.523 -19.868  0.00  0.00    +0.015 C 
ATOM     11  C   UNL     1      32.314  -5.794 -21.057  0.00  0.00    +0.004 C 
ATOM     12  H   UNL     1      32.000  -8.573 -17.972  0.00  0.00    +0.155 HD
ENDROOT
BRANCH   9  15
ATOM     13  O   UNL     1      33.052  -6.229 -24.537  0.00  0.00    -0.431 OA
ATOM     14  N   UNL     1      32.309  -4.201 -25.209  0.00  0.00    -0.203 NA
ATOM     15  C   UNL     1      32.362  -5.662 -23.515  0.00  0.00    +0.166 C 
ATOM     16  C   UNL     1      31.912  -4.438 -23.917  0.00  0.00    +0.140 C 
ATOM     17  C   UNL     1      32.974  -5.289 -25.520  0.00  0.00    +0.285 C 
ENDBRANCH   9  15
BRANCH   6  18
ATOM     18  N   UNL     1      31.684 -12.306 -21.446  0.00  0.00    -0.311 N 
ATOM     19  H   UNL     1      30.922 -12.537 -20.867  0.00  0.00    +0.152 HD
BRANCH  18  29
ATOM     20  S   UNL     1      34.518 -16.700 -24.886  0.00  0.00    -0.002 S 
ATOM     21  O   UNL     1      33.637 -17.830 -25.104  0.00  0.00    -0.172 OA
ATOM     22  O   UNL     1      35.734 -16.525 -25.655  0.00  0.00    -0.172 OA
ATOM     23  C   UNL     1      33.548 -15.207 -25.020  0.00  0.00    +0.177 C 
ATOM     24  C   UNL     1      34.936 -16.649 -23.151  0.00  0.00    +0.177 C 
ATOM     25  C   UNL     1      33.383 -14.793 -23.597  0.00  0.00    +0.000 C 
ATOM     26  C   UNL     1      34.092 -15.530 -22.642  0.00  0.00    -0.001 C 
ATOM     27  C   UNL     1      32.584 -13.720 -23.205  0.00  0.00    +0.012 C 
ATOM     28  C   UNL     1      34.004 -15.196 -21.292  0.00  0.00    -0.002 C 
ATOM     29  C   UNL     1      32.493 -13.389 -21.852  0.00  0.00    +0.048 C 
ATOM     30  C   UNL     1      33.201 -14.125 -20.899  0.00  0.00    +0.014 C 
ENDBRANCH  18  29
ENDBRANCH   6  18
TORSDOF 3
ENDMDL
MODEL 9
REMARK VINA RESULT:     -10.1     11.164     14.424
REMARK  Name = 5288710
REMARK  3 active torsions:
REMARK  status: ('A' for Active; 'I' for Inactive)
REMARK    1  A    between atoms: C_6  and  N_18
REMARK    2  A    between atoms: C_9  and  C_15
REMARK    3  A    between atoms: N_18  and  C_29
REMARK                            x       y       z     vdW  Elec       q    Type
REMARK                         _______ _______ _______ _____ _____    ______ ____
ROOT
ATOM      1  O   UNL     1      31.283  -9.560 -19.123  0.00  0.00    -0.270 OA
ATOM      2  N   UNL     1      31.731 -11.864 -19.383  0.00  0.00    -0.280 N 
ATOM      3  C   UNL     1      32.281 -11.923 -21.615  0.00  0.00    +0.019 C 
ATOM      4  C   UNL     1      31.961 -10.550 -21.241  0.00  0.00    +0.069 C 
ATOM      5  C   UNL     1      32.126 -12.679 -20.450  0.00  0.00    +0.051 C 
ATOM      6  C   UNL     1      31.961  -9.456 -22.008  0.00  0.00    +0.066 C 
ATOM      7  C   UNL     1      31.604 -10.531 -19.783  0.00  0.00    +0.251 C 
ATOM      8  C   UNL     1      32.669 -12.522 -22.799  0.00  0.00    +0.005 C 
ATOM      9  C   UNL     1      32.898 -13.901 -22.789  0.00  0.00    +0.036 C 
ATOM     10  C   UNL     1      32.347 -14.042 -20.417  0.00  0.00    +0.015 C 
ATOM     11  C   UNL     1      32.739 -14.655 -21.610  0.00  0.00    +0.004 C 
ATOM     12  H   UNL     1      31.564 -12.189 -18.469  0.00  0.00    +0.155 HD
ENDROOT
BRANCH   9  15
ATOM     13  O   UNL     1      34.030 -15.700 -23.850  0.00  0.00    -0.431 OA
ATOM     14  N   UNL     1      33.751 -15.323 -26.063  0.00  0.00    -0.203 NA
ATOM     15  C   UNL     1      33.302 -14.565 -24.005  0.00  0.00    +0.166 C 
ATOM     16  C   UNL     1      33.132 -14.335 -25.340  0.00  0.00    +0.140 C 
ATOM     17  C   UNL     1      34.261 -16.097 -25.132  0.00  0.00    +0.285 C 
ENDBRANCH   9  15
BRANCH   6  18
ATOM     18  N   UNL     1      31.662  -8.190 -21.647  0.00  0.00    -0.311 N 
ATOM     19  H   UNL     1      31.328  -8.075 -20.728  0.00  0.00    +0.152 HD
BRANCH  18  29
ATOM     20  S   UNL     1      33.097  -4.070 -26.135  0.00  0.00    -0.002 S 
ATOM     21  O   UNL     1      34.444  -3.563 -25.956  0.00  0.00    -0.172 OA
ATOM     22  O   UNL     1      32.369  -3.871 -27.372  0.00  0.00    -0.172 OA
ATOM     23  C   UNL     1      33.109  -5.817 -25.762  0.00  0.00    +0.177 C 
ATOM     24  C   UNL     1      32.095  -3.468 -24.786  0.00  0.00    +0.177 C 
ATOM     25  C   UNL     1      32.479  -5.870 -24.412  0.00  0.00    +0.000 C 
ATOM     26  C   UNL     1      31.961  -4.669 -23.913  0.00  0.00    -0.001 C 
ATOM     27  C   UNL     1      32.380  -7.041 -23.664  0.00  0.00    +0.012 C 
ATOM     28  C   UNL     1      31.342  -4.638 -22.665  0.00  0.00    -0.002 C 
ATOM     29  C   UNL     1      31.764  -7.009 -22.413  0.00  0.00    +0.048 C 
ATOM     30  C   UNL     1      31.247  -5.810 -21.915  0.00  0.00    +0.014 C 
ENDBRANCH  18  29
ENDBRANCH   6  18
TORSDOF 3
ENDMDL
