MODEL 1
REMARK VINA RESULT:     -12.7      0.000      0.000
REMARK  Name = 11987860
REMARK  5 active torsions:
REMARK  status: ('A' for Active; 'I' for Inactive)
REMARK    1  A    between atoms: N_2  and  C_19
REMARK    2  A    between atoms: C_3  and  C_11
REMARK    3  A    between atoms: N_9  and  O_17
REMARK    4  A    between atoms: C_19  and  C_20
REMARK    5  A    between atoms: C_23  and  C_26
REMARK                            x       y       z     vdW  Elec       q    Type
REMARK                         _______ _______ _______ _____ _____    ______ ____
ROOT
ATOM      1  O   UNL     1      33.598 -24.300 -14.916  0.00  0.00    -0.272 OA
ATOM      2  N   UNL     1      34.584 -23.716 -16.943  0.00  0.00    -0.298 N 
ATOM      3  C   UNL     1      34.583 -24.189 -15.642  0.00  0.00    +0.253 C 
ATOM      4  H   UNL     1      35.442 -23.673 -17.425  0.00  0.00    +0.150 HD
ENDROOT
BRANCH   3  11
ATOM      5  O   UNL     1      35.979 -23.963 -12.977  0.00  0.00    -0.327 OA
ATOM      6  O   UNL     1      35.766 -25.781 -14.408  0.00  0.00    -0.320 OA
ATOM      7  O   UNL     1      40.613 -24.845 -14.480  0.00  0.00    -0.250 OA
ATOM      8  N   UNL     1      38.466 -25.090 -13.633  0.00  0.00    -0.255 N 
ATOM      9  N   UNL     1      40.055 -26.809 -13.441  0.00  0.00    -0.181 N 
ATOM     10  C   UNL     1      36.562 -23.583 -14.231  0.00  0.00    +0.174 C 
ATOM     11  C   UNL     1      35.948 -24.594 -15.185  0.00  0.00    +0.222 C 
ATOM     12  C   UNL     1      36.069 -25.389 -13.061  0.00  0.00    +0.256 C 
ATOM     13  C   UNL     1      38.078 -23.744 -14.082  0.00  0.00    +0.128 C 
ATOM     14  C   UNL     1      37.511 -25.793 -12.752  0.00  0.00    +0.156 C 
ATOM     15  C   UNL     1      39.776 -25.536 -13.891  0.00  0.00    +0.326 C 
ATOM     16  H   UNL     1      39.389 -27.360 -12.972  0.00  0.00    +0.184 HD
BRANCH   9  17
ATOM     17  O   UNL     1      41.358 -27.263 -13.700  0.00  0.00    -0.294 OA
ATOM     18  H   UNL     1      41.992 -26.551 -13.516  0.00  0.00    +0.241 HD
ENDBRANCH   9  17
ENDBRANCH   3  11
BRANCH   2  19
ATOM     19  C   UNL     1      33.388 -23.280 -17.626  0.00  0.00    +0.116 C 
BRANCH  19  20
ATOM     20  C   UNL     1      33.719 -22.239 -18.659  0.00  0.00    -0.003 C 
ATOM     21  C   UNL     1      35.043 -22.046 -19.036  0.00  0.00    -0.003 C 
ATOM     22  C   UNL     1      32.700 -21.483 -19.223  0.00  0.00    -0.003 C 
ATOM     23  C   UNL     1      34.334 -20.316 -20.566  0.00  0.00    -0.000 C 
ATOM     24  C   UNL     1      35.350 -21.080 -19.994  0.00  0.00    -0.000 C 
ATOM     25  C   UNL     1      33.009 -20.518 -20.180  0.00  0.00    -0.000 C 
BRANCH  23  26
ATOM     26  C   UNL     1      34.653 -19.314 -21.561  0.00  0.00    -0.000 C 
ATOM     27  C   UNL     1      34.601 -19.636 -22.916  0.00  0.00    -0.000 C 
ATOM     28  C   UNL     1      35.011 -18.026 -21.163  0.00  0.00    -0.000 C 
ATOM     29  C   UNL     1      34.907 -18.670 -23.875  0.00  0.00    +0.000 C 
ATOM     30  C   UNL     1      35.318 -17.060 -22.121  0.00  0.00    +0.000 C 
ATOM     31  C   UNL     1      35.266 -17.382 -23.477  0.00  0.00    +0.000 C 
ENDBRANCH  23  26
ENDBRANCH  19  20
ENDBRANCH   2  19
TORSDOF 5
ENDMDL
MODEL 2
REMARK VINA RESULT:     -11.7      1.804      2.313
REMARK  Name = 11987860
REMARK  5 active torsions:
REMARK  status: ('A' for Active; 'I' for Inactive)
REMARK    1  A    between atoms: N_2  and  C_19
REMARK    2  A    between atoms: C_3  and  C_11
REMARK    3  A    between atoms: N_9  and  O_17
REMARK    4  A    between atoms: C_19  and  C_20
REMARK    5  A    between atoms: C_23  and  C_26
REMARK                            x       y       z     vdW  Elec       q    Type
REMARK                         _______ _______ _______ _____ _____    ______ ____
ROOT
ATOM      1  O   UNL     1      32.646 -23.403 -15.591  0.00  0.00    -0.272 OA
ATOM      2  N   UNL     1      34.420 -23.578 -17.088  0.00  0.00    -0.298 N 
ATOM      3  C   UNL     1      33.847 -23.485 -15.831  0.00  0.00    +0.253 C 
ATOM      4  H   UNL     1      35.400 -23.639 -17.153  0.00  0.00    +0.150 HD
ENDROOT
BRANCH   3  11
ATOM      5  O   UNL     1      34.787 -25.697 -14.008  0.00  0.00    -0.327 OA
ATOM      6  O   UNL     1      36.007 -24.191 -15.288  0.00  0.00    -0.320 OA
ATOM      7  O   UNL     1      37.174 -22.943 -10.656  0.00  0.00    -0.250 OA
ATOM      8  N   UNL     1      36.678 -24.296 -12.477  0.00  0.00    -0.255 N 
ATOM      9  N   UNL     1      38.900 -23.882 -11.835  0.00  0.00    -0.181 N 
ATOM     10  C   UNL     1      34.428 -24.380 -13.566  0.00  0.00    +0.174 C 
ATOM     11  C   UNL     1      34.869 -23.522 -14.740  0.00  0.00    +0.222 C 
ATOM     12  C   UNL     1      36.068 -25.444 -14.591  0.00  0.00    +0.256 C 
ATOM     13  C   UNL     1      35.231 -24.107 -12.290  0.00  0.00    +0.128 C 
ATOM     14  C   UNL     1      37.089 -25.319 -13.460  0.00  0.00    +0.156 C 
ATOM     15  C   UNL     1      37.562 -23.657 -11.587  0.00  0.00    +0.326 C 
ATOM     16  H   UNL     1      39.210 -24.450 -12.576  0.00  0.00    +0.184 HD
BRANCH   9  17
ATOM     17  O   UNL     1      39.788 -23.244 -10.955  0.00  0.00    -0.294 OA
ATOM     18  H   UNL     1      39.716 -23.646 -10.075  0.00  0.00    +0.241 HD
ENDBRANCH   9  17
ENDBRANCH   3  11
BRANCH   2  19
ATOM     19  C   UNL     1      33.647 -23.587 -18.310  0.00  0.00    +0.116 C 
BRANCH  19  20
ATOM     20  C   UNL     1      33.936 -22.358 -19.126  0.00  0.00    -0.003 C 
ATOM     21  C   UNL     1      35.251 -22.038 -19.440  0.00  0.00    -0.003 C 
ATOM     22  C   UNL     1      32.886 -21.559 -19.557  0.00  0.00    -0.003 C 
ATOM     23  C   UNL     1      34.472 -20.089 -20.634  0.00  0.00    -0.000 C 
ATOM     24  C   UNL     1      35.519 -20.898 -20.197  0.00  0.00    -0.000 C 
ATOM     25  C   UNL     1      33.154 -20.419 -20.314  0.00  0.00    -0.000 C 
BRANCH  23  26
ATOM     26  C   UNL     1      34.749 -18.906 -21.421  0.00  0.00    -0.000 C 
ATOM     27  C   UNL     1      34.721 -17.647 -20.821  0.00  0.00    -0.000 C 
ATOM     28  C   UNL     1      35.047 -19.026 -22.778  0.00  0.00    -0.000 C 
ATOM     29  C   UNL     1      34.990 -16.507 -21.579  0.00  0.00    +0.000 C 
ATOM     30  C   UNL     1      35.315 -17.886 -23.536  0.00  0.00    +0.000 C 
ATOM     31  C   UNL     1      35.287 -16.626 -22.937  0.00  0.00    +0.000 C 
ENDBRANCH  23  26
ENDBRANCH  19  20
ENDBRANCH   2  19
TORSDOF 5
ENDMDL
MODEL 3
REMARK VINA RESULT:     -11.5      8.623     12.999
REMARK  Name = 11987860
REMARK  5 active torsions:
REMARK  status: ('A' for Active; 'I' for Inactive)
REMARK    1  A    between atoms: N_2  and  C_19
REMARK    2  A    between atoms: C_3  and  C_11
REMARK    3  A    between atoms: N_9  and  O_17
REMARK    4  A    between atoms: C_19  and  C_20
REMARK    5  A    between atoms: C_23  and  C_26
REMARK                            x       y       z     vdW  Elec       q    Type
REMARK                         _______ _______ _______ _____ _____    ______ ____
ROOT
ATOM      1  O   UNL     1      32.782 -15.326 -26.031  0.00  0.00    -0.272 OA
ATOM      2  N   UNL     1      34.312 -15.546 -24.290  0.00  0.00    -0.298 N 
ATOM      3  C   UNL     1      33.295 -14.921 -24.991  0.00  0.00    +0.253 C 
ATOM      4  H   UNL     1      34.641 -15.122 -23.465  0.00  0.00    +0.150 HD
ENDROOT
BRANCH   3  11
ATOM      5  O   UNL     1      34.650 -13.046 -23.056  0.00  0.00    -0.327 OA
ATOM      6  O   UNL     1      33.491 -12.593 -25.016  0.00  0.00    -0.320 OA
ATOM      7  O   UNL     1      30.666 -10.534 -21.529  0.00  0.00    -0.250 OA
ATOM      8  N   UNL     1      32.589 -11.182 -22.658  0.00  0.00    -0.255 N 
ATOM      9  N   UNL     1      31.695  -9.024 -22.912  0.00  0.00    -0.181 N 
ATOM     10  C   UNL     1      33.322 -13.562 -22.888  0.00  0.00    +0.174 C 
ATOM     11  C   UNL     1      32.839 -13.662 -24.325  0.00  0.00    +0.222 C 
ATOM     12  C   UNL     1      34.431 -12.062 -24.070  0.00  0.00    +0.256 C 
ATOM     13  C   UNL     1      32.546 -12.528 -22.066  0.00  0.00    +0.128 C 
ATOM     14  C   UNL     1      33.810 -10.830 -23.412  0.00  0.00    +0.156 C 
ATOM     15  C   UNL     1      31.584 -10.260 -22.310  0.00  0.00    +0.326 C 
ATOM     16  H   UNL     1      32.425  -8.805 -23.534  0.00  0.00    +0.184 HD
BRANCH   9  17
ATOM     17  O   UNL     1      30.694  -8.101 -22.574  0.00  0.00    -0.294 OA
ATOM     18  H   UNL     1      30.258  -7.785 -23.383  0.00  0.00    +0.241 HD
ENDBRANCH   9  17
ENDBRANCH   3  11
BRANCH   2  19
ATOM     19  C   UNL     1      34.912 -16.791 -24.712  0.00  0.00    +0.116 C 
BRANCH  19  20
ATOM     20  C   UNL     1      34.901 -17.790 -23.587  0.00  0.00    -0.003 C 
ATOM     21  C   UNL     1      35.257 -17.383 -22.307  0.00  0.00    -0.003 C 
ATOM     22  C   UNL     1      34.535 -19.105 -23.841  0.00  0.00    -0.003 C 
ATOM     23  C   UNL     1      34.881 -19.632 -21.509  0.00  0.00    -0.000 C 
ATOM     24  C   UNL     1      35.247 -18.310 -21.264  0.00  0.00    -0.000 C 
ATOM     25  C   UNL     1      34.525 -20.030 -22.798  0.00  0.00    -0.000 C 
BRANCH  23  26
ATOM     26  C   UNL     1      34.869 -20.593 -20.427  0.00  0.00    -0.000 C 
ATOM     27  C   UNL     1      33.656 -21.076 -19.936  0.00  0.00    -0.000 C 
ATOM     28  C   UNL     1      36.070 -21.038 -19.877  0.00  0.00    -0.000 C 
ATOM     29  C   UNL     1      33.644 -22.003 -18.894  0.00  0.00    +0.000 C 
ATOM     30  C   UNL     1      36.059 -21.964 -18.834  0.00  0.00    +0.000 C 
ATOM     31  C   UNL     1      34.846 -22.447 -18.342  0.00  0.00    +0.000 C 
ENDBRANCH  23  26
ENDBRANCH  19  20
ENDBRANCH   2  19
TORSDOF 5
ENDMDL
MODEL 4
REMARK VINA RESULT:     -10.8      8.373     12.417
REMARK  Name = 11987860
REMARK  5 active torsions:
REMARK  status: ('A' for Active; 'I' for Inactive)
REMARK    1  A    between atoms: N_2  and  C_19
REMARK    2  A    between atoms: C_3  and  C_11
REMARK    3  A    between atoms: N_9  and  O_17
REMARK    4  A    between atoms: C_19  and  C_20
REMARK    5  A    between atoms: C_23  and  C_26
REMARK                            x       y       z     vdW  Elec       q    Type
REMARK                         _______ _______ _______ _____ _____    ______ ____
ROOT
ATOM      1  O   UNL     1      32.800 -14.484 -24.629  0.00  0.00    -0.272 OA
ATOM      2  N   UNL     1      34.662 -14.779 -23.263  0.00  0.00    -0.298 N 
ATOM      3  C   UNL     1      33.510 -14.139 -23.689  0.00  0.00    +0.253 C 
ATOM      4  H   UNL     1      35.148 -14.405 -22.493  0.00  0.00    +0.150 HD
ENDROOT
BRANCH   3  11
ATOM      5  O   UNL     1      31.574 -13.744 -21.410  0.00  0.00    -0.327 OA
ATOM      6  O   UNL     1      33.817 -13.170 -21.586  0.00  0.00    -0.320 OA
ATOM      7  O   UNL     1      31.547  -8.795 -21.295  0.00  0.00    -0.250 OA
ATOM      8  N   UNL     1      32.015 -11.027 -20.860  0.00  0.00    -0.255 N 
ATOM      9  N   UNL     1      32.807  -9.319 -19.455  0.00  0.00    -0.181 N 
ATOM     10  C   UNL     1      31.695 -12.859 -22.532  0.00  0.00    +0.174 C 
ATOM     11  C   UNL     1      33.179 -12.949 -22.846  0.00  0.00    +0.222 C 
ATOM     12  C   UNL     1      32.741 -13.392 -20.662  0.00  0.00    +0.256 C 
ATOM     13  C   UNL     1      31.269 -11.470 -22.048  0.00  0.00    +0.128 C 
ATOM     14  C   UNL     1      32.457 -12.083 -19.926  0.00  0.00    +0.156 C 
ATOM     15  C   UNL     1      32.085  -9.649 -20.583  0.00  0.00    +0.326 C 
ATOM     16  H   UNL     1      33.236  -9.998 -18.887  0.00  0.00    +0.184 HD
BRANCH   9  17
ATOM     17  O   UNL     1      32.886  -7.946 -19.174  0.00  0.00    -0.294 OA
ATOM     18  H   UNL     1      33.740  -7.750 -18.754  0.00  0.00    +0.241 HD
ENDBRANCH   9  17
ENDBRANCH   3  11
BRANCH   2  19
ATOM     19  C   UNL     1      35.185 -15.968 -23.896  0.00  0.00    +0.116 C 
BRANCH  19  20
ATOM     20  C   UNL     1      35.060 -17.152 -22.977  0.00  0.00    -0.003 C 
ATOM     21  C   UNL     1      35.042 -18.435 -23.512  0.00  0.00    -0.003 C 
ATOM     22  C   UNL     1      34.965 -16.950 -21.607  0.00  0.00    -0.003 C 
ATOM     23  C   UNL     1      34.830 -19.340 -21.282  0.00  0.00    -0.000 C 
ATOM     24  C   UNL     1      34.926 -19.533 -22.659  0.00  0.00    -0.000 C 
ATOM     25  C   UNL     1      34.850 -18.048 -20.756  0.00  0.00    -0.000 C 
BRANCH  23  26
ATOM     26  C   UNL     1      34.711 -20.479 -20.397  0.00  0.00    -0.000 C 
ATOM     27  C   UNL     1      33.452 -20.908 -19.978  0.00  0.00    -0.000 C 
ATOM     28  C   UNL     1      35.856 -21.149 -19.966  0.00  0.00    -0.000 C 
ATOM     29  C   UNL     1      33.337 -22.007 -19.126  0.00  0.00    +0.000 C 
ATOM     30  C   UNL     1      35.742 -22.248 -19.114  0.00  0.00    +0.000 C 
ATOM     31  C   UNL     1      34.482 -22.677 -18.694  0.00  0.00    +0.000 C 
ENDBRANCH  23  26
ENDBRANCH  19  20
ENDBRANCH   2  19
TORSDOF 5
ENDMDL
MODEL 5
REMARK VINA RESULT:     -10.8      9.991     13.836
REMARK  Name = 11987860
REMARK  5 active torsions:
REMARK  status: ('A' for Active; 'I' for Inactive)
REMARK    1  A    between atoms: N_2  and  C_19
REMARK    2  A    between atoms: C_3  and  C_11
REMARK    3  A    between atoms: N_9  and  O_17
REMARK    4  A    between atoms: C_19  and  C_20
REMARK    5  A    between atoms: C_23  and  C_26
REMARK                            x       y       z     vdW  Elec       q    Type
REMARK                         _______ _______ _______ _____ _____    ______ ____
ROOT
ATOM      1  O   UNL     1      31.540 -12.941 -20.173  0.00  0.00    -0.272 OA
ATOM      2  N   UNL     1      32.095 -11.553 -21.957  0.00  0.00    -0.298 N 
ATOM      3  C   UNL     1      32.044 -12.757 -21.278  0.00  0.00    +0.253 C 
ATOM      4  H   UNL     1      32.527 -11.532 -22.842  0.00  0.00    +0.150 HD
ENDROOT
BRANCH   3  11
ATOM      5  O   UNL     1      34.869 -13.804 -21.420  0.00  0.00    -0.327 OA
ATOM      6  O   UNL     1      32.865 -14.939 -21.124  0.00  0.00    -0.320 OA
ATOM      7  O   UNL     1      34.446 -16.558 -25.512  0.00  0.00    -0.250 OA
ATOM      8  N   UNL     1      34.533 -15.863 -23.298  0.00  0.00    -0.255 N 
ATOM      9  N   UNL     1      34.489 -18.144 -23.859  0.00  0.00    -0.181 N 
ATOM     10  C   UNL     1      34.052 -13.521 -22.564  0.00  0.00    +0.174 C 
ATOM     11  C   UNL     1      32.664 -13.874 -22.056  0.00  0.00    +0.222 C 
ATOM     12  C   UNL     1      34.289 -15.033 -20.972  0.00  0.00    +0.256 C 
ATOM     13  C   UNL     1      34.531 -14.445 -23.689  0.00  0.00    +0.128 C 
ATOM     14  C   UNL     1      34.799 -16.156 -21.875  0.00  0.00    +0.156 C 
ATOM     15  C   UNL     1      34.488 -16.841 -24.310  0.00  0.00    +0.326 C 
ATOM     16  H   UNL     1      34.523 -18.370 -22.902  0.00  0.00    +0.184 HD
BRANCH   9  17
ATOM     17  O   UNL     1      34.439 -19.125 -24.861  0.00  0.00    -0.294 OA
ATOM     18  H   UNL     1      33.968 -19.906 -24.527  0.00  0.00    +0.241 HD
ENDBRANCH   9  17
ENDBRANCH   3  11
BRANCH   2  19
ATOM     19  C   UNL     1      31.544 -10.325 -21.430  0.00  0.00    +0.116 C 
BRANCH  19  20
ATOM     20  C   UNL     1      31.966  -9.154 -22.274  0.00  0.00    -0.003 C 
ATOM     21  C   UNL     1      30.997  -8.339 -22.849  0.00  0.00    -0.003 C 
ATOM     22  C   UNL     1      33.317  -8.899 -22.469  0.00  0.00    -0.003 C 
ATOM     23  C   UNL     1      32.742  -6.990 -23.832  0.00  0.00    -0.000 C 
ATOM     24  C   UNL     1      31.388  -7.253 -23.631  0.00  0.00    -0.000 C 
ATOM     25  C   UNL     1      33.707  -7.813 -23.251  0.00  0.00    -0.000 C 
BRANCH  23  26
ATOM     26  C   UNL     1      33.148  -5.862 -24.644  0.00  0.00    -0.000 C 
ATOM     27  C   UNL     1      34.352  -5.907 -25.347  0.00  0.00    -0.000 C 
ATOM     28  C   UNL     1      32.335  -4.732 -24.723  0.00  0.00    -0.000 C 
ATOM     29  C   UNL     1      34.743  -4.820 -26.130  0.00  0.00    +0.000 C 
ATOM     30  C   UNL     1      32.726  -3.645 -25.505  0.00  0.00    +0.000 C 
ATOM     31  C   UNL     1      33.930  -3.689 -26.209  0.00  0.00    +0.000 C 
ENDBRANCH  23  26
ENDBRANCH  19  20
ENDBRANCH   2  19
TORSDOF 5
ENDMDL
MODEL 6
REMARK VINA RESULT:     -10.4      9.856     13.569
REMARK  Name = 11987860
REMARK  5 active torsions:
REMARK  status: ('A' for Active; 'I' for Inactive)
REMARK    1  A    between atoms: N_2  and  C_19
REMARK    2  A    between atoms: C_3  and  C_11
REMARK    3  A    between atoms: N_9  and  O_17
REMARK    4  A    between atoms: C_19  and  C_20
REMARK    5  A    between atoms: C_23  and  C_26
REMARK                            x       y       z     vdW  Elec       q    Type
REMARK                         _______ _______ _______ _____ _____    ______ ____
ROOT
ATOM      1  O   UNL     1      31.722 -13.533 -19.480  0.00  0.00    -0.272 OA
ATOM      2  N   UNL     1      32.101 -11.899 -21.093  0.00  0.00    -0.298 N 
ATOM      3  C   UNL     1      32.133 -13.185 -20.583  0.00  0.00    +0.253 C 
ATOM      4  H   UNL     1      32.463 -11.743 -21.996  0.00  0.00    +0.150 HD
ENDROOT
BRANCH   3  11
ATOM      5  O   UNL     1      34.951 -14.171 -21.016  0.00  0.00    -0.327 OA
ATOM      6  O   UNL     1      32.965 -15.357 -20.803  0.00  0.00    -0.320 OA
ATOM      7  O   UNL     1      34.339 -16.274 -25.456  0.00  0.00    -0.250 OA
ATOM      8  N   UNL     1      34.530 -15.922 -23.169  0.00  0.00    -0.255 N 
ATOM      9  N   UNL     1      34.464 -18.092 -24.068  0.00  0.00    -0.181 N 
ATOM     10  C   UNL     1      34.080 -13.725 -22.064  0.00  0.00    +0.174 C 
ATOM     11  C   UNL     1      32.718 -14.164 -21.551  0.00  0.00    +0.222 C 
ATOM     12  C   UNL     1      34.395 -15.459 -20.734  0.00  0.00    +0.256 C 
ATOM     13  C   UNL     1      34.506 -14.462 -23.338  0.00  0.00    +0.128 C 
ATOM     14  C   UNL     1      34.864 -16.427 -21.821  0.00  0.00    +0.156 C 
ATOM     15  C   UNL     1      34.439 -16.736 -24.314  0.00  0.00    +0.326 C 
ATOM     16  H   UNL     1      34.544 -18.461 -23.159  0.00  0.00    +0.184 HD
BRANCH   9  17
ATOM     17  O   UNL     1      34.368 -18.910 -25.205  0.00  0.00    -0.294 OA
ATOM     18  H   UNL     1      33.755 -18.508 -25.841  0.00  0.00    +0.241 HD
ENDBRANCH   9  17
ENDBRANCH   3  11
BRANCH   2  19
ATOM     19  C   UNL     1      31.563 -10.773 -20.364  0.00  0.00    +0.116 C 
BRANCH  19  20
ATOM     20  C   UNL     1      31.713  -9.507 -21.162  0.00  0.00    -0.003 C 
ATOM     21  C   UNL     1      32.075  -8.330 -20.519  0.00  0.00    -0.003 C 
ATOM     22  C   UNL     1      31.487  -9.530 -22.532  0.00  0.00    -0.003 C 
ATOM     23  C   UNL     1      31.989  -7.169 -22.635  0.00  0.00    -0.000 C 
ATOM     24  C   UNL     1      32.213  -7.156 -21.260  0.00  0.00    -0.000 C 
ATOM     25  C   UNL     1      31.625  -8.356 -23.272  0.00  0.00    -0.000 C 
BRANCH  23  26
ATOM     26  C   UNL     1      32.133  -5.951 -23.404  0.00  0.00    -0.000 C 
ATOM     27  C   UNL     1      31.474  -4.790 -23.001  0.00  0.00    -0.000 C 
ATOM     28  C   UNL     1      32.932  -5.939 -24.547  0.00  0.00    -0.000 C 
ATOM     29  C   UNL     1      31.614  -3.616 -23.742  0.00  0.00    +0.000 C 
ATOM     30  C   UNL     1      33.072  -4.766 -25.288  0.00  0.00    +0.000 C 
ATOM     31  C   UNL     1      32.413  -3.604 -24.886  0.00  0.00    +0.000 C 
ENDBRANCH  23  26
ENDBRANCH  19  20
ENDBRANCH   2  19
TORSDOF 5
ENDMDL
MODEL 7
REMARK VINA RESULT:     -10.4     10.474     14.387
REMARK  Name = 11987860
REMARK  5 active torsions:
REMARK  status: ('A' for Active; 'I' for Inactive)
REMARK    1  A    between atoms: N_2  and  C_19
REMARK    2  A    between atoms: C_3  and  C_11
REMARK    3  A    between atoms: N_9  and  O_17
REMARK    4  A    between atoms: C_19  and  C_20
REMARK    5  A    between atoms: C_23  and  C_26
REMARK                            x       y       z     vdW  Elec       q    Type
REMARK                         _______ _______ _______ _____ _____    ______ ____
ROOT
ATOM      1  O   UNL     1      31.401 -12.866 -20.116  0.00  0.00    -0.272 OA
ATOM      2  N   UNL     1      32.090 -11.302 -21.697  0.00  0.00    -0.298 N 
ATOM      3  C   UNL     1      31.920 -12.580 -21.191  0.00  0.00    +0.253 C 
ATOM      4  H   UNL     1      32.522 -11.200 -22.576  0.00  0.00    +0.150 HD
ENDROOT
BRANCH   3  11
ATOM      5  O   UNL     1      34.615 -13.031 -22.467  0.00  0.00    -0.327 OA
ATOM      6  O   UNL     1      33.228 -14.510 -21.334  0.00  0.00    -0.320 OA
ATOM      7  O   UNL     1      33.267 -16.295 -25.938  0.00  0.00    -0.250 OA
ATOM      8  N   UNL     1      34.060 -15.329 -23.981  0.00  0.00    -0.255 N 
ATOM      9  N   UNL     1      34.341 -17.622 -24.411  0.00  0.00    -0.181 N 
ATOM     10  C   UNL     1      33.368 -13.065 -23.175  0.00  0.00    +0.174 C 
ATOM     11  C   UNL     1      32.425 -13.631 -22.127  0.00  0.00    +0.222 C 
ATOM     12  C   UNL     1      34.572 -14.288 -21.787  0.00  0.00    +0.256 C 
ATOM     13  C   UNL     1      33.564 -14.001 -24.372  0.00  0.00    +0.128 C 
ATOM     14  C   UNL     1      34.932 -15.385 -22.789  0.00  0.00    +0.156 C 
ATOM     15  C   UNL     1      33.850 -16.412 -24.855  0.00  0.00    +0.326 C 
ATOM     16  H   UNL     1      34.806 -17.717 -23.549  0.00  0.00    +0.184 HD
BRANCH   9  17
ATOM     17  O   UNL     1      34.132 -18.708 -25.275  0.00  0.00    -0.294 OA
ATOM     18  H   UNL     1      34.412 -18.466 -26.172  0.00  0.00    +0.241 HD
ENDBRANCH   9  17
ENDBRANCH   3  11
BRANCH   2  19
ATOM     19  C   UNL     1      31.665 -10.112 -20.995  0.00  0.00    +0.116 C 
BRANCH  19  20
ATOM     20  C   UNL     1      31.874  -8.893 -21.851  0.00  0.00    -0.003 C 
ATOM     21  C   UNL     1      31.147  -8.749 -23.027  0.00  0.00    -0.003 C 
ATOM     22  C   UNL     1      32.789  -7.927 -21.456  0.00  0.00    -0.003 C 
ATOM     23  C   UNL     1      32.258  -6.643 -23.432  0.00  0.00    -0.000 C 
ATOM     24  C   UNL     1      31.341  -7.619 -23.820  0.00  0.00    -0.000 C 
ATOM     25  C   UNL     1      32.983  -6.797 -22.250  0.00  0.00    -0.000 C 
BRANCH  23  26
ATOM     26  C   UNL     1      32.459  -5.469 -24.255  0.00  0.00    -0.000 C 
ATOM     27  C   UNL     1      31.948  -4.237 -23.849  0.00  0.00    -0.000 C 
ATOM     28  C   UNL     1      33.165  -5.571 -25.453  0.00  0.00    -0.000 C 
ATOM     29  C   UNL     1      32.142  -3.105 -24.641  0.00  0.00    +0.000 C 
ATOM     30  C   UNL     1      33.360  -4.440 -26.246  0.00  0.00    +0.000 C 
ATOM     31  C   UNL     1      32.848  -3.207 -25.840  0.00  0.00    +0.000 C 
ENDBRANCH  23  26
ENDBRANCH  19  20
ENDBRANCH   2  19
TORSDOF 5
ENDMDL
MODEL 8
REMARK VINA RESULT:     -10.3      3.948      6.415
REMARK  Name = 11987860
REMARK  5 active torsions:
REMARK  status: ('A' for Active; 'I' for Inactive)
REMARK    1  A    between atoms: N_2  and  C_19
REMARK    2  A    between atoms: C_3  and  C_11
REMARK    3  A    between atoms: N_9  and  O_17
REMARK    4  A    between atoms: C_19  and  C_20
REMARK    5  A    between atoms: C_23  and  C_26
REMARK                            x       y       z     vdW  Elec       q    Type
REMARK                         _______ _______ _______ _____ _____    ______ ____
ROOT
ATOM      1  O   UNL     1      34.345 -24.036 -16.059  0.00  0.00    -0.272 OA
ATOM      2  N   UNL     1      33.744 -22.717 -17.881  0.00  0.00    -0.298 N 
ATOM      3  C   UNL     1      33.499 -23.468 -16.744  0.00  0.00    +0.253 C 
ATOM      4  H   UNL     1      32.978 -22.308 -18.346  0.00  0.00    +0.150 HD
ENDROOT
BRANCH   3  11
ATOM      5  O   UNL     1      32.031 -24.438 -14.295  0.00  0.00    -0.327 OA
ATOM      6  O   UNL     1      31.837 -22.440 -15.463  0.00  0.00    -0.320 OA
ATOM      7  O   UNL     1      27.453 -24.598 -16.175  0.00  0.00    -0.250 OA
ATOM      8  N   UNL     1      29.384 -23.923 -15.076  0.00  0.00    -0.255 N 
ATOM      9  N   UNL     1      27.373 -22.729 -14.852  0.00  0.00    -0.181 N 
ATOM     10  C   UNL     1      31.667 -24.771 -15.641  0.00  0.00    +0.174 C 
ATOM     11  C   UNL     1      32.046 -23.507 -16.393  0.00  0.00    +0.222 C 
ATOM     12  C   UNL     1      31.558 -23.091 -14.214  0.00  0.00    +0.256 C 
ATOM     13  C   UNL     1      30.158 -25.039 -15.640  0.00  0.00    +0.128 C 
ATOM     14  C   UNL     1      30.042 -23.129 -14.018  0.00  0.00    +0.156 C 
ATOM     15  C   UNL     1      28.024 -23.804 -15.419  0.00  0.00    +0.326 C 
ATOM     16  H   UNL     1      27.826 -22.096 -14.250  0.00  0.00    +0.184 HD
BRANCH   9  17
ATOM     17  O   UNL     1      26.017 -22.601 -15.194  0.00  0.00    -0.294 OA
ATOM     18  H   UNL     1      25.511 -22.324 -14.413  0.00  0.00    +0.241 HD
ENDBRANCH   9  17
ENDBRANCH   3  11
BRANCH   2  19
ATOM     19  C   UNL     1      35.069 -22.506 -18.418  0.00  0.00    +0.116 C 
BRANCH  19  20
ATOM     20  C   UNL     1      35.044 -21.443 -19.480  0.00  0.00    -0.003 C 
ATOM     21  C   UNL     1      33.827 -21.034 -20.013  0.00  0.00    -0.003 C 
ATOM     22  C   UNL     1      36.237 -20.882 -19.918  0.00  0.00    -0.003 C 
ATOM     23  C   UNL     1      34.996 -19.479 -21.444  0.00  0.00    -0.000 C 
ATOM     24  C   UNL     1      33.804 -20.048 -20.999  0.00  0.00    -0.000 C 
ATOM     25  C   UNL     1      36.213 -19.896 -20.903  0.00  0.00    -0.000 C 
BRANCH  23  26
ATOM     26  C   UNL     1      34.972 -18.455 -22.467  0.00  0.00    -0.000 C 
ATOM     27  C   UNL     1      34.637 -18.788 -23.779  0.00  0.00    -0.000 C 
ATOM     28  C   UNL     1      35.283 -17.136 -22.139  0.00  0.00    -0.000 C 
ATOM     29  C   UNL     1      34.613 -17.801 -24.764  0.00  0.00    +0.000 C 
ATOM     30  C   UNL     1      35.260 -16.149 -23.124  0.00  0.00    +0.000 C 
ATOM     31  C   UNL     1      34.925 -16.481 -24.437  0.00  0.00    +0.000 C 
ENDBRANCH  23  26
ENDBRANCH  19  20
ENDBRANCH   2  19
TORSDOF 5
ENDMDL
MODEL 9
REMARK VINA RESULT:     -10.3     12.601     16.889
REMARK  Name = 11987860
REMARK  5 active torsions:
REMARK  status: ('A' for Active; 'I' for Inactive)
REMARK    1  A    between atoms: N_2  and  C_19
REMARK    2  A    between atoms: C_3  and  C_11
REMARK    3  A    between atoms: N_9  and  O_17
REMARK    4  A    between atoms: C_19  and  C_20
REMARK    5  A    between atoms: C_23  and  C_26
REMARK                            x       y       z     vdW  Elec       q    Type
REMARK                         _______ _______ _______ _____ _____    ______ ____
ROOT
ATOM      1  O   UNL     1      33.058  -8.122 -19.532  0.00  0.00    -0.272 OA
ATOM      2  N   UNL     1      31.683  -9.272 -21.017  0.00  0.00    -0.298 N 
ATOM      3  C   UNL     1      32.432  -8.190 -20.585  0.00  0.00    +0.253 C 
ATOM      4  H   UNL     1      31.224  -9.207 -21.885  0.00  0.00    +0.150 HD
ENDROOT
BRANCH   3  11
ATOM      5  O   UNL     1      30.355  -7.225 -22.549  0.00  0.00    -0.327 OA
ATOM      6  O   UNL     1      31.619  -6.040 -21.001  0.00  0.00    -0.320 OA
ATOM      7  O   UNL     1      33.247  -4.331 -25.338  0.00  0.00    -0.250 OA
ATOM      8  N   UNL     1      31.755  -5.099 -23.733  0.00  0.00    -0.255 N 
ATOM      9  N   UNL     1      32.058  -2.801 -24.116  0.00  0.00    -0.181 N 
ATOM     10  C   UNL     1      31.735  -7.446 -22.873  0.00  0.00    +0.174 C 
ATOM     11  C   UNL     1      32.429  -7.069 -21.575  0.00  0.00    +0.222 C 
ATOM     12  C   UNL     1      30.444  -5.994 -21.825  0.00  0.00    +0.256 C 
ATOM     13  C   UNL     1      32.075  -6.503 -24.031  0.00  0.00    +0.128 C 
ATOM     14  C   UNL     1      30.606  -4.858 -22.836  0.00  0.00    +0.156 C 
ATOM     15  C   UNL     1      32.412  -4.088 -24.461  0.00  0.00    +0.326 C 
ATOM     16  H   UNL     1      31.394  -2.606 -23.418  0.00  0.00    +0.184 HD
BRANCH   9  17
ATOM     17  O   UNL     1      32.713  -1.787 -24.834  0.00  0.00    -0.294 OA
ATOM     18  H   UNL     1      33.580  -2.108 -25.129  0.00  0.00    +0.241 HD
ENDBRANCH   9  17
ENDBRANCH   3  11
BRANCH   2  19
ATOM     19  C   UNL     1      31.544 -10.491 -20.253  0.00  0.00    +0.116 C 
BRANCH  19  20
ATOM     20  C   UNL     1      32.127 -11.654 -21.005  0.00  0.00    -0.003 C 
ATOM     21  C   UNL     1      32.656 -11.454 -22.275  0.00  0.00    -0.003 C 
ATOM     22  C   UNL     1      32.132 -12.915 -20.423  0.00  0.00    -0.003 C 
ATOM     23  C   UNL     1      33.206 -13.802 -22.396  0.00  0.00    -0.000 C 
ATOM     24  C   UNL     1      33.198 -12.533 -22.972  0.00  0.00    -0.000 C 
ATOM     25  C   UNL     1      32.673 -13.993 -21.121  0.00  0.00    -0.000 C 
BRANCH  23  26
ATOM     26  C   UNL     1      33.769 -14.923 -23.120  0.00  0.00    -0.000 C 
ATOM     27  C   UNL     1      33.540 -15.054 -24.489  0.00  0.00    -0.000 C 
ATOM     28  C   UNL     1      34.542 -15.869 -22.448  0.00  0.00    -0.000 C 
ATOM     29  C   UNL     1      34.083 -16.133 -25.187  0.00  0.00    +0.000 C 
ATOM     30  C   UNL     1      35.085 -16.948 -23.145  0.00  0.00    +0.000 C 
ATOM     31  C   UNL     1      34.856 -17.081 -24.515  0.00  0.00    +0.000 C 
ENDBRANCH  23  26
ENDBRANCH  19  20
ENDBRANCH   2  19
TORSDOF 5
ENDMDL
