MODEL 1
REMARK VINA RESULT:     -11.3      0.000      0.000
REMARK  Name = 52913524
REMARK  9 active torsions:
REMARK  status: ('A' for Active; 'I' for Inactive)
REMARK    1  A    between atoms: C_1  and  C_10
REMARK    2  A    between atoms: C_4  and  C_24
REMARK    3  A    between atoms: C_5  and  C_22
REMARK    4  A    between atoms: C_8  and  O_13
REMARK    5  A    between atoms: C_9  and  O_15
REMARK    6  A    between atoms: C_11  and  O_17
REMARK    7  A    between atoms: C_12  and  C_19
REMARK    8  A    between atoms: C_19  and  O_20
REMARK    9  A    between atoms: C_24  and  C_27
REMARK                            x       y       z     vdW  Elec       q    Type
REMARK                         _______ _______ _______ _____ _____    ______ ____
ROOT
ATOM      1  C   UNL     1      34.116 -23.944 -14.512  0.00  0.00    +0.007 C 
ATOM      2  C   UNL     1      34.154 -23.943 -15.906  0.00  0.00    -0.006 C 
ATOM      3  C   UNL     1      32.951 -23.565 -13.845  0.00  0.00    -0.002 C 
ATOM      4  C   UNL     1      33.027 -23.561 -16.634  0.00  0.00    -0.022 C 
ATOM      5  C   UNL     1      31.861 -23.181 -15.966  0.00  0.00    -0.026 C 
ATOM      6  C   UNL     1      31.824 -23.183 -14.573  0.00  0.00    -0.005 C 
ENDROOT
BRANCH   1  10
ATOM      7  O   UNL     1      35.947 -25.460 -14.406  0.00  0.00    -0.347 OA
ATOM      8  C   UNL     1      34.989 -24.742 -12.275  0.00  0.00    +0.171 C 
ATOM      9  C   UNL     1      36.210 -25.310 -11.546  0.00  0.00    +0.169 C 
ATOM     10  C   UNL     1      35.341 -24.360 -13.721  0.00  0.00    +0.167 C 
ATOM     11  C   UNL     1      36.907 -26.384 -12.380  0.00  0.00    +0.169 C 
ATOM     12  C   UNL     1      37.171 -25.882 -13.801  0.00  0.00    +0.174 C 
BRANCH   8  13
ATOM     13  O   UNL     1      34.540 -23.575 -11.589  0.00  0.00    -0.379 OA
ATOM     14  H   UNL     1      33.624 -23.703 -11.296  0.00  0.00    +0.211 HD
ENDBRANCH   8  13
BRANCH   9  15
ATOM     15  O   UNL     1      35.794 -25.907 -10.316  0.00  0.00    -0.379 OA
ATOM     16  H   UNL     1      34.875 -26.206 -10.397  0.00  0.00    +0.211 HD
ENDBRANCH   9  15
BRANCH  11  17
ATOM     17  O   UNL     1      38.146 -26.727 -11.766  0.00  0.00    -0.379 OA
ATOM     18  H   UNL     1      37.996 -26.941 -10.831  0.00  0.00    +0.211 HD
ENDBRANCH  11  17
BRANCH  12  19
ATOM     19  C   UNL     1      37.764 -26.975 -14.685  0.00  0.00    +0.169 C 
BRANCH  19  20
ATOM     20  O   UNL     1      36.805 -27.335 -15.661  0.00  0.00    -0.379 OA
ATOM     21  H   UNL     1      36.306 -26.548 -15.930  0.00  0.00    +0.211 HD
ENDBRANCH  19  20
ENDBRANCH  12  19
ENDBRANCH   1  10
BRANCH   5  22
ATOM     22  C   UNL     1      30.643 -22.768 -16.724  0.00  0.00    +0.026 C 
ATOM     23  C   UNL     1      29.355 -23.138 -15.995  0.00  0.00    +0.005 C 
ENDBRANCH   5  22
BRANCH   4  24
ATOM     24  C   UNL     1      33.091 -23.567 -18.126  0.00  0.00    +0.052 C 
BRANCH  24  27
ATOM     25  O   UNL     1      34.177 -19.902 -21.155  0.00  0.00    -0.468 OA
ATOM     26  O   UNL     1      36.899 -19.913 -20.206  0.00  0.00    -0.468 OA
ATOM     27  C   UNL     1      34.097 -22.591 -18.700  0.00  0.00    -0.015 C 
ATOM     28  C   UNL     1      33.696 -21.666 -19.664  0.00  0.00    +0.036 C 
ATOM     29  C   UNL     1      35.424 -22.622 -18.269  0.00  0.00    -0.001 C 
ATOM     30  C   UNL     1      34.626 -20.773 -20.196  0.00  0.00    +0.172 C 
ATOM     31  C   UNL     1      35.947 -20.786 -19.745  0.00  0.00    +0.172 C 
ATOM     32  C   UNL     1      36.350 -21.721 -18.791  0.00  0.00    +0.040 C 
ATOM     33  C   UNL     1      35.256 -19.289 -21.866  0.00  0.00    +0.253 C 
ATOM     34  C   UNL     1      36.315 -18.805 -20.896  0.00  0.00    +0.253 C 
ENDBRANCH  24  27
ENDBRANCH   4  24
TORSDOF 9
ENDMDL
MODEL 2
REMARK VINA RESULT:     -11.1      1.311      2.379
REMARK  Name = 52913524
REMARK  9 active torsions:
REMARK  status: ('A' for Active; 'I' for Inactive)
REMARK    1  A    between atoms: C_1  and  C_10
REMARK    2  A    between atoms: C_4  and  C_24
REMARK    3  A    between atoms: C_5  and  C_22
REMARK    4  A    between atoms: C_8  and  O_13
REMARK    5  A    between atoms: C_9  and  O_15
REMARK    6  A    between atoms: C_11  and  O_17
REMARK    7  A    between atoms: C_12  and  C_19
REMARK    8  A    between atoms: C_19  and  O_20
REMARK    9  A    between atoms: C_24  and  C_27
REMARK                            x       y       z     vdW  Elec       q    Type
REMARK                         _______ _______ _______ _____ _____    ______ ____
ROOT
ATOM      1  C   UNL     1      33.950 -24.212 -14.325  0.00  0.00    +0.007 C 
ATOM      2  C   UNL     1      33.859 -24.082 -15.711  0.00  0.00    -0.006 C 
ATOM      3  C   UNL     1      32.868 -23.857 -13.519  0.00  0.00    -0.002 C 
ATOM      4  C   UNL     1      32.687 -23.595 -16.291  0.00  0.00    -0.022 C 
ATOM      5  C   UNL     1      31.606 -23.240 -15.484  0.00  0.00    -0.026 C 
ATOM      6  C   UNL     1      31.696 -23.371 -14.099  0.00  0.00    -0.005 C 
ENDROOT
BRANCH   1  10
ATOM      7  O   UNL     1      35.726 -23.731 -12.816  0.00  0.00    -0.347 OA
ATOM      8  C   UNL     1      36.273 -25.119 -14.752  0.00  0.00    +0.171 C 
ATOM      9  C   UNL     1      37.603 -25.497 -14.094  0.00  0.00    +0.169 C 
ATOM     10  C   UNL     1      35.223 -24.742 -13.696  0.00  0.00    +0.167 C 
ATOM     11  C   UNL     1      38.027 -24.456 -13.059  0.00  0.00    +0.169 C 
ATOM     12  C   UNL     1      36.882 -24.154 -12.091  0.00  0.00    +0.174 C 
BRANCH   8  13
ATOM     13  O   UNL     1      35.790 -26.235 -15.499  0.00  0.00    -0.379 OA
ATOM     14  H   UNL     1      34.868 -26.412 -15.258  0.00  0.00    +0.211 HD
ENDBRANCH   8  13
BRANCH   9  15
ATOM     15  O   UNL     1      38.623 -25.570 -15.091  0.00  0.00    -0.379 OA
ATOM     16  H   UNL     1      38.469 -24.886 -15.761  0.00  0.00    +0.211 HD
ENDBRANCH   9  15
BRANCH  11  17
ATOM     17  O   UNL     1      39.144 -24.950 -12.325  0.00  0.00    -0.379 OA
ATOM     18  H   UNL     1      38.862 -25.693 -11.768  0.00  0.00    +0.211 HD
ENDBRANCH  11  17
BRANCH  12  19
ATOM     19  C   UNL     1      37.244 -23.036 -11.117  0.00  0.00    +0.169 C 
BRANCH  19  20
ATOM     20  O   UNL     1      38.341 -22.316 -11.647  0.00  0.00    -0.379 OA
ATOM     21  H   UNL     1      39.124 -22.889 -11.668  0.00  0.00    +0.211 HD
ENDBRANCH  19  20
ENDBRANCH  12  19
ENDBRANCH   1  10
BRANCH   5  22
ATOM     22  C   UNL     1      30.341 -22.716 -16.081  0.00  0.00    +0.026 C 
ATOM     23  C   UNL     1      29.114 -23.083 -15.253  0.00  0.00    +0.005 C 
ENDBRANCH   5  22
BRANCH   4  24
ATOM     24  C   UNL     1      32.614 -23.463 -17.776  0.00  0.00    +0.052 C 
BRANCH  24  27
ATOM     25  O   UNL     1      34.158 -20.104 -20.958  0.00  0.00    -0.468 OA
ATOM     26  O   UNL     1      36.844 -20.368 -19.945  0.00  0.00    -0.468 OA
ATOM     27  C   UNL     1      33.733 -22.636 -18.375  0.00  0.00    -0.015 C 
ATOM     28  C   UNL     1      33.456 -21.724 -19.393  0.00  0.00    +0.036 C 
ATOM     29  C   UNL     1      35.040 -22.792 -17.911  0.00  0.00    -0.001 C 
ATOM     30  C   UNL     1      34.489 -20.969 -19.947  0.00  0.00    +0.172 C 
ATOM     31  C   UNL     1      35.793 -21.105 -19.464  0.00  0.00    +0.172 C 
ATOM     32  C   UNL     1      36.071 -22.028 -18.456  0.00  0.00    +0.040 C 
ATOM     33  C   UNL     1      35.312 -19.653 -21.673  0.00  0.00    +0.253 C 
ATOM     34  C   UNL     1      36.401 -19.240 -20.704  0.00  0.00    +0.253 C 
ENDBRANCH  24  27
ENDBRANCH   4  24
TORSDOF 9
ENDMDL
MODEL 3
REMARK VINA RESULT:     -10.5      2.502      5.538
REMARK  Name = 52913524
REMARK  9 active torsions:
REMARK  status: ('A' for Active; 'I' for Inactive)
REMARK    1  A    between atoms: C_1  and  C_10
REMARK    2  A    between atoms: C_4  and  C_24
REMARK    3  A    between atoms: C_5  and  C_22
REMARK    4  A    between atoms: C_8  and  O_13
REMARK    5  A    between atoms: C_9  and  O_15
REMARK    6  A    between atoms: C_11  and  O_17
REMARK    7  A    between atoms: C_12  and  C_19
REMARK    8  A    between atoms: C_19  and  O_20
REMARK    9  A    between atoms: C_24  and  C_27
REMARK                            x       y       z     vdW  Elec       q    Type
REMARK                         _______ _______ _______ _____ _____    ______ ____
ROOT
ATOM      1  C   UNL     1      36.816 -23.080 -15.880  0.00  0.00    +0.007 C 
ATOM      2  C   UNL     1      35.532 -23.343 -16.357  0.00  0.00    -0.006 C 
ATOM      3  C   UNL     1      37.670 -22.244 -16.599  0.00  0.00    -0.002 C 
ATOM      4  C   UNL     1      35.102 -22.771 -17.555  0.00  0.00    -0.022 C 
ATOM      5  C   UNL     1      35.957 -21.935 -18.274  0.00  0.00    -0.026 C 
ATOM      6  C   UNL     1      37.240 -21.672 -17.797  0.00  0.00    -0.005 C 
ENDROOT
BRANCH   1  10
ATOM      7  O   UNL     1      38.249 -24.707 -14.898  0.00  0.00    -0.347 OA
ATOM      8  C   UNL     1      36.116 -24.300 -13.777  0.00  0.00    +0.171 C 
ATOM      9  C   UNL     1      36.627 -25.061 -12.550  0.00  0.00    +0.169 C 
ATOM     10  C   UNL     1      37.282 -23.702 -14.578  0.00  0.00    +0.167 C 
ATOM     11  C   UNL     1      37.757 -26.020 -12.921  0.00  0.00    +0.169 C 
ATOM     12  C   UNL     1      38.832 -25.303 -13.739  0.00  0.00    +0.174 C 
BRANCH   8  13
ATOM     13  O   UNL     1      35.265 -23.240 -13.345  0.00  0.00    -0.379 OA
ATOM     14  H   UNL     1      35.786 -22.428 -13.243  0.00  0.00    +0.211 HD
ENDBRANCH   8  13
BRANCH   9  15
ATOM     15  O   UNL     1      35.561 -25.830 -11.990  0.00  0.00    -0.379 OA
ATOM     16  H   UNL     1      35.430 -25.573 -11.064  0.00  0.00    +0.211 HD
ENDBRANCH   9  15
BRANCH  11  17
ATOM     17  O   UNL     1      38.342 -26.542 -11.731  0.00  0.00    -0.379 OA
ATOM     18  H   UNL     1      38.701 -25.812 -11.201  0.00  0.00    +0.211 HD
ENDBRANCH  11  17
BRANCH  12  19
ATOM     19  C   UNL     1      39.916 -26.266 -14.216  0.00  0.00    +0.169 C 
BRANCH  19  20
ATOM     20  O   UNL     1      40.192 -25.994 -15.578  0.00  0.00    -0.379 OA
ATOM     21  H   UNL     1      39.611 -26.531 -16.139  0.00  0.00    +0.211 HD
ENDBRANCH  19  20
ENDBRANCH  12  19
ENDBRANCH   1  10
BRANCH   5  22
ATOM     22  C   UNL     1      35.520 -21.311 -19.559  0.00  0.00    +0.026 C 
ATOM     23  C   UNL     1      36.590 -20.403 -20.156  0.00  0.00    +0.005 C 
ENDBRANCH   5  22
BRANCH   4  24
ATOM     24  C   UNL     1      33.724 -23.067 -18.046  0.00  0.00    +0.052 C 
BRANCH  24  27
ATOM     25  O   UNL     1      32.605 -25.071 -13.743  0.00  0.00    -0.468 OA
ATOM     26  O   UNL     1      29.937 -23.994 -13.924  0.00  0.00    -0.468 OA
ATOM     27  C   UNL     1      32.722 -23.333 -16.941  0.00  0.00    -0.015 C 
ATOM     28  C   UNL     1      33.103 -24.072 -15.821  0.00  0.00    +0.036 C 
ATOM     29  C   UNL     1      31.420 -22.844 -17.047  0.00  0.00    -0.001 C 
ATOM     30  C   UNL     1      32.178 -24.322 -14.808  0.00  0.00    +0.172 C 
ATOM     31  C   UNL     1      30.882 -23.810 -14.901  0.00  0.00    +0.172 C 
ATOM     32  C   UNL     1      30.498 -23.083 -16.028  0.00  0.00    +0.040 C 
ATOM     33  C   UNL     1      31.512 -25.552 -12.956  0.00  0.00    +0.253 C 
ATOM     34  C   UNL     1      30.521 -24.435 -12.696  0.00  0.00    +0.253 C 
ENDBRANCH  24  27
ENDBRANCH   4  24
TORSDOF 9
ENDMDL
MODEL 4
REMARK VINA RESULT:     -10.4      3.429      7.864
REMARK  Name = 52913524
REMARK  9 active torsions:
REMARK  status: ('A' for Active; 'I' for Inactive)
REMARK    1  A    between atoms: C_1  and  C_10
REMARK    2  A    between atoms: C_4  and  C_24
REMARK    3  A    between atoms: C_5  and  C_22
REMARK    4  A    between atoms: C_8  and  O_13
REMARK    5  A    between atoms: C_9  and  O_15
REMARK    6  A    between atoms: C_11  and  O_17
REMARK    7  A    between atoms: C_12  and  C_19
REMARK    8  A    between atoms: C_19  and  O_20
REMARK    9  A    between atoms: C_24  and  C_27
REMARK                            x       y       z     vdW  Elec       q    Type
REMARK                         _______ _______ _______ _____ _____    ______ ____
ROOT
ATOM      1  C   UNL     1      35.649 -22.399 -17.639  0.00  0.00    +0.007 C 
ATOM      2  C   UNL     1      34.751 -23.222 -16.958  0.00  0.00    -0.006 C 
ATOM      3  C   UNL     1      36.839 -22.006 -17.026  0.00  0.00    -0.002 C 
ATOM      4  C   UNL     1      35.044 -23.652 -15.664  0.00  0.00    -0.022 C 
ATOM      5  C   UNL     1      36.235 -23.259 -15.051  0.00  0.00    -0.026 C 
ATOM      6  C   UNL     1      37.132 -22.437 -15.732  0.00  0.00    -0.005 C 
ENDROOT
BRANCH   1  10
ATOM      7  O   UNL     1      36.168 -20.807 -19.331  0.00  0.00    -0.347 OA
ATOM      8  C   UNL     1      33.848 -21.565 -19.208  0.00  0.00    +0.171 C 
ATOM      9  C   UNL     1      33.583 -20.946 -20.585  0.00  0.00    +0.169 C 
ATOM     10  C   UNL     1      35.330 -21.932 -19.046  0.00  0.00    +0.167 C 
ATOM     11  C   UNL     1      34.593 -19.844 -20.902  0.00  0.00    +0.169 C 
ATOM     12  C   UNL     1      36.024 -20.334 -20.671  0.00  0.00    +0.174 C 
BRANCH   8  13
ATOM     13  O   UNL     1      33.065 -22.750 -19.074  0.00  0.00    -0.379 OA
ATOM     14  H   UNL     1      32.775 -22.844 -18.153  0.00  0.00    +0.211 HD
ENDBRANCH   8  13
BRANCH   9  15
ATOM     15  O   UNL     1      32.278 -20.367 -20.602  0.00  0.00    -0.379 OA
ATOM     16  H   UNL     1      31.674 -20.946 -21.093  0.00  0.00    +0.211 HD
ENDBRANCH   9  15
BRANCH  11  17
ATOM     17  O   UNL     1      34.447 -19.450 -22.264  0.00  0.00    -0.379 OA
ATOM     18  H   UNL     1      34.277 -18.495 -22.307  0.00  0.00    +0.211 HD
ENDBRANCH  11  17
BRANCH  12  19
ATOM     19  C   UNL     1      37.044 -19.218 -20.874  0.00  0.00    +0.169 C 
BRANCH  19  20
ATOM     20  O   UNL     1      37.710 -18.988 -19.647  0.00  0.00    -0.379 OA
ATOM     21  H   UNL     1      38.327 -18.246 -19.748  0.00  0.00    +0.211 HD
ENDBRANCH  19  20
ENDBRANCH  12  19
ENDBRANCH   1  10
BRANCH   5  22
ATOM     22  C   UNL     1      36.569 -23.706 -13.666  0.00  0.00    +0.026 C 
ATOM     23  C   UNL     1      37.698 -24.732 -13.646  0.00  0.00    +0.005 C 
ENDBRANCH   5  22
BRANCH   4  24
ATOM     24  C   UNL     1      34.068 -24.531 -14.954  0.00  0.00    +0.052 C 
BRANCH  24  27
ATOM     25  O   UNL     1      29.581 -23.975 -16.782  0.00  0.00    -0.468 OA
ATOM     26  O   UNL     1      28.850 -22.349 -14.516  0.00  0.00    -0.468 OA
ATOM     27  C   UNL     1      32.674 -23.948 -14.859  0.00  0.00    -0.015 C 
ATOM     28  C   UNL     1      31.734 -24.226 -15.852  0.00  0.00    +0.036 C 
ATOM     29  C   UNL     1      32.332 -23.129 -13.782  0.00  0.00    -0.001 C 
ATOM     30  C   UNL     1      30.453 -23.682 -15.766  0.00  0.00    +0.172 C 
ATOM     31  C   UNL     1      30.102 -22.886 -14.674  0.00  0.00    +0.172 C 
ATOM     32  C   UNL     1      31.047 -22.596 -13.689  0.00  0.00    +0.040 C 
ATOM     33  C   UNL     1      28.444 -23.107 -16.776  0.00  0.00    +0.253 C 
ATOM     34  C   UNL     1      27.891 -22.977 -15.371  0.00  0.00    +0.253 C 
ENDBRANCH  24  27
ENDBRANCH   4  24
TORSDOF 9
ENDMDL
MODEL 5
REMARK VINA RESULT:     -10.4      2.506      6.949
REMARK  Name = 52913524
REMARK  9 active torsions:
REMARK  status: ('A' for Active; 'I' for Inactive)
REMARK    1  A    between atoms: C_1  and  C_10
REMARK    2  A    between atoms: C_4  and  C_24
REMARK    3  A    between atoms: C_5  and  C_22
REMARK    4  A    between atoms: C_8  and  O_13
REMARK    5  A    between atoms: C_9  and  O_15
REMARK    6  A    between atoms: C_11  and  O_17
REMARK    7  A    between atoms: C_12  and  C_19
REMARK    8  A    between atoms: C_19  and  O_20
REMARK    9  A    between atoms: C_24  and  C_27
REMARK                            x       y       z     vdW  Elec       q    Type
REMARK                         _______ _______ _______ _____ _____    ______ ____
ROOT
ATOM      1  C   UNL     1      33.664 -23.190 -17.176  0.00  0.00    +0.007 C 
ATOM      2  C   UNL     1      34.939 -23.021 -16.636  0.00  0.00    -0.006 C 
ATOM      3  C   UNL     1      33.381 -22.721 -18.458  0.00  0.00    -0.002 C 
ATOM      4  C   UNL     1      35.932 -22.383 -17.380  0.00  0.00    -0.022 C 
ATOM      5  C   UNL     1      35.649 -21.914 -18.664  0.00  0.00    -0.026 C 
ATOM      6  C   UNL     1      34.374 -22.083 -19.203  0.00  0.00    -0.005 C 
ENDROOT
BRANCH   1  10
ATOM      7  O   UNL     1      31.363 -23.170 -16.569  0.00  0.00    -0.347 OA
ATOM      8  C   UNL     1      32.940 -23.951 -14.874  0.00  0.00    +0.171 C 
ATOM      9  C   UNL     1      31.771 -24.509 -14.057  0.00  0.00    +0.169 C 
ATOM     10  C   UNL     1      32.586 -23.885 -16.367  0.00  0.00    +0.167 C 
ATOM     11  C   UNL     1      30.460 -23.809 -14.412  0.00  0.00    +0.169 C 
ATOM     12  C   UNL     1      30.247 -23.788 -15.927  0.00  0.00    +0.174 C 
BRANCH   8  13
ATOM     13  O   UNL     1      34.071 -24.804 -14.709  0.00  0.00    -0.379 OA
ATOM     14  H   UNL     1      34.877 -24.328 -14.964  0.00  0.00    +0.211 HD
ENDBRANCH   8  13
BRANCH   9  15
ATOM     15  O   UNL     1      32.020 -24.300 -12.666  0.00  0.00    -0.379 OA
ATOM     16  H   UNL     1      31.778 -25.098 -12.171  0.00  0.00    +0.211 HD
ENDBRANCH   9  15
BRANCH  11  17
ATOM     17  O   UNL     1      29.376 -24.498 -13.795  0.00  0.00    -0.379 OA
ATOM     18  H   UNL     1      29.384 -25.428 -14.072  0.00  0.00    +0.211 HD
ENDBRANCH  11  17
BRANCH  12  19
ATOM     19  C   UNL     1      29.001 -22.997 -16.312  0.00  0.00    +0.169 C 
BRANCH  19  20
ATOM     20  O   UNL     1      28.525 -22.318 -15.165  0.00  0.00    -0.379 OA
ATOM     21  H   UNL     1      28.808 -21.391 -15.197  0.00  0.00    +0.211 HD
ENDBRANCH  19  20
ENDBRANCH  12  19
ENDBRANCH   1  10
BRANCH   5  22
ATOM     22  C   UNL     1      36.695 -21.227 -19.479  0.00  0.00    +0.026 C 
ATOM     23  C   UNL     1      36.096 -20.242 -20.477  0.00  0.00    +0.005 C 
ENDBRANCH   5  22
BRANCH   4  24
ATOM     24  C   UNL     1      37.290 -22.213 -16.782  0.00  0.00    +0.052 C 
BRANCH  24  27
ATOM     25  O   UNL     1      36.339 -23.189 -12.099  0.00  0.00    -0.468 OA
ATOM     26  O   UNL     1      38.176 -25.409 -12.180  0.00  0.00    -0.468 OA
ATOM     27  C   UNL     1      37.522 -23.049 -15.541  0.00  0.00    -0.015 C 
ATOM     28  C   UNL     1      36.821 -22.764 -14.369  0.00  0.00    +0.036 C 
ATOM     29  C   UNL     1      38.440 -24.100 -15.569  0.00  0.00    -0.001 C 
ATOM     30  C   UNL     1      37.042 -23.531 -13.225  0.00  0.00    +0.172 C 
ATOM     31  C   UNL     1      37.940 -24.599 -13.261  0.00  0.00    +0.172 C 
ATOM     32  C   UNL     1      38.651 -24.875 -14.429  0.00  0.00    +0.040 C 
ATOM     33  C   UNL     1      36.885 -23.796 -10.925  0.00  0.00    +0.253 C 
ATOM     34  C   UNL     1      37.169 -25.264 -11.176  0.00  0.00    +0.253 C 
ENDBRANCH  24  27
ENDBRANCH   4  24
TORSDOF 9
ENDMDL
MODEL 6
REMARK VINA RESULT:     -10.2     11.402     17.307
REMARK  Name = 52913524
REMARK  9 active torsions:
REMARK  status: ('A' for Active; 'I' for Inactive)
REMARK    1  A    between atoms: C_1  and  C_10
REMARK    2  A    between atoms: C_4  and  C_24
REMARK    3  A    between atoms: C_5  and  C_22
REMARK    4  A    between atoms: C_8  and  O_13
REMARK    5  A    between atoms: C_9  and  O_15
REMARK    6  A    between atoms: C_11  and  O_17
REMARK    7  A    between atoms: C_12  and  C_19
REMARK    8  A    between atoms: C_19  and  O_20
REMARK    9  A    between atoms: C_24  and  C_27
REMARK                            x       y       z     vdW  Elec       q    Type
REMARK                         _______ _______ _______ _____ _____    ______ ____
ROOT
ATOM      1  C   UNL     1      31.676  -7.681 -21.878  0.00  0.00    +0.007 C 
ATOM      2  C   UNL     1      31.238  -8.978 -22.144  0.00  0.00    -0.006 C 
ATOM      3  C   UNL     1      32.320  -7.394 -20.675  0.00  0.00    -0.002 C 
ATOM      4  C   UNL     1      31.443  -9.989 -21.204  0.00  0.00    -0.022 C 
ATOM      5  C   UNL     1      32.087  -9.702 -20.000  0.00  0.00    -0.026 C 
ATOM      6  C   UNL     1      32.525  -8.405 -19.735  0.00  0.00    -0.005 C 
ENDROOT
BRANCH   1  10
ATOM      7  O   UNL     1      32.667  -6.430 -23.644  0.00  0.00    -0.347 OA
ATOM      8  C   UNL     1      31.048  -5.257 -22.239  0.00  0.00    +0.171 C 
ATOM      9  C   UNL     1      30.987  -4.126 -23.270  0.00  0.00    +0.169 C 
ATOM     10  C   UNL     1      31.454  -6.583 -22.900  0.00  0.00    +0.167 C 
ATOM     11  C   UNL     1      32.246  -4.094 -24.136  0.00  0.00    +0.169 C 
ATOM     12  C   UNL     1      32.550  -5.481 -24.705  0.00  0.00    +0.174 C 
BRANCH   8  13
ATOM     13  O   UNL     1      29.760  -5.416 -21.647  0.00  0.00    -0.379 OA
ATOM     14  H   UNL     1      29.856  -5.537 -20.689  0.00  0.00    +0.211 HD
ENDBRANCH   8  13
BRANCH   9  15
ATOM     15  O   UNL     1      30.884  -2.872 -22.594  0.00  0.00    -0.379 OA
ATOM     16  H   UNL     1      30.863  -2.154 -23.246  0.00  0.00    +0.211 HD
ENDBRANCH   9  15
BRANCH  11  17
ATOM     17  O   UNL     1      32.055  -3.177 -25.210  0.00  0.00    -0.379 OA
ATOM     18  H   UNL     1      32.909  -2.994 -25.634  0.00  0.00    +0.211 HD
ENDBRANCH  11  17
BRANCH  12  19
ATOM     19  C   UNL     1      33.863  -5.499 -25.481  0.00  0.00    +0.169 C 
BRANCH  19  20
ATOM     20  O   UNL     1      33.613  -5.046 -26.799  0.00  0.00    -0.379 OA
ATOM     21  H   UNL     1      32.663  -5.101 -26.985  0.00  0.00    +0.211 HD
ENDBRANCH  19  20
ENDBRANCH  12  19
ENDBRANCH   1  10
BRANCH   5  22
ATOM     22  C   UNL     1      32.316 -10.768 -18.979  0.00  0.00    +0.026 C 
ATOM     23  C   UNL     1      31.042 -11.130 -18.223  0.00  0.00    +0.005 C 
ENDBRANCH   5  22
BRANCH   4  24
ATOM     24  C   UNL     1      30.965 -11.370 -21.510  0.00  0.00    +0.052 C 
BRANCH  24  27
ATOM     25  O   UNL     1      33.327 -15.584 -20.835  0.00  0.00    -0.468 OA
ATOM     26  O   UNL     1      35.105 -14.946 -23.014  0.00  0.00    -0.468 OA
ATOM     27  C   UNL     1      32.071 -12.332 -21.891  0.00  0.00    -0.015 C 
ATOM     28  C   UNL     1      32.208 -13.541 -21.208  0.00  0.00    +0.036 C 
ATOM     29  C   UNL     1      32.955 -12.006 -22.920  0.00  0.00    -0.001 C 
ATOM     30  C   UNL     1      33.232 -14.422 -21.556  0.00  0.00    +0.172 C 
ATOM     31  C   UNL     1      34.100 -14.108 -22.604  0.00  0.00    +0.172 C 
ATOM     32  C   UNL     1      33.971 -12.892 -23.277  0.00  0.00    +0.040 C 
ATOM     33  C   UNL     1      34.587 -16.232 -21.033  0.00  0.00    +0.253 C 
ATOM     34  C   UNL     1      34.931 -16.272 -22.509  0.00  0.00    +0.253 C 
ENDBRANCH  24  27
ENDBRANCH   4  24
TORSDOF 9
ENDMDL
MODEL 7
REMARK VINA RESULT:     -10.0      3.157      7.468
REMARK  Name = 52913524
REMARK  9 active torsions:
REMARK  status: ('A' for Active; 'I' for Inactive)
REMARK    1  A    between atoms: C_1  and  C_10
REMARK    2  A    between atoms: C_4  and  C_24
REMARK    3  A    between atoms: C_5  and  C_22
REMARK    4  A    between atoms: C_8  and  O_13
REMARK    5  A    between atoms: C_9  and  O_15
REMARK    6  A    between atoms: C_11  and  O_17
REMARK    7  A    between atoms: C_12  and  C_19
REMARK    8  A    between atoms: C_19  and  O_20
REMARK    9  A    between atoms: C_24  and  C_27
REMARK                            x       y       z     vdW  Elec       q    Type
REMARK                         _______ _______ _______ _____ _____    ______ ____
ROOT
ATOM      1  C   UNL     1      34.764 -23.284 -16.324  0.00  0.00    +0.007 C 
ATOM      2  C   UNL     1      33.594 -23.425 -15.579  0.00  0.00    -0.006 C 
ATOM      3  C   UNL     1      36.004 -23.503 -15.724  0.00  0.00    -0.002 C 
ATOM      4  C   UNL     1      33.664 -23.784 -14.232  0.00  0.00    -0.022 C 
ATOM      5  C   UNL     1      34.904 -24.002 -13.632  0.00  0.00    -0.026 C 
ATOM      6  C   UNL     1      36.074 -23.861 -14.377  0.00  0.00    -0.005 C 
ENDROOT
BRANCH   1  10
ATOM      7  O   UNL     1      35.830 -22.085 -18.082  0.00  0.00    -0.347 OA
ATOM      8  C   UNL     1      33.387 -22.147 -18.116  0.00  0.00    +0.171 C 
ATOM      9  C   UNL     1      33.404 -21.625 -19.556  0.00  0.00    +0.169 C 
ATOM     10  C   UNL     1      34.688 -22.895 -17.787  0.00  0.00    +0.167 C 
ATOM     11  C   UNL     1      34.707 -20.888 -19.865  0.00  0.00    +0.169 C 
ATOM     12  C   UNL     1      35.917 -21.732 -19.463  0.00  0.00    +0.174 C 
BRANCH   8  13
ATOM     13  O   UNL     1      32.290 -23.046 -17.961  0.00  0.00    -0.379 OA
ATOM     14  H   UNL     1      31.593 -22.820 -18.596  0.00  0.00    +0.211 HD
ENDBRANCH   8  13
BRANCH   9  15
ATOM     15  O   UNL     1      32.324 -20.709 -19.742  0.00  0.00    -0.379 OA
ATOM     16  H   UNL     1      31.567 -21.176 -20.128  0.00  0.00    +0.211 HD
ENDBRANCH   9  15
BRANCH  11  17
ATOM     17  O   UNL     1      34.771 -20.611 -21.262  0.00  0.00    -0.379 OA
ATOM     18  H   UNL     1      34.010 -21.017 -21.707  0.00  0.00    +0.211 HD
ENDBRANCH  11  17
BRANCH  12  19
ATOM     19  C   UNL     1      37.226 -20.972 -19.659  0.00  0.00    +0.169 C 
BRANCH  19  20
ATOM     20  O   UNL     1      36.924 -19.620 -19.946  0.00  0.00    -0.379 OA
ATOM     21  H   UNL     1      36.214 -19.316 -19.359  0.00  0.00    +0.211 HD
ENDBRANCH  19  20
ENDBRANCH  12  19
ENDBRANCH   1  10
BRANCH   5  22
ATOM     22  C   UNL     1      35.004 -24.386 -12.192  0.00  0.00    +0.026 C 
ATOM     23  C   UNL     1      36.129 -25.384 -11.936  0.00  0.00    +0.005 C 
ENDBRANCH   5  22
BRANCH   4  24
ATOM     24  C   UNL     1      32.397 -23.929 -13.454  0.00  0.00    +0.052 C 
BRANCH  24  27
ATOM     25  O   UNL     1      28.584 -22.135 -15.910  0.00  0.00    -0.468 OA
ATOM     26  O   UNL     1      27.834 -24.802 -16.710  0.00  0.00    -0.468 OA
ATOM     27  C   UNL     1      31.170 -24.144 -14.315  0.00  0.00    -0.015 C 
ATOM     28  C   UNL     1      30.422 -23.048 -14.747  0.00  0.00    +0.036 C 
ATOM     29  C   UNL     1      30.785 -25.438 -14.670  0.00  0.00    -0.001 C 
ATOM     30  C   UNL     1      29.288 -23.250 -15.533  0.00  0.00    +0.172 C 
ATOM     31  C   UNL     1      28.919 -24.542 -15.912  0.00  0.00    +0.172 C 
ATOM     32  C   UNL     1      29.658 -25.638 -15.467  0.00  0.00    +0.040 C 
ATOM     33  C   UNL     1      27.282 -22.468 -16.401  0.00  0.00    +0.253 C 
ATOM     34  C   UNL     1      27.370 -23.626 -17.376  0.00  0.00    +0.253 C 
ENDBRANCH  24  27
ENDBRANCH   4  24
TORSDOF 9
ENDMDL
MODEL 8
REMARK VINA RESULT:      -9.8      1.773      7.018
REMARK  Name = 52913524
REMARK  9 active torsions:
REMARK  status: ('A' for Active; 'I' for Inactive)
REMARK    1  A    between atoms: C_1  and  C_10
REMARK    2  A    between atoms: C_4  and  C_24
REMARK    3  A    between atoms: C_5  and  C_22
REMARK    4  A    between atoms: C_8  and  O_13
REMARK    5  A    between atoms: C_9  and  O_15
REMARK    6  A    between atoms: C_11  and  O_17
REMARK    7  A    between atoms: C_12  and  C_19
REMARK    8  A    between atoms: C_19  and  O_20
REMARK    9  A    between atoms: C_24  and  C_27
REMARK                            x       y       z     vdW  Elec       q    Type
REMARK                         _______ _______ _______ _____ _____    ______ ____
ROOT
ATOM      1  C   UNL     1      33.398 -23.349 -16.615  0.00  0.00    +0.007 C 
ATOM      2  C   UNL     1      33.806 -23.862 -15.384  0.00  0.00    -0.006 C 
ATOM      3  C   UNL     1      32.041 -23.165 -16.879  0.00  0.00    -0.002 C 
ATOM      4  C   UNL     1      32.857 -24.191 -14.416  0.00  0.00    -0.022 C 
ATOM      5  C   UNL     1      31.499 -24.007 -14.681  0.00  0.00    -0.026 C 
ATOM      6  C   UNL     1      31.091 -23.494 -15.911  0.00  0.00    -0.005 C 
ENDROOT
BRANCH   1  10
ATOM      7  O   UNL     1      35.549 -22.404 -16.994  0.00  0.00    -0.347 OA
ATOM      8  C   UNL     1      33.864 -22.031 -18.724  0.00  0.00    +0.171 C 
ATOM      9  C   UNL     1      34.964 -21.557 -19.679  0.00  0.00    +0.169 C 
ATOM     10  C   UNL     1      34.430 -22.990 -17.666  0.00  0.00    +0.167 C 
ATOM     11  C   UNL     1      36.194 -21.072 -18.914  0.00  0.00    +0.169 C 
ATOM     12  C   UNL     1      36.632 -22.107 -17.876  0.00  0.00    +0.174 C 
BRANCH   8  13
ATOM     13  O   UNL     1      32.861 -22.716 -19.473  0.00  0.00    -0.379 OA
ATOM     14  H   UNL     1      32.206 -22.078 -19.796  0.00  0.00    +0.211 HD
ENDBRANCH   8  13
BRANCH   9  15
ATOM     15  O   UNL     1      34.474 -20.468 -20.464  0.00  0.00    -0.379 OA
ATOM     16  H   UNL     1      33.837 -19.955 -19.943  0.00  0.00    +0.211 HD
ENDBRANCH   9  15
BRANCH  11  17
ATOM     17  O   UNL     1      37.261 -20.847 -19.831  0.00  0.00    -0.379 OA
ATOM     18  H   UNL     1      37.066 -21.295 -20.670  0.00  0.00    +0.211 HD
ENDBRANCH  11  17
BRANCH  12  19
ATOM     19  C   UNL     1      37.791 -21.599 -17.024  0.00  0.00    +0.169 C 
BRANCH  19  20
ATOM     20  O   UNL     1      37.786 -20.184 -17.055  0.00  0.00    -0.379 OA
ATOM     21  H   UNL     1      38.321 -19.842 -16.322  0.00  0.00    +0.211 HD
ENDBRANCH  19  20
ENDBRANCH  12  19
ENDBRANCH   1  10
BRANCH   5  22
ATOM     22  C   UNL     1      30.464 -24.353 -13.661  0.00  0.00    +0.026 C 
ATOM     23  C   UNL     1      29.452 -25.366 -14.185  0.00  0.00    +0.005 C 
ENDBRANCH   5  22
BRANCH   4  24
ATOM     24  C   UNL     1      33.317 -24.739 -13.106  0.00  0.00    +0.052 C 
BRANCH  24  27
ATOM     25  O   UNL     1      37.679 -26.358 -14.569  0.00  0.00    -0.468 OA
ATOM     26  O   UNL     1      38.957 -24.808 -12.502  0.00  0.00    -0.468 OA
ATOM     27  C   UNL     1      34.824 -24.778 -12.953  0.00  0.00    -0.015 C 
ATOM     28  C   UNL     1      35.593 -25.538 -13.833  0.00  0.00    +0.036 C 
ATOM     29  C   UNL     1      35.439 -24.058 -11.928  0.00  0.00    -0.001 C 
ATOM     30  C   UNL     1      36.979 -25.578 -13.686  0.00  0.00    +0.172 C 
ATOM     31  C   UNL     1      37.598 -24.835 -12.677  0.00  0.00    +0.172 C 
ATOM     32  C   UNL     1      36.827 -24.087 -11.788  0.00  0.00    +0.040 C 
ATOM     33  C   UNL     1      39.016 -26.600 -14.123  0.00  0.00    +0.253 C 
ATOM     34  C   UNL     1      39.652 -25.310 -13.646  0.00  0.00    +0.253 C 
ENDBRANCH  24  27
ENDBRANCH   4  24
TORSDOF 9
ENDMDL
MODEL 9
REMARK VINA RESULT:      -9.8      5.674     10.043
REMARK  Name = 52913524
REMARK  9 active torsions:
REMARK  status: ('A' for Active; 'I' for Inactive)
REMARK    1  A    between atoms: C_1  and  C_10
REMARK    2  A    between atoms: C_4  and  C_24
REMARK    3  A    between atoms: C_5  and  C_22
REMARK    4  A    between atoms: C_8  and  O_13
REMARK    5  A    between atoms: C_9  and  O_15
REMARK    6  A    between atoms: C_11  and  O_17
REMARK    7  A    between atoms: C_12  and  C_19
REMARK    8  A    between atoms: C_19  and  O_20
REMARK    9  A    between atoms: C_24  and  C_27
REMARK                            x       y       z     vdW  Elec       q    Type
REMARK                         _______ _______ _______ _____ _____    ______ ____
ROOT
ATOM      1  C   UNL     1      35.020 -18.391 -23.151  0.00  0.00    +0.007 C 
ATOM      2  C   UNL     1      35.227 -17.051 -22.825  0.00  0.00    -0.006 C 
ATOM      3  C   UNL     1      34.439 -18.731 -24.373  0.00  0.00    -0.002 C 
ATOM      4  C   UNL     1      34.852 -16.050 -23.722  0.00  0.00    -0.022 C 
ATOM      5  C   UNL     1      34.270 -16.390 -24.944  0.00  0.00    -0.026 C 
ATOM      6  C   UNL     1      34.064 -17.730 -25.269  0.00  0.00    -0.005 C 
ENDROOT
BRANCH   1  10
ATOM      7  O   UNL     1      34.281 -19.808 -21.387  0.00  0.00    -0.347 OA
ATOM      8  C   UNL     1      36.600 -19.041 -21.285  0.00  0.00    +0.171 C 
ATOM      9  C   UNL     1      36.888 -20.089 -20.206  0.00  0.00    +0.169 C 
ATOM     10  C   UNL     1      35.428 -19.479 -22.177  0.00  0.00    +0.167 C 
ATOM     11  C   UNL     1      35.609 -20.513 -19.485  0.00  0.00    +0.169 C 
ATOM     12  C   UNL     1      34.520 -20.893 -20.489  0.00  0.00    +0.174 C 
BRANCH   8  13
ATOM     13  O   UNL     1      37.760 -18.880 -22.098  0.00  0.00    -0.379 OA
ATOM     14  H   UNL     1      37.572 -18.248 -22.810  0.00  0.00    +0.211 HD
ENDBRANCH   8  13
BRANCH   9  15
ATOM     15  O   UNL     1      37.780 -19.538 -19.235  0.00  0.00    -0.379 OA
ATOM     16  H   UNL     1      38.660 -19.929 -19.346  0.00  0.00    +0.211 HD
ENDBRANCH   9  15
BRANCH  11  17
ATOM     17  O   UNL     1      35.889 -21.632 -18.649  0.00  0.00    -0.379 OA
ATOM     18  H   UNL     1      36.695 -21.460 -18.138  0.00  0.00    +0.211 HD
ENDBRANCH  11  17
BRANCH  12  19
ATOM     19  C   UNL     1      33.199 -21.213 -19.797  0.00  0.00    +0.169 C 
BRANCH  19  20
ATOM     20  O   UNL     1      33.212 -22.574 -19.407  0.00  0.00    -0.379 OA
ATOM     21  H   UNL     1      32.471 -23.038 -19.828  0.00  0.00    +0.211 HD
ENDBRANCH  19  20
ENDBRANCH  12  19
ENDBRANCH   1  10
BRANCH   5  22
ATOM     22  C   UNL     1      33.860 -15.336 -25.919  0.00  0.00    +0.026 C 
ATOM     23  C   UNL     1      32.467 -14.787 -25.626  0.00  0.00    +0.005 C 
ENDBRANCH   5  22
BRANCH   4  24
ATOM     24  C   UNL     1      35.082 -14.622 -23.351  0.00  0.00    +0.052 C 
BRANCH  24  27
ATOM     25  O   UNL     1      32.000 -11.065 -22.071  0.00  0.00    -0.468 OA
ATOM     26  O   UNL     1      31.177 -12.595 -19.770  0.00  0.00    -0.468 OA
ATOM     27  C   UNL     1      34.045 -14.060 -22.400  0.00  0.00    -0.015 C 
ATOM     28  C   UNL     1      33.467 -12.817 -22.657  0.00  0.00    +0.036 C 
ATOM     29  C   UNL     1      33.675 -14.784 -21.265  0.00  0.00    -0.001 C 
ATOM     30  C   UNL     1      32.518 -12.299 -21.775  0.00  0.00    +0.172 C 
ATOM     31  C   UNL     1      32.127 -13.035 -20.655  0.00  0.00    +0.172 C 
ATOM     32  C   UNL     1      32.717 -14.272 -20.391  0.00  0.00    +0.040 C 
ATOM     33  C   UNL     1      31.320 -10.490 -20.951  0.00  0.00    +0.253 C 
ATOM     34  C   UNL     1      30.409 -11.516 -20.308  0.00  0.00    +0.253 C 
ENDBRANCH  24  27
ENDBRANCH   4  24
TORSDOF 9
ENDMDL
