MODEL 1
REMARK VINA RESULT:     -11.1      0.000      0.000
REMARK  Name = 4565
REMARK  4 active torsions:
REMARK  status: ('A' for Active; 'I' for Inactive)
REMARK    1  A    between atoms: N_5  and  C_15
REMARK    2  A    between atoms: C_6  and  O_21
REMARK    3  A    between atoms: O_21  and  C_22
REMARK    4  A    between atoms: C_22  and  C_23
REMARK                            x       y       z     vdW  Elec       q    Type
REMARK                         _______ _______ _______ _____ _____    ______ ____
ROOT
ATOM      1  N   UNL     1      32.756 -23.684 -15.529  0.00  0.00    -0.293 NA
ATOM      2  N   UNL     1      29.381 -22.901 -16.762  0.00  0.00    -0.266 NA
ATOM      3  N   UNL     1      30.972 -24.193 -13.944  0.00  0.00    -0.316 NA
ATOM      4  N   UNL     1      28.746 -23.671 -14.768  0.00  0.00    -0.296 N 
ATOM      5  N   UNL     1      33.217 -24.592 -13.420  0.00  0.00    -0.238 N 
ATOM      6  C   UNL     1      31.871 -23.235 -16.445  0.00  0.00    +0.288 C 
ATOM      7  C   UNL     1      30.531 -23.260 -16.119  0.00  0.00    +0.215 C 
ATOM      8  C   UNL     1      30.111 -23.735 -14.884  0.00  0.00    +0.196 C 
ATOM      9  C   UNL     1      32.258 -24.130 -14.351  0.00  0.00    +0.207 C 
ATOM     10  C   UNL     1      28.338 -23.166 -15.913  0.00  0.00    +0.164 C 
ATOM     11  H   UNL     1      29.312 -22.522 -17.668  0.00  0.00    +0.126 HD
ATOM     12  H   UNL     1      28.193 -23.943 -14.000  0.00  0.00    +0.150 HD
ATOM     13  H   UNL     1      32.827 -24.910 -12.573  0.00  0.00    +0.166 HD
ENDROOT
BRANCH   5  15
ATOM     14 CL   UNL     1      37.750 -23.269 -11.413  0.00  0.00    -0.082 Cl
ATOM     15  C   UNL     1      34.620 -24.686 -13.467  0.00  0.00    +0.059 C 
ATOM     16  C   UNL     1      35.400 -24.009 -12.526  0.00  0.00    +0.027 C 
ATOM     17  C   UNL     1      35.239 -25.456 -14.455  0.00  0.00    +0.015 C 
ATOM     18  C   UNL     1      36.791 -24.103 -12.574  0.00  0.00    +0.059 C 
ATOM     19  C   UNL     1      36.629 -25.551 -14.501  0.00  0.00    +0.002 C 
ATOM     20  C   UNL     1      37.406 -24.874 -13.560  0.00  0.00    +0.011 C 
ENDBRANCH   5  15
BRANCH   6  21
ATOM     21  O   UNL     1      32.342 -22.775 -17.651  0.00  0.00    -0.453 OA
BRANCH  21  22
ATOM     22  C   UNL     1      33.689 -23.070 -17.970  0.00  0.00    +0.208 C 
BRANCH  22  23
ATOM     23  C   UNL     1      34.066 -22.304 -19.236  0.00  0.00    +0.044 C 
ATOM     24  C   UNL     1      33.058 -21.178 -19.509  0.00  0.00    +0.004 C 
ATOM     25  C   UNL     1      35.492 -21.746 -19.128  0.00  0.00    +0.004 C 
ATOM     26  C   UNL     1      33.444 -20.364 -20.742  0.00  0.00    +0.000 C 
ATOM     27  C   UNL     1      35.872 -20.930 -20.362  0.00  0.00    +0.000 C 
ATOM     28  C   UNL     1      34.863 -19.818 -20.635  0.00  0.00    +0.000 C 
ENDBRANCH  22  23
ENDBRANCH  21  22
ENDBRANCH   6  21
TORSDOF 4
ENDMDL
MODEL 2
REMARK VINA RESULT:     -11.0      1.293      1.796
REMARK  Name = 4565
REMARK  4 active torsions:
REMARK  status: ('A' for Active; 'I' for Inactive)
REMARK    1  A    between atoms: N_5  and  C_15
REMARK    2  A    between atoms: C_6  and  O_21
REMARK    3  A    between atoms: O_21  and  C_22
REMARK    4  A    between atoms: C_22  and  C_23
REMARK                            x       y       z     vdW  Elec       q    Type
REMARK                         _______ _______ _______ _____ _____    ______ ____
ROOT
ATOM      1  N   UNL     1      33.127 -23.520 -15.886  0.00  0.00    -0.293 NA
ATOM      2  N   UNL     1      29.612 -22.787 -16.681  0.00  0.00    -0.266 NA
ATOM      3  N   UNL     1      31.620 -23.664 -13.972  0.00  0.00    -0.316 NA
ATOM      4  N   UNL     1      29.300 -23.177 -14.509  0.00  0.00    -0.296 N 
ATOM      5  N   UNL     1      33.912 -24.081 -13.752  0.00  0.00    -0.238 N 
ATOM      6  C   UNL     1      32.113 -23.187 -16.713  0.00  0.00    +0.288 C 
ATOM      7  C   UNL     1      30.845 -23.089 -16.178  0.00  0.00    +0.215 C 
ATOM      8  C   UNL     1      30.625 -23.328 -14.828  0.00  0.00    +0.196 C 
ATOM      9  C   UNL     1      32.822 -23.735 -14.584  0.00  0.00    +0.207 C 
ATOM     10  C   UNL     1      28.719 -22.853 -15.644  0.00  0.00    +0.164 C 
ATOM     11  H   UNL     1      29.402 -22.563 -17.617  0.00  0.00    +0.126 HD
ATOM     12  H   UNL     1      28.877 -23.288 -13.626  0.00  0.00    +0.150 HD
ATOM     13  H   UNL     1      33.662 -24.232 -12.812  0.00  0.00    +0.166 HD
ENDROOT
BRANCH   5  15
ATOM     14 CL   UNL     1      37.893 -27.279 -14.257  0.00  0.00    -0.082 Cl
ATOM     15  C   UNL     1      35.285 -24.252 -14.006  0.00  0.00    +0.059 C 
ATOM     16  C   UNL     1      35.845 -25.532 -14.005  0.00  0.00    +0.027 C 
ATOM     17  C   UNL     1      36.095 -23.142 -14.259  0.00  0.00    +0.015 C 
ATOM     18  C   UNL     1      37.206 -25.700 -14.258  0.00  0.00    +0.059 C 
ATOM     19  C   UNL     1      37.456 -23.311 -14.512  0.00  0.00    +0.002 C 
ATOM     20  C   UNL     1      38.012 -24.591 -14.511  0.00  0.00    +0.011 C 
ENDBRANCH   5  15
BRANCH   6  21
ATOM     21  O   UNL     1      32.387 -22.962 -18.040  0.00  0.00    -0.453 OA
BRANCH  21  22
ATOM     22  C   UNL     1      33.721 -23.168 -18.466  0.00  0.00    +0.208 C 
BRANCH  22  23
ATOM     23  C   UNL     1      34.282 -21.839 -18.966  0.00  0.00    +0.044 C 
ATOM     24  C   UNL     1      35.700 -22.024 -19.522  0.00  0.00    +0.004 C 
ATOM     25  C   UNL     1      33.356 -21.223 -20.023  0.00  0.00    +0.004 C 
ATOM     26  C   UNL     1      36.263 -20.717 -20.077  0.00  0.00    +0.000 C 
ATOM     27  C   UNL     1      33.923 -19.918 -20.578  0.00  0.00    +0.000 C 
ATOM     28  C   UNL     1      35.336 -20.104 -21.122  0.00  0.00    +0.000 C 
ENDBRANCH  22  23
ENDBRANCH  21  22
ENDBRANCH   6  21
TORSDOF 4
ENDMDL
MODEL 3
REMARK VINA RESULT:     -11.0      8.076     11.240
REMARK  Name = 4565
REMARK  4 active torsions:
REMARK  status: ('A' for Active; 'I' for Inactive)
REMARK    1  A    between atoms: N_5  and  C_15
REMARK    2  A    between atoms: C_6  and  O_21
REMARK    3  A    between atoms: O_21  and  C_22
REMARK    4  A    between atoms: C_22  and  C_23
REMARK                            x       y       z     vdW  Elec       q    Type
REMARK                         _______ _______ _______ _____ _____    ______ ____
ROOT
ATOM      1  N   UNL     1      34.491 -16.130 -22.923  0.00  0.00    -0.293 NA
ATOM      2  N   UNL     1      33.315 -13.356 -25.031  0.00  0.00    -0.266 NA
ATOM      3  N   UNL     1      34.428 -16.645 -25.307  0.00  0.00    -0.316 NA
ATOM      4  N   UNL     1      33.648 -14.806 -26.691  0.00  0.00    -0.296 N 
ATOM      5  N   UNL     1      35.137 -18.229 -23.737  0.00  0.00    -0.238 N 
ATOM      6  C   UNL     1      34.034 -14.877 -23.139  0.00  0.00    +0.288 C 
ATOM      7  C   UNL     1      33.771 -14.499 -24.439  0.00  0.00    +0.215 C 
ATOM      8  C   UNL     1      33.971 -15.384 -25.490  0.00  0.00    +0.196 C 
ATOM      9  C   UNL     1      34.658 -16.927 -24.007  0.00  0.00    +0.207 C 
ATOM     10  C   UNL     1      33.258 -13.588 -26.380  0.00  0.00    +0.164 C 
ATOM     11  H   UNL     1      33.071 -12.519 -24.573  0.00  0.00    +0.126 HD
ATOM     12  H   UNL     1      33.698 -15.211 -27.587  0.00  0.00    +0.150 HD
ATOM     13  H   UNL     1      35.248 -18.785 -24.542  0.00  0.00    +0.166 HD
ENDROOT
BRANCH   5  15
ATOM     14 CL   UNL     1      33.705 -21.232 -19.831  0.00  0.00    -0.082 Cl
ATOM     15  C   UNL     1      35.485 -18.886 -22.543  0.00  0.00    +0.059 C 
ATOM     16  C   UNL     1      34.533 -19.645 -21.857  0.00  0.00    +0.027 C 
ATOM     17  C   UNL     1      36.784 -18.783 -22.039  0.00  0.00    +0.015 C 
ATOM     18  C   UNL     1      34.880 -20.297 -20.674  0.00  0.00    +0.059 C 
ATOM     19  C   UNL     1      37.130 -19.436 -20.856  0.00  0.00    +0.002 C 
ATOM     20  C   UNL     1      36.177 -20.193 -20.173  0.00  0.00    +0.011 C 
ENDBRANCH   5  15
BRANCH   6  21
ATOM     21  O   UNL     1      33.854 -14.044 -22.062  0.00  0.00    -0.453 OA
BRANCH  21  22
ATOM     22  C   UNL     1      32.795 -14.356 -21.177  0.00  0.00    +0.208 C 
BRANCH  22  23
ATOM     23  C   UNL     1      31.927 -13.112 -21.001  0.00  0.00    +0.044 C 
ATOM     24  C   UNL     1      31.880 -12.688 -19.526  0.00  0.00    +0.004 C 
ATOM     25  C   UNL     1      32.439 -11.965 -21.883  0.00  0.00    +0.004 C 
ATOM     26  C   UNL     1      31.061 -11.414 -19.332  0.00  0.00    +0.000 C 
ATOM     27  C   UNL     1      31.620 -10.692 -21.684  0.00  0.00    +0.000 C 
ATOM     28  C   UNL     1      31.567 -10.279 -20.216  0.00  0.00    +0.000 C 
ENDBRANCH  22  23
ENDBRANCH  21  22
ENDBRANCH   6  21
TORSDOF 4
ENDMDL
MODEL 4
REMARK VINA RESULT:     -10.6      3.190      7.017
REMARK  Name = 4565
REMARK  4 active torsions:
REMARK  status: ('A' for Active; 'I' for Inactive)
REMARK    1  A    between atoms: N_5  and  C_15
REMARK    2  A    between atoms: C_6  and  O_21
REMARK    3  A    between atoms: O_21  and  C_22
REMARK    4  A    between atoms: C_22  and  C_23
REMARK                            x       y       z     vdW  Elec       q    Type
REMARK                         _______ _______ _______ _____ _____    ______ ____
ROOT
ATOM      1  N   UNL     1      34.984 -24.041 -15.354  0.00  0.00    -0.293 NA
ATOM      2  N   UNL     1      36.004 -25.824 -12.304  0.00  0.00    -0.266 NA
ATOM      3  N   UNL     1      37.392 -24.047 -14.960  0.00  0.00    -0.316 NA
ATOM      4  N   UNL     1      38.055 -25.227 -12.941  0.00  0.00    -0.296 N 
ATOM      5  N   UNL     1      36.466 -22.985 -16.828  0.00  0.00    -0.238 N 
ATOM      6  C   UNL     1      34.756 -24.756 -14.231  0.00  0.00    +0.288 C 
ATOM      7  C   UNL     1      35.842 -25.122 -13.464  0.00  0.00    +0.215 C 
ATOM      8  C   UNL     1      37.129 -24.763 -13.841  0.00  0.00    +0.196 C 
ATOM      9  C   UNL     1      36.271 -23.734 -15.645  0.00  0.00    +0.207 C 
ATOM     10  C   UNL     1      37.346 -25.860 -12.031  0.00  0.00    +0.164 C 
ATOM     11  H   UNL     1      35.288 -26.228 -11.762  0.00  0.00    +0.126 HD
ATOM     12  H   UNL     1      39.032 -25.113 -12.970  0.00  0.00    +0.150 HD
ATOM     13  H   UNL     1      37.411 -22.777 -17.015  0.00  0.00    +0.166 HD
ENDROOT
BRANCH   5  15
ATOM     14 CL   UNL     1      35.734 -20.098 -21.006  0.00  0.00    -0.082 Cl
ATOM     15  C   UNL     1      35.575 -22.478 -17.790  0.00  0.00    +0.059 C 
ATOM     16  C   UNL     1      36.041 -21.636 -18.804  0.00  0.00    +0.027 C 
ATOM     17  C   UNL     1      34.219 -22.813 -17.737  0.00  0.00    +0.015 C 
ATOM     18  C   UNL     1      35.156 -21.134 -19.758  0.00  0.00    +0.059 C 
ATOM     19  C   UNL     1      33.336 -22.311 -18.692  0.00  0.00    +0.002 C 
ATOM     20  C   UNL     1      33.804 -21.471 -19.703  0.00  0.00    +0.011 C 
ENDBRANCH   5  15
BRANCH   6  21
ATOM     21  O   UNL     1      33.462 -25.083 -13.906  0.00  0.00    -0.453 OA
BRANCH  21  22
ATOM     22  C   UNL     1      32.735 -24.145 -13.135  0.00  0.00    +0.208 C 
BRANCH  22  23
ATOM     23  C   UNL     1      31.313 -24.064 -13.685  0.00  0.00    +0.044 C 
ATOM     24  C   UNL     1      31.303 -23.390 -15.064  0.00  0.00    +0.004 C 
ATOM     25  C   UNL     1      30.677 -25.458 -13.754  0.00  0.00    +0.004 C 
ATOM     26  C   UNL     1      29.898 -23.344 -15.659  0.00  0.00    +0.000 C 
ATOM     27  C   UNL     1      29.273 -25.409 -14.351  0.00  0.00    +0.000 C 
ATOM     28  C   UNL     1      29.266 -24.731 -15.718  0.00  0.00    +0.000 C 
ENDBRANCH  22  23
ENDBRANCH  21  22
ENDBRANCH   6  21
TORSDOF 4
ENDMDL
MODEL 5
REMARK VINA RESULT:     -10.5      2.767      6.391
REMARK  Name = 4565
REMARK  4 active torsions:
REMARK  status: ('A' for Active; 'I' for Inactive)
REMARK    1  A    between atoms: N_5  and  C_15
REMARK    2  A    between atoms: C_6  and  O_21
REMARK    3  A    between atoms: O_21  and  C_22
REMARK    4  A    between atoms: C_22  and  C_23
REMARK                            x       y       z     vdW  Elec       q    Type
REMARK                         _______ _______ _______ _____ _____    ______ ____
ROOT
ATOM      1  N   UNL     1      33.565 -23.253 -16.166  0.00  0.00    -0.293 NA
ATOM      2  N   UNL     1      31.655 -24.847 -13.457  0.00  0.00    -0.266 NA
ATOM      3  N   UNL     1      31.185 -23.510 -16.640  0.00  0.00    -0.316 NA
ATOM      4  N   UNL     1      29.933 -24.565 -14.844  0.00  0.00    -0.296 N 
ATOM      5  N   UNL     1      32.637 -22.527 -18.189  0.00  0.00    -0.238 N 
ATOM      6  C   UNL     1      33.428 -23.827 -14.950  0.00  0.00    +0.288 C 
ATOM      7  C   UNL     1      32.170 -24.246 -14.570  0.00  0.00    +0.215 C 
ATOM      8  C   UNL     1      31.081 -24.081 -15.416  0.00  0.00    +0.196 C 
ATOM      9  C   UNL     1      32.450 -23.132 -16.925  0.00  0.00    +0.207 C 
ATOM     10  C   UNL     1      30.312 -25.017 -13.668  0.00  0.00    +0.164 C 
ATOM     11  H   UNL     1      32.156 -25.110 -12.651  0.00  0.00    +0.126 HD
ATOM     12  H   UNL     1      29.026 -24.571 -15.227  0.00  0.00    +0.150 HD
ATOM     13  H   UNL     1      31.810 -22.452 -18.720  0.00  0.00    +0.166 HD
ENDROOT
BRANCH   5  15
ATOM     14 CL   UNL     1      34.582 -19.385 -21.748  0.00  0.00    -0.082 Cl
ATOM     15  C   UNL     1      33.773 -22.012 -18.838  0.00  0.00    +0.059 C 
ATOM     16  C   UNL     1      33.632 -21.064 -19.855  0.00  0.00    +0.027 C 
ATOM     17  C   UNL     1      35.049 -22.447 -18.470  0.00  0.00    +0.015 C 
ATOM     18  C   UNL     1      34.759 -20.554 -20.497  0.00  0.00    +0.059 C 
ATOM     19  C   UNL     1      36.176 -21.936 -19.112  0.00  0.00    +0.002 C 
ATOM     20  C   UNL     1      36.032 -20.989 -20.127  0.00  0.00    +0.011 C 
ENDBRANCH   5  15
BRANCH   6  21
ATOM     21  O   UNL     1      34.538 -23.965 -14.154  0.00  0.00    -0.453 OA
BRANCH  21  22
ATOM     22  C   UNL     1      35.708 -23.278 -14.557  0.00  0.00    +0.208 C 
BRANCH  22  23
ATOM     23  C   UNL     1      36.922 -24.026 -14.009  0.00  0.00    +0.044 C 
ATOM     24  C   UNL     1      36.967 -23.936 -12.477  0.00  0.00    +0.004 C 
ATOM     25  C   UNL     1      36.911 -25.489 -14.470  0.00  0.00    +0.004 C 
ATOM     26  C   UNL     1      38.144 -24.722 -11.901  0.00  0.00    +0.000 C 
ATOM     27  C   UNL     1      38.087 -26.272 -13.890  0.00  0.00    +0.000 C 
ATOM     28  C   UNL     1      38.134 -26.173 -12.369  0.00  0.00    +0.000 C 
ENDBRANCH  22  23
ENDBRANCH  21  22
ENDBRANCH   6  21
TORSDOF 4
ENDMDL
MODEL 6
REMARK VINA RESULT:     -10.2      2.593      5.396
REMARK  Name = 4565
REMARK  4 active torsions:
REMARK  status: ('A' for Active; 'I' for Inactive)
REMARK    1  A    between atoms: N_5  and  C_15
REMARK    2  A    between atoms: C_6  and  O_21
REMARK    3  A    between atoms: O_21  and  C_22
REMARK    4  A    between atoms: C_22  and  C_23
REMARK                            x       y       z     vdW  Elec       q    Type
REMARK                         _______ _______ _______ _____ _____    ______ ____
ROOT
ATOM      1  N   UNL     1      35.462 -23.515 -16.044  0.00  0.00    -0.293 NA
ATOM      2  N   UNL     1      33.923 -21.949 -18.994  0.00  0.00    -0.266 NA
ATOM      3  N   UNL     1      37.025 -22.265 -17.440  0.00  0.00    -0.316 NA
ATOM      4  N   UNL     1      35.997 -21.234 -19.387  0.00  0.00    -0.296 N 
ATOM      5  N   UNL     1      37.735 -23.363 -15.500  0.00  0.00    -0.238 N 
ATOM      6  C   UNL     1      34.429 -23.217 -16.861  0.00  0.00    +0.288 C 
ATOM      7  C   UNL     1      34.684 -22.441 -17.973  0.00  0.00    +0.215 C 
ATOM      8  C   UNL     1      35.968 -21.984 -18.239  0.00  0.00    +0.196 C 
ATOM      9  C   UNL     1      36.681 -23.027 -16.380  0.00  0.00    +0.207 C 
ATOM     10  C   UNL     1      34.753 -21.232 -19.815  0.00  0.00    +0.164 C 
ATOM     11  H   UNL     1      32.955 -22.083 -19.118  0.00  0.00    +0.126 HD
ATOM     12  H   UNL     1      36.776 -20.795 -19.799  0.00  0.00    +0.150 HD
ATOM     13  H   UNL     1      38.608 -22.995 -15.768  0.00  0.00    +0.166 HD
ENDROOT
BRANCH   5  15
ATOM     14 CL   UNL     1      36.599 -23.734 -10.510  0.00  0.00    -0.082 Cl
ATOM     15  C   UNL     1      37.780 -24.120 -14.315  0.00  0.00    +0.059 C 
ATOM     16  C   UNL     1      37.231 -23.611 -13.135  0.00  0.00    +0.027 C 
ATOM     17  C   UNL     1      38.374 -25.385 -14.314  0.00  0.00    +0.015 C 
ATOM     18  C   UNL     1      37.276 -24.363 -11.962  0.00  0.00    +0.059 C 
ATOM     19  C   UNL     1      38.418 -26.137 -13.140  0.00  0.00    +0.002 C 
ATOM     20  C   UNL     1      37.869 -25.625 -11.963  0.00  0.00    +0.011 C 
ENDBRANCH   5  15
BRANCH   6  21
ATOM     21  O   UNL     1      33.179 -23.696 -16.550  0.00  0.00    -0.453 OA
BRANCH  21  22
ATOM     22  C   UNL     1      32.869 -23.839 -15.177  0.00  0.00    +0.208 C 
BRANCH  22  23
ATOM     23  C   UNL     1      31.356 -23.715 -15.006  0.00  0.00    +0.044 C 
ATOM     24  C   UNL     1      30.717 -23.112 -16.266  0.00  0.00    +0.004 C 
ATOM     25  C   UNL     1      30.734 -25.078 -14.678  0.00  0.00    +0.004 C 
ATOM     26  C   UNL     1      29.197 -23.027 -16.140  0.00  0.00    +0.000 C 
ATOM     27  C   UNL     1      29.214 -24.989 -14.556  0.00  0.00    +0.000 C 
ATOM     28  C   UNL     1      28.583 -24.381 -15.805  0.00  0.00    +0.000 C 
ENDBRANCH  22  23
ENDBRANCH  21  22
ENDBRANCH   6  21
TORSDOF 4
ENDMDL
MODEL 7
REMARK VINA RESULT:     -10.1      3.266      6.039
REMARK  Name = 4565
REMARK  4 active torsions:
REMARK  status: ('A' for Active; 'I' for Inactive)
REMARK    1  A    between atoms: N_5  and  C_15
REMARK    2  A    between atoms: C_6  and  O_21
REMARK    3  A    between atoms: O_21  and  C_22
REMARK    4  A    between atoms: C_22  and  C_23
REMARK                            x       y       z     vdW  Elec       q    Type
REMARK                         _______ _______ _______ _____ _____    ______ ____
ROOT
ATOM      1  N   UNL     1      36.115 -24.351 -14.672  0.00  0.00    -0.293 NA
ATOM      2  N   UNL     1      39.725 -25.040 -14.538  0.00  0.00    -0.266 NA
ATOM      3  N   UNL     1      36.746 -26.058 -13.046  0.00  0.00    -0.316 NA
ATOM      4  N   UNL     1      39.133 -26.506 -12.967  0.00  0.00    -0.296 N 
ATOM      5  N   UNL     1      34.513 -25.422 -13.341  0.00  0.00    -0.238 N 
ATOM      6  C   UNL     1      37.400 -24.175 -15.049  0.00  0.00    +0.288 C 
ATOM      7  C   UNL     1      38.368 -24.939 -14.429  0.00  0.00    +0.215 C 
ATOM      8  C   UNL     1      38.024 -25.858 -13.447  0.00  0.00    +0.196 C 
ATOM      9  C   UNL     1      35.871 -25.269 -13.706  0.00  0.00    +0.207 C 
ATOM     10  C   UNL     1      40.138 -25.990 -13.642  0.00  0.00    +0.164 C 
ATOM     11  H   UNL     1      40.302 -24.525 -15.148  0.00  0.00    +0.126 HD
ATOM     12  H   UNL     1      39.170 -27.201 -12.270  0.00  0.00    +0.150 HD
ATOM     13  H   UNL     1      34.365 -26.095 -12.637  0.00  0.00    +0.166 HD
ENDROOT
BRANCH   5  15
ATOM     14 CL   UNL     1      29.434 -25.677 -14.016  0.00  0.00    -0.082 Cl
ATOM     15  C   UNL     1      33.333 -24.800 -13.786  0.00  0.00    +0.059 C 
ATOM     16  C   UNL     1      32.110 -25.469 -13.692  0.00  0.00    +0.027 C 
ATOM     17  C   UNL     1      33.378 -23.512 -14.325  0.00  0.00    +0.015 C 
ATOM     18  C   UNL     1      30.940 -24.851 -14.133  0.00  0.00    +0.059 C 
ATOM     19  C   UNL     1      32.208 -22.895 -14.765  0.00  0.00    +0.002 C 
ATOM     20  C   UNL     1      30.988 -23.565 -14.669  0.00  0.00    +0.011 C 
ENDBRANCH   5  15
BRANCH   6  21
ATOM     21  O   UNL     1      37.684 -23.252 -16.026  0.00  0.00    -0.453 OA
BRANCH  21  22
ATOM     22  C   UNL     1      36.725 -22.234 -16.246  0.00  0.00    +0.208 C 
BRANCH  22  23
ATOM     23  C   UNL     1      36.138 -22.416 -17.644  0.00  0.00    +0.044 C 
ATOM     24  C   UNL     1      34.610 -22.546 -17.577  0.00  0.00    +0.004 C 
ATOM     25  C   UNL     1      36.547 -21.254 -18.560  0.00  0.00    +0.004 C 
ATOM     26  C   UNL     1      33.994 -22.675 -18.968  0.00  0.00    +0.000 C 
ATOM     27  C   UNL     1      35.927 -21.386 -19.949  0.00  0.00    +0.000 C 
ATOM     28  C   UNL     1      34.409 -21.524 -19.878  0.00  0.00    +0.000 C 
ENDBRANCH  22  23
ENDBRANCH  21  22
ENDBRANCH   6  21
TORSDOF 4
ENDMDL
MODEL 8
REMARK VINA RESULT:     -10.1      6.452      9.205
REMARK  Name = 4565
REMARK  4 active torsions:
REMARK  status: ('A' for Active; 'I' for Inactive)
REMARK    1  A    between atoms: N_5  and  C_15
REMARK    2  A    between atoms: C_6  and  O_21
REMARK    3  A    between atoms: O_21  and  C_22
REMARK    4  A    between atoms: C_22  and  C_23
REMARK                            x       y       z     vdW  Elec       q    Type
REMARK                         _______ _______ _______ _____ _____    ______ ____
ROOT
ATOM      1  N   UNL     1      34.681 -18.034 -20.896  0.00  0.00    -0.293 NA
ATOM      2  N   UNL     1      34.803 -15.105 -23.116  0.00  0.00    -0.266 NA
ATOM      3  N   UNL     1      35.235 -18.560 -23.213  0.00  0.00    -0.316 NA
ATOM      4  N   UNL     1      35.312 -16.618 -24.672  0.00  0.00    -0.296 N 
ATOM      5  N   UNL     1      35.089 -20.234 -21.585  0.00  0.00    -0.238 N 
ATOM      6  C   UNL     1      34.583 -16.716 -21.175  0.00  0.00    +0.288 C 
ATOM      7  C   UNL     1      34.810 -16.309 -22.473  0.00  0.00    +0.215 C 
ATOM      8  C   UNL     1      35.128 -17.233 -23.460  0.00  0.00    +0.196 C 
ATOM      9  C   UNL     1      34.997 -18.864 -21.919  0.00  0.00    +0.207 C 
ATOM     10  C   UNL     1      35.109 -15.340 -24.431  0.00  0.00    +0.164 C 
ATOM     11  H   UNL     1      34.613 -14.228 -22.711  0.00  0.00    +0.126 HD
ATOM     12  H   UNL     1      35.544 -17.039 -25.531  0.00  0.00    +0.150 HD
ATOM     13  H   UNL     1      35.320 -20.814 -22.347  0.00  0.00    +0.166 HD
ENDROOT
BRANCH   5  15
ATOM     14 CL   UNL     1      37.213 -22.327 -17.409  0.00  0.00    -0.082 Cl
ATOM     15  C   UNL     1      34.915 -20.933 -20.376  0.00  0.00    +0.059 C 
ATOM     16  C   UNL     1      36.021 -21.248 -19.583  0.00  0.00    +0.027 C 
ATOM     17  C   UNL     1      33.636 -21.313 -19.964  0.00  0.00    +0.015 C 
ATOM     18  C   UNL     1      35.848 -21.940 -18.385  0.00  0.00    +0.059 C 
ATOM     19  C   UNL     1      33.463 -22.004 -18.765  0.00  0.00    +0.002 C 
ATOM     20  C   UNL     1      34.570 -22.318 -17.975  0.00  0.00    +0.011 C 
ENDBRANCH   5  15
BRANCH   6  21
ATOM     21  O   UNL     1      34.265 -15.846 -20.160  0.00  0.00    -0.453 OA
BRANCH  21  22
ATOM     22  C   UNL     1      32.913 -15.439 -20.062  0.00  0.00    +0.208 C 
BRANCH  22  23
ATOM     23  C   UNL     1      32.834 -13.943 -20.360  0.00  0.00    +0.044 C 
ATOM     24  C   UNL     1      32.314 -13.700 -21.784  0.00  0.00    +0.004 C 
ATOM     25  C   UNL     1      31.951 -13.231 -19.327  0.00  0.00    +0.004 C 
ATOM     26  C   UNL     1      32.176 -12.210 -22.087  0.00  0.00    +0.000 C 
ATOM     27  C   UNL     1      31.813 -11.742 -19.635  0.00  0.00    +0.000 C 
ATOM     28  C   UNL     1      31.304 -11.504 -21.054  0.00  0.00    +0.000 C 
ENDBRANCH  22  23
ENDBRANCH  21  22
ENDBRANCH   6  21
TORSDOF 4
ENDMDL
MODEL 9
REMARK VINA RESULT:     -10.0      2.917      5.635
REMARK  Name = 4565
REMARK  4 active torsions:
REMARK  status: ('A' for Active; 'I' for Inactive)
REMARK    1  A    between atoms: N_5  and  C_15
REMARK    2  A    between atoms: C_6  and  O_21
REMARK    3  A    between atoms: O_21  and  C_22
REMARK    4  A    between atoms: C_22  and  C_23
REMARK                            x       y       z     vdW  Elec       q    Type
REMARK                         _______ _______ _______ _____ _____    ______ ____
ROOT
ATOM      1  N   UNL     1      34.846 -23.857 -15.134  0.00  0.00    -0.293 NA
ATOM      2  N   UNL     1      38.508 -23.989 -15.445  0.00  0.00    -0.266 NA
ATOM      3  N   UNL     1      35.942 -25.230 -13.441  0.00  0.00    -0.316 NA
ATOM      4  N   UNL     1      38.362 -25.311 -13.656  0.00  0.00    -0.296 N 
ATOM      5  N   UNL     1      33.617 -24.970 -13.480  0.00  0.00    -0.238 N 
ATOM      6  C   UNL     1      36.028 -23.546 -15.708  0.00  0.00    +0.288 C 
ATOM      7  C   UNL     1      37.176 -24.074 -15.154  0.00  0.00    +0.215 C 
ATOM      8  C   UNL     1      37.111 -24.900 -14.040  0.00  0.00    +0.196 C 
ATOM      9  C   UNL     1      34.876 -24.669 -14.050  0.00  0.00    +0.207 C 
ATOM     10  C   UNL     1      39.178 -24.746 -14.520  0.00  0.00    +0.164 C 
ATOM     11  H   UNL     1      38.913 -23.478 -16.183  0.00  0.00    +0.126 HD
ATOM     12  H   UNL     1      38.597 -25.898 -12.901  0.00  0.00    +0.150 HD
ATOM     13  H   UNL     1      33.669 -25.562 -12.694  0.00  0.00    +0.166 HD
ENDROOT
BRANCH   5  15
ATOM     14 CL   UNL     1      28.697 -26.307 -14.049  0.00  0.00    -0.082 Cl
ATOM     15  C   UNL     1      32.306 -24.590 -13.816  0.00  0.00    +0.059 C 
ATOM     16  C   UNL     1      31.270 -25.528 -13.772  0.00  0.00    +0.027 C 
ATOM     17  C   UNL     1      32.032 -23.274 -14.195  0.00  0.00    +0.015 C 
ATOM     18  C   UNL     1      29.970 -25.150 -14.105  0.00  0.00    +0.059 C 
ATOM     19  C   UNL     1      30.731 -22.896 -14.527  0.00  0.00    +0.002 C 
ATOM     20  C   UNL     1      29.699 -23.835 -14.482  0.00  0.00    +0.011 C 
ENDBRANCH   5  15
BRANCH   6  21
ATOM     21  O   UNL     1      36.034 -22.725 -16.809  0.00  0.00    -0.453 OA
BRANCH  21  22
ATOM     22  C   UNL     1      35.105 -23.019 -17.836  0.00  0.00    +0.208 C 
BRANCH  22  23
ATOM     23  C   UNL     1      34.836 -21.740 -18.626  0.00  0.00    +0.044 C 
ATOM     24  C   UNL     1      35.940 -21.504 -19.667  0.00  0.00    +0.004 C 
ATOM     25  C   UNL     1      33.457 -21.797 -19.296  0.00  0.00    +0.004 C 
ATOM     26  C   UNL     1      35.665 -20.258 -20.506  0.00  0.00    +0.000 C 
ATOM     27  C   UNL     1      33.187 -20.552 -20.137  0.00  0.00    +0.000 C 
ATOM     28  C   UNL     1      34.290 -20.315 -21.164  0.00  0.00    +0.000 C 
ENDBRANCH  22  23
ENDBRANCH  21  22
ENDBRANCH   6  21
TORSDOF 4
ENDMDL
