MODEL 1
REMARK VINA RESULT:     -11.6      0.000      0.000
REMARK  Name = 5288527
REMARK  4 active torsions:
REMARK  status: ('A' for Active; 'I' for Inactive)
REMARK    1  A    between atoms: N_1  and  C_18
REMARK    2  A    between atoms: C_4  and  C_11
REMARK    3  A    between atoms: C_19  and  S_24
REMARK    4  A    between atoms: S_24  and  N_27
REMARK                            x       y       z     vdW  Elec       q    Type
REMARK                         _______ _______ _______ _____ _____    ______ ____
ROOT
ATOM      1  N   UNL     1      34.924 -25.248 -12.678  0.00  0.00    -0.247 N 
ATOM      2  N   UNL     1      34.065 -24.232 -14.610  0.00  0.00    -0.336 NA
ATOM      3  N   UNL     1      32.654 -24.655 -12.703  0.00  0.00    -0.170 NA
ATOM      4  C   UNL     1      32.994 -23.701 -15.232  0.00  0.00    +0.161 C 
ATOM      5  C   UNL     1      33.827 -24.684 -13.364  0.00  0.00    +0.149 C 
ATOM      6  C   UNL     1      31.740 -23.611 -14.669  0.00  0.00    +0.056 C 
ATOM      7  C   UNL     1      31.627 -24.110 -13.388  0.00  0.00    +0.114 C 
ATOM      8  H   UNL     1      34.704 -25.564 -11.772  0.00  0.00    +0.165 HD
ENDROOT
BRANCH   4  11
ATOM      9  N   UNL     1      34.481 -22.828 -17.038  0.00  0.00    -0.246 N 
ATOM     10  N   UNL     1      33.040 -22.561 -18.729  0.00  0.00    -0.227 NA
ATOM     11  C   UNL     1      33.253 -23.218 -16.568  0.00  0.00    +0.107 C 
ATOM     12  C   UNL     1      34.299 -22.436 -18.362  0.00  0.00    +0.139 C 
ATOM     13  C   UNL     1      32.389 -23.045 -17.623  0.00  0.00    +0.118 C 
ATOM     14  C   UNL     1      35.712 -22.800 -16.388  0.00  0.00    +0.071 C 
ATOM     15  C   UNL     1      35.453 -21.984 -19.067  0.00  0.00    +0.035 C 
ATOM     16  C   UNL     1      36.794 -22.374 -17.059  0.00  0.00    +0.017 C 
ATOM     17  C   UNL     1      36.647 -21.954 -18.444  0.00  0.00    +0.004 C 
ENDBRANCH   4  11
BRANCH   1  18
ATOM     18  C   UNL     1      36.271 -25.445 -13.034  0.00  0.00    +0.058 C 
ATOM     19  C   UNL     1      38.944 -25.838 -13.743  0.00  0.00    +0.122 C 
ATOM     20  C   UNL     1      37.291 -24.906 -12.247  0.00  0.00    +0.017 C 
ATOM     21  C   UNL     1      36.593 -26.182 -14.176  0.00  0.00    +0.017 C 
ATOM     22  C   UNL     1      38.625 -25.101 -12.601  0.00  0.00    +0.021 C 
ATOM     23  C   UNL     1      37.927 -26.378 -14.530  0.00  0.00    +0.021 C 
BRANCH  19  24
ATOM     24  S   UNL     1      40.614 -26.083 -14.186  0.00  0.00    +0.057 S 
ATOM     25  O   UNL     1      41.309 -24.808 -14.080  0.00  0.00    -0.153 OA
ATOM     26  O   UNL     1      41.119 -27.244 -13.467  0.00  0.00    -0.153 OA
BRANCH  24  27
ATOM     27  N   UNL     1      40.457 -26.489 -15.839  0.00  0.00    -0.203 NA
ATOM     28  H   UNL     1      39.472 -26.629 -16.062  0.00  0.00    +0.144 HD
ATOM     29  H   UNL     1      40.975 -27.346 -16.030  0.00  0.00    +0.144 HD
ENDBRANCH  24  27
ENDBRANCH  19  24
ENDBRANCH   1  18
TORSDOF 4
ENDMDL
MODEL 2
REMARK VINA RESULT:     -11.4      4.993      6.996
REMARK  Name = 5288527
REMARK  4 active torsions:
REMARK  status: ('A' for Active; 'I' for Inactive)
REMARK    1  A    between atoms: N_1  and  C_18
REMARK    2  A    between atoms: C_4  and  C_11
REMARK    3  A    between atoms: C_19  and  S_24
REMARK    4  A    between atoms: S_24  and  N_27
REMARK                            x       y       z     vdW  Elec       q    Type
REMARK                         _______ _______ _______ _____ _____    ______ ____
ROOT
ATOM      1  N   UNL     1      32.698 -24.807 -12.828  0.00  0.00    -0.247 N 
ATOM      2  N   UNL     1      34.458 -24.005 -14.155  0.00  0.00    -0.336 NA
ATOM      3  N   UNL     1      34.892 -25.093 -12.049  0.00  0.00    -0.170 NA
ATOM      4  C   UNL     1      35.789 -23.852 -14.303  0.00  0.00    +0.161 C 
ATOM      5  C   UNL     1      34.085 -24.626 -13.021  0.00  0.00    +0.149 C 
ATOM      6  C   UNL     1      36.723 -24.283 -13.386  0.00  0.00    +0.056 C 
ATOM      7  C   UNL     1      36.211 -24.904 -12.266  0.00  0.00    +0.114 C 
ATOM      8  H   UNL     1      32.471 -25.265 -11.987  0.00  0.00    +0.165 HD
ENDROOT
BRANCH   4  11
ATOM      9  N   UNL     1      35.371 -22.978 -16.604  0.00  0.00    -0.246 N 
ATOM     10  N   UNL     1      37.358 -22.089 -17.124  0.00  0.00    -0.227 NA
ATOM     11  C   UNL     1      36.186 -23.185 -15.520  0.00  0.00    +0.107 C 
ATOM     12  C   UNL     1      36.133 -22.306 -17.557  0.00  0.00    +0.139 C 
ATOM     13  C   UNL     1      37.396 -22.631 -15.864  0.00  0.00    +0.118 C 
ATOM     14  C   UNL     1      34.040 -23.337 -16.794  0.00  0.00    +0.071 C 
ATOM     15  C   UNL     1      35.488 -21.979 -18.786  0.00  0.00    +0.035 C 
ATOM     16  C   UNL     1      33.440 -23.026 -17.954  0.00  0.00    +0.017 C 
ATOM     17  C   UNL     1      34.200 -22.324 -18.977  0.00  0.00    +0.004 C 
ENDBRANCH   4  11
BRANCH   1  18
ATOM     18  C   UNL     1      31.575 -24.462 -13.605  0.00  0.00    +0.058 C 
ATOM     19  C   UNL     1      29.349 -23.776 -15.145  0.00  0.00    +0.122 C 
ATOM     20  C   UNL     1      30.638 -25.437 -13.953  0.00  0.00    +0.017 C 
ATOM     21  C   UNL     1      31.396 -23.143 -14.028  0.00  0.00    +0.017 C 
ATOM     22  C   UNL     1      29.527 -25.094 -14.722  0.00  0.00    +0.021 C 
ATOM     23  C   UNL     1      30.284 -22.801 -14.798  0.00  0.00    +0.021 C 
BRANCH  19  24
ATOM     24  S   UNL     1      27.958 -23.347 -16.109  0.00  0.00    +0.057 S 
ATOM     25  O   UNL     1      26.812 -23.203 -15.221  0.00  0.00    -0.153 OA
ATOM     26  O   UNL     1      28.328 -22.254 -16.995  0.00  0.00    -0.153 OA
BRANCH  24  27
ATOM     27  N   UNL     1      27.758 -24.765 -17.042  0.00  0.00    -0.203 NA
ATOM     28  H   UNL     1      27.813 -25.582 -16.434  0.00  0.00    +0.144 HD
ATOM     29  H   UNL     1      28.494 -24.815 -17.747  0.00  0.00    +0.144 HD
ENDBRANCH  24  27
ENDBRANCH  19  24
ENDBRANCH   1  18
TORSDOF 4
ENDMDL
MODEL 3
REMARK VINA RESULT:     -10.8      4.267      7.216
REMARK  Name = 5288527
REMARK  4 active torsions:
REMARK  status: ('A' for Active; 'I' for Inactive)
REMARK    1  A    between atoms: N_1  and  C_18
REMARK    2  A    between atoms: C_4  and  C_11
REMARK    3  A    between atoms: C_19  and  S_24
REMARK    4  A    between atoms: S_24  and  N_27
REMARK                            x       y       z     vdW  Elec       q    Type
REMARK                         _______ _______ _______ _____ _____    ______ ____
ROOT
ATOM      1  N   UNL     1      32.592 -22.468 -18.207  0.00  0.00    -0.247 N 
ATOM      2  N   UNL     1      34.106 -23.160 -16.554  0.00  0.00    -0.336 NA
ATOM      3  N   UNL     1      31.788 -23.813 -16.461  0.00  0.00    -0.170 NA
ATOM      4  C   UNL     1      34.304 -23.854 -15.415  0.00  0.00    +0.161 C 
ATOM      5  C   UNL     1      32.841 -23.182 -17.015  0.00  0.00    +0.149 C 
ATOM      6  C   UNL     1      33.315 -24.542 -14.748  0.00  0.00    +0.056 C 
ATOM      7  C   UNL     1      32.062 -24.485 -15.324  0.00  0.00    +0.114 C 
ATOM      8  H   UNL     1      31.655 -22.512 -18.507  0.00  0.00    +0.165 HD
ENDROOT
BRANCH   4  11
ATOM      9  N   UNL     1      36.442 -24.934 -14.710  0.00  0.00    -0.246 N 
ATOM     10  N   UNL     1      37.688 -23.161 -14.153  0.00  0.00    -0.227 NA
ATOM     11  C   UNL     1      35.661 -23.827 -14.924  0.00  0.00    +0.107 C 
ATOM     12  C   UNL     1      37.671 -24.475 -14.240  0.00  0.00    +0.139 C 
ATOM     13  C   UNL     1      36.448 -22.754 -14.576  0.00  0.00    +0.118 C 
ATOM     14  C   UNL     1      36.143 -26.280 -14.900  0.00  0.00    +0.071 C 
ATOM     15  C   UNL     1      38.658 -25.460 -13.944  0.00  0.00    +0.035 C 
ATOM     16  C   UNL     1      37.079 -27.201 -14.619  0.00  0.00    +0.017 C 
ATOM     17  C   UNL     1      38.375 -26.765 -14.125  0.00  0.00    +0.004 C 
ENDBRANCH   4  11
BRANCH   1  18
ATOM     18  C   UNL     1      33.421 -21.706 -19.052  0.00  0.00    +0.058 C 
ATOM     19  C   UNL     1      35.065 -20.194 -20.729  0.00  0.00    +0.122 C 
ATOM     20  C   UNL     1      34.801 -21.924 -19.063  0.00  0.00    +0.017 C 
ATOM     21  C   UNL     1      32.867 -20.730 -19.883  0.00  0.00    +0.017 C 
ATOM     22  C   UNL     1      35.621 -21.169 -19.900  0.00  0.00    +0.021 C 
ATOM     23  C   UNL     1      33.687 -19.975 -20.720  0.00  0.00    +0.021 C 
BRANCH  19  24
ATOM     24  S   UNL     1      36.092 -19.248 -21.777  0.00  0.00    +0.057 S 
ATOM     25  O   UNL     1      37.458 -19.333 -21.279  0.00  0.00    -0.153 OA
ATOM     26  O   UNL     1      35.802 -19.608 -23.158  0.00  0.00    -0.153 OA
BRANCH  24  27
ATOM     27  N   UNL     1      35.495 -17.674 -21.484  0.00  0.00    -0.203 NA
ATOM     28  H   UNL     1      34.732 -17.720 -20.809  0.00  0.00    +0.144 HD
ATOM     29  H   UNL     1      35.154 -17.271 -22.357  0.00  0.00    +0.144 HD
ENDBRANCH  24  27
ENDBRANCH  19  24
ENDBRANCH   1  18
TORSDOF 4
ENDMDL
MODEL 4
REMARK VINA RESULT:     -10.1      4.227      7.280
REMARK  Name = 5288527
REMARK  4 active torsions:
REMARK  status: ('A' for Active; 'I' for Inactive)
REMARK    1  A    between atoms: N_1  and  C_18
REMARK    2  A    between atoms: C_4  and  C_11
REMARK    3  A    between atoms: C_19  and  S_24
REMARK    4  A    between atoms: S_24  and  N_27
REMARK                            x       y       z     vdW  Elec       q    Type
REMARK                         _______ _______ _______ _____ _____    ______ ____
ROOT
ATOM      1  N   UNL     1      32.580 -22.567 -18.206  0.00  0.00    -0.247 N 
ATOM      2  N   UNL     1      34.004 -23.079 -16.414  0.00  0.00    -0.336 NA
ATOM      3  N   UNL     1      31.744 -23.911 -16.474  0.00  0.00    -0.170 NA
ATOM      4  C   UNL     1      34.163 -23.715 -15.236  0.00  0.00    +0.161 C 
ATOM      5  C   UNL     1      32.786 -23.218 -16.970  0.00  0.00    +0.149 C 
ATOM      6  C   UNL     1      33.179 -24.457 -14.621  0.00  0.00    +0.056 C 
ATOM      7  C   UNL     1      31.976 -24.520 -15.293  0.00  0.00    +0.114 C 
ATOM      8  H   UNL     1      31.676 -22.695 -18.575  0.00  0.00    +0.165 HD
ENDROOT
BRANCH   4  11
ATOM      9  N   UNL     1      35.791 -23.891 -13.350  0.00  0.00    -0.246 N 
ATOM     10  N   UNL     1      37.664 -23.107 -14.288  0.00  0.00    -0.227 NA
ATOM     11  C   UNL     1      35.470 -23.564 -14.644  0.00  0.00    +0.107 C 
ATOM     12  C   UNL     1      37.141 -23.594 -13.182  0.00  0.00    +0.139 C 
ATOM     13  C   UNL     1      36.636 -23.086 -15.196  0.00  0.00    +0.118 C 
ATOM     14  C   UNL     1      34.986 -24.419 -12.345  0.00  0.00    +0.071 C 
ATOM     15  C   UNL     1      37.705 -23.855 -11.899  0.00  0.00    +0.035 C 
ATOM     16  C   UNL     1      35.525 -24.662 -11.139  0.00  0.00    +0.017 C 
ATOM     17  C   UNL     1      36.932 -24.365 -10.921  0.00  0.00    +0.004 C 
ENDBRANCH   4  11
BRANCH   1  18
ATOM     18  C   UNL     1      33.413 -21.772 -19.015  0.00  0.00    +0.058 C 
ATOM     19  C   UNL     1      35.067 -20.194 -20.619  0.00  0.00    +0.122 C 
ATOM     20  C   UNL     1      32.859 -20.794 -19.844  0.00  0.00    +0.017 C 
ATOM     21  C   UNL     1      34.797 -21.957 -18.990  0.00  0.00    +0.017 C 
ATOM     22  C   UNL     1      33.685 -20.007 -20.645  0.00  0.00    +0.021 C 
ATOM     23  C   UNL     1      35.623 -21.169 -19.791  0.00  0.00    +0.021 C 
BRANCH  19  24
ATOM     24  S   UNL     1      36.102 -19.208 -21.622  0.00  0.00    +0.057 S 
ATOM     25  O   UNL     1      35.642 -17.829 -21.539  0.00  0.00    -0.153 OA
ATOM     26  O   UNL     1      37.488 -19.528 -21.313  0.00  0.00    -0.153 OA
BRANCH  24  27
ATOM     27  N   UNL     1      35.730 -19.820 -23.174  0.00  0.00    -0.203 NA
ATOM     28  H   UNL     1      36.001 -19.138 -23.881  0.00  0.00    +0.144 HD
ATOM     29  H   UNL     1      34.728 -19.999 -23.238  0.00  0.00    +0.144 HD
ENDBRANCH  24  27
ENDBRANCH  19  24
ENDBRANCH   1  18
TORSDOF 4
ENDMDL
MODEL 5
REMARK VINA RESULT:      -9.5      5.031      6.975
REMARK  Name = 5288527
REMARK  4 active torsions:
REMARK  status: ('A' for Active; 'I' for Inactive)
REMARK    1  A    between atoms: N_1  and  C_18
REMARK    2  A    between atoms: C_4  and  C_11
REMARK    3  A    between atoms: C_19  and  S_24
REMARK    4  A    between atoms: S_24  and  N_27
REMARK                            x       y       z     vdW  Elec       q    Type
REMARK                         _______ _______ _______ _____ _____    ______ ____
ROOT
ATOM      1  N   UNL     1      33.902 -24.086 -14.326  0.00  0.00    -0.247 N 
ATOM      2  N   UNL     1      35.067 -23.042 -16.074  0.00  0.00    -0.336 NA
ATOM      3  N   UNL     1      36.247 -24.086 -14.251  0.00  0.00    -0.170 NA
ATOM      4  C   UNL     1      36.262 -22.711 -16.603  0.00  0.00    +0.161 C 
ATOM      5  C   UNL     1      35.133 -23.720 -14.913  0.00  0.00    +0.149 C 
ATOM      6  C   UNL     1      37.474 -23.024 -16.028  0.00  0.00    +0.056 C 
ATOM      7  C   UNL     1      37.405 -23.720 -14.839  0.00  0.00    +0.114 C 
ATOM      8  H   UNL     1      33.998 -24.579 -13.480  0.00  0.00    +0.165 HD
ENDROOT
BRANCH   4  11
ATOM      9  N   UNL     1      35.034 -21.745 -18.551  0.00  0.00    -0.246 N 
ATOM     10  N   UNL     1      36.694 -20.797 -19.713  0.00  0.00    -0.227 NA
ATOM     11  C   UNL     1      36.187 -21.983 -17.847  0.00  0.00    +0.107 C 
ATOM     12  C   UNL     1      35.395 -21.017 -19.682  0.00  0.00    +0.139 C 
ATOM     13  C   UNL     1      37.189 -21.392 -18.581  0.00  0.00    +0.118 C 
ATOM     14  C   UNL     1      33.725 -22.120 -18.261  0.00  0.00    +0.071 C 
ATOM     15  C   UNL     1      34.347 -20.648 -20.576  0.00  0.00    +0.035 C 
ATOM     16  C   UNL     1      32.744 -21.769 -19.108  0.00  0.00    +0.017 C 
ATOM     17  C   UNL     1      33.079 -21.009 -20.302  0.00  0.00    +0.004 C 
ENDBRANCH   4  11
BRANCH   1  18
ATOM     18  C   UNL     1      32.564 -23.885 -14.715  0.00  0.00    +0.058 C 
ATOM     19  C   UNL     1      29.910 -23.487 -15.489  0.00  0.00    +0.122 C 
ATOM     20  C   UNL     1      31.581 -23.655 -13.751  0.00  0.00    +0.017 C 
ATOM     21  C   UNL     1      32.216 -23.916 -16.068  0.00  0.00    +0.017 C 
ATOM     22  C   UNL     1      30.256 -23.456 -14.137  0.00  0.00    +0.021 C 
ATOM     23  C   UNL     1      30.891 -23.717 -16.454  0.00  0.00    +0.021 C 
BRANCH  19  24
ATOM     24  S   UNL     1      28.251 -23.239 -15.972  0.00  0.00    +0.057 S 
ATOM     25  O   UNL     1      27.425 -23.198 -14.774  0.00  0.00    -0.153 OA
ATOM     26  O   UNL     1      28.205 -22.135 -16.920  0.00  0.00    -0.153 OA
BRANCH  24  27
ATOM     27  N   UNL     1      27.935 -24.694 -16.811  0.00  0.00    -0.203 NA
ATOM     28  H   UNL     1      27.199 -24.536 -17.499  0.00  0.00    +0.144 HD
ATOM     29  H   UNL     1      27.635 -25.410 -16.148  0.00  0.00    +0.144 HD
ENDBRANCH  24  27
ENDBRANCH  19  24
ENDBRANCH   1  18
TORSDOF 4
ENDMDL
MODEL 6
REMARK VINA RESULT:      -9.4      7.465     10.481
REMARK  Name = 5288527
REMARK  4 active torsions:
REMARK  status: ('A' for Active; 'I' for Inactive)
REMARK    1  A    between atoms: N_1  and  C_18
REMARK    2  A    between atoms: C_4  and  C_11
REMARK    3  A    between atoms: C_19  and  S_24
REMARK    4  A    between atoms: S_24  and  N_27
REMARK                            x       y       z     vdW  Elec       q    Type
REMARK                         _______ _______ _______ _____ _____    ______ ____
ROOT
ATOM      1  N   UNL     1      35.319 -18.924 -22.573  0.00  0.00    -0.247 N 
ATOM      2  N   UNL     1      34.280 -16.940 -21.875  0.00  0.00    -0.336 NA
ATOM      3  N   UNL     1      35.539 -17.022 -23.928  0.00  0.00    -0.170 NA
ATOM      4  C   UNL     1      34.027 -15.641 -22.131  0.00  0.00    +0.161 C 
ATOM      5  C   UNL     1      35.032 -17.561 -22.803  0.00  0.00    +0.149 C 
ATOM      6  C   UNL     1      34.485 -14.969 -23.243  0.00  0.00    +0.056 C 
ATOM      7  C   UNL     1      35.244 -15.719 -24.117  0.00  0.00    +0.114 C 
ATOM      8  H   UNL     1      35.871 -19.337 -23.276  0.00  0.00    +0.165 HD
ENDROOT
BRANCH   4  11
ATOM      9  N   UNL     1      32.718 -13.707 -21.245  0.00  0.00    -0.246 N 
ATOM     10  N   UNL     1      32.041 -14.485 -19.259  0.00  0.00    -0.227 NA
ATOM     11  C   UNL     1      33.222 -14.978 -21.133  0.00  0.00    +0.107 C 
ATOM     12  C   UNL     1      32.004 -13.452 -20.076  0.00  0.00    +0.139 C 
ATOM     13  C   UNL     1      32.792 -15.432 -19.908  0.00  0.00    +0.118 C 
ATOM     14  C   UNL     1      32.848 -12.791 -22.284  0.00  0.00    +0.071 C 
ATOM     15  C   UNL     1      31.382 -12.174 -19.965  0.00  0.00    +0.035 C 
ATOM     16  C   UNL     1      32.259 -11.590 -22.172  0.00  0.00    +0.017 C 
ATOM     17  C   UNL     1      31.504 -11.282 -20.967  0.00  0.00    +0.004 C 
ENDBRANCH   4  11
BRANCH   1  18
ATOM     18  C   UNL     1      34.971 -19.809 -21.535  0.00  0.00    +0.058 C 
ATOM     19  C   UNL     1      34.279 -21.564 -19.476  0.00  0.00    +0.122 C 
ATOM     20  C   UNL     1      35.968 -20.456 -20.802  0.00  0.00    +0.017 C 
ATOM     21  C   UNL     1      33.627 -20.041 -21.234  0.00  0.00    +0.017 C 
ATOM     22  C   UNL     1      35.622 -21.333 -19.774  0.00  0.00    +0.021 C 
ATOM     23  C   UNL     1      33.282 -20.917 -20.206  0.00  0.00    +0.021 C 
BRANCH  19  24
ATOM     24  S   UNL     1      33.846 -22.661 -18.189  0.00  0.00    +0.057 S 
ATOM     25  O   UNL     1      34.898 -22.627 -17.183  0.00  0.00    -0.153 OA
ATOM     26  O   UNL     1      32.467 -22.400 -17.802  0.00  0.00    -0.153 OA
BRANCH  24  27
ATOM     27  N   UNL     1      33.911 -24.162 -19.005  0.00  0.00    -0.203 NA
ATOM     28  H   UNL     1      34.369 -24.038 -19.907  0.00  0.00    +0.144 HD
ATOM     29  H   UNL     1      32.964 -24.512 -19.148  0.00  0.00    +0.144 HD
ENDBRANCH  24  27
ENDBRANCH  19  24
ENDBRANCH   1  18
TORSDOF 4
ENDMDL
MODEL 7
REMARK VINA RESULT:      -9.2      4.773      7.352
REMARK  Name = 5288527
REMARK  4 active torsions:
REMARK  status: ('A' for Active; 'I' for Inactive)
REMARK    1  A    between atoms: N_1  and  C_18
REMARK    2  A    between atoms: C_4  and  C_11
REMARK    3  A    between atoms: C_19  and  S_24
REMARK    4  A    between atoms: S_24  and  N_27
REMARK                            x       y       z     vdW  Elec       q    Type
REMARK                         _______ _______ _______ _____ _____    ______ ____
ROOT
ATOM      1  N   UNL     1      36.525 -22.571 -17.316  0.00  0.00    -0.247 N 
ATOM      2  N   UNL     1      34.355 -23.093 -16.594  0.00  0.00    -0.336 NA
ATOM      3  N   UNL     1      36.285 -23.940 -15.427  0.00  0.00    -0.170 NA
ATOM      4  C   UNL     1      33.582 -23.740 -15.699  0.00  0.00    +0.161 C 
ATOM      5  C   UNL     1      35.680 -23.234 -16.400  0.00  0.00    +0.149 C 
ATOM      6  C   UNL     1      34.073 -24.495 -14.657  0.00  0.00    +0.056 C 
ATOM      7  C   UNL     1      35.449 -24.561 -14.569  0.00  0.00    +0.114 C 
ATOM      8  H   UNL     1      37.484 -22.702 -17.137  0.00  0.00    +0.165 HD
ENDROOT
BRANCH   4  11
ATOM      9  N   UNL     1      31.187 -24.265 -15.225  0.00  0.00    -0.246 N 
ATOM     10  N   UNL     1      30.130 -22.929 -16.675  0.00  0.00    -0.227 NA
ATOM     11  C   UNL     1      32.162 -23.586 -15.910  0.00  0.00    +0.107 C 
ATOM     12  C   UNL     1      29.964 -23.829 -15.729  0.00  0.00    +0.139 C 
ATOM     13  C   UNL     1      31.488 -22.774 -16.792  0.00  0.00    +0.118 C 
ATOM     14  C   UNL     1      31.311 -25.216 -14.216  0.00  0.00    +0.071 C 
ATOM     15  C   UNL     1      28.789 -24.405 -15.160  0.00  0.00    +0.035 C 
ATOM     16  C   UNL     1      30.200 -25.753 -13.687  0.00  0.00    +0.017 C 
ATOM     17  C   UNL     1      28.902 -25.325 -14.184  0.00  0.00    +0.004 C 
ENDBRANCH   4  11
BRANCH   1  18
ATOM     18  C   UNL     1      36.265 -21.758 -18.436  0.00  0.00    +0.058 C 
ATOM     19  C   UNL     1      35.751 -20.145 -20.656  0.00  0.00    +0.122 C 
ATOM     20  C   UNL     1      35.024 -21.819 -19.073  0.00  0.00    +0.017 C 
ATOM     21  C   UNL     1      37.248 -20.887 -18.912  0.00  0.00    +0.017 C 
ATOM     22  C   UNL     1      34.768 -21.014 -20.182  0.00  0.00    +0.021 C 
ATOM     23  C   UNL     1      36.991 -20.082 -20.021  0.00  0.00    +0.021 C 
BRANCH  19  24
ATOM     24  S   UNL     1      35.430 -19.137 -22.045  0.00  0.00    +0.057 S 
ATOM     25  O   UNL     1      34.859 -19.969 -23.095  0.00  0.00    -0.153 OA
ATOM     26  O   UNL     1      34.720 -17.947 -21.600  0.00  0.00    -0.153 OA
BRANCH  24  27
ATOM     27  N   UNL     1      37.017 -18.691 -22.498  0.00  0.00    -0.203 NA
ATOM     28  H   UNL     1      37.217 -17.753 -22.153  0.00  0.00    +0.144 HD
ATOM     29  H   UNL     1      37.097 -18.704 -23.515  0.00  0.00    +0.144 HD
ENDBRANCH  24  27
ENDBRANCH  19  24
ENDBRANCH   1  18
TORSDOF 4
ENDMDL
MODEL 8
REMARK VINA RESULT:      -9.1     14.079     17.079
REMARK  Name = 5288527
REMARK  4 active torsions:
REMARK  status: ('A' for Active; 'I' for Inactive)
REMARK    1  A    between atoms: N_1  and  C_18
REMARK    2  A    between atoms: C_4  and  C_11
REMARK    3  A    between atoms: C_19  and  S_24
REMARK    4  A    between atoms: S_24  and  N_27
REMARK                            x       y       z     vdW  Elec       q    Type
REMARK                         _______ _______ _______ _____ _____    ______ ____
ROOT
ATOM      1  N   UNL     1      31.658  -8.949 -20.782  0.00  0.00    -0.247 N 
ATOM      2  N   UNL     1      32.327 -11.061 -21.555  0.00  0.00    -0.336 NA
ATOM      3  N   UNL     1      31.212 -10.816 -19.433  0.00  0.00    -0.170 NA
ATOM      4  C   UNL     1      32.382 -12.388 -21.327  0.00  0.00    +0.161 C 
ATOM      5  C   UNL     1      31.736 -10.345 -20.580  0.00  0.00    +0.149 C 
ATOM      6  C   UNL     1      31.884 -12.998 -20.197  0.00  0.00    +0.056 C 
ATOM      7  C   UNL     1      31.303 -12.153 -19.273  0.00  0.00    +0.114 C 
ATOM      8  H   UNL     1      31.219  -8.466 -20.045  0.00  0.00    +0.165 HD
ENDROOT
BRANCH   4  11
ATOM      9  N   UNL     1      33.682 -14.338 -22.190  0.00  0.00    -0.246 N 
ATOM     10  N   UNL     1      33.797 -13.878 -24.377  0.00  0.00    -0.227 NA
ATOM     11  C   UNL     1      33.016 -13.152 -22.374  0.00  0.00    +0.107 C 
ATOM     12  C   UNL     1      34.140 -14.741 -23.442  0.00  0.00    +0.139 C 
ATOM     13  C   UNL     1      33.101 -12.893 -23.722  0.00  0.00    +0.118 C 
ATOM     14  C   UNL     1      33.900 -15.059 -21.021  0.00  0.00    +0.071 C 
ATOM     15  C   UNL     1      34.870 -15.964 -23.501  0.00  0.00    +0.035 C 
ATOM     16  C   UNL     1      34.588 -16.210 -21.084  0.00  0.00    +0.017 C 
ATOM     17  C   UNL     1      35.085 -16.667 -22.372  0.00  0.00    +0.004 C 
ENDBRANCH   4  11
BRANCH   1  18
ATOM     18  C   UNL     1      32.084  -8.113 -21.831  0.00  0.00    +0.058 C 
ATOM     19  C   UNL     1      32.928  -6.454 -23.913  0.00  0.00    +0.122 C 
ATOM     20  C   UNL     1      33.390  -7.619 -21.848  0.00  0.00    +0.017 C 
ATOM     21  C   UNL     1      31.202  -7.775 -22.860  0.00  0.00    +0.017 C 
ATOM     22  C   UNL     1      33.812  -6.791 -22.887  0.00  0.00    +0.021 C 
ATOM     23  C   UNL     1      31.623  -6.947 -23.899  0.00  0.00    +0.021 C 
BRANCH  19  24
ATOM     24  S   UNL     1      33.455  -5.417 -25.215  0.00  0.00    +0.057 S 
ATOM     25  O   UNL     1      34.903  -5.282 -25.137  0.00  0.00    -0.153 OA
ATOM     26  O   UNL     1      32.837  -5.874 -26.451  0.00  0.00    -0.153 OA
BRANCH  24  27
ATOM     27  N   UNL     1      32.738  -3.933 -24.759  0.00  0.00    -0.203 NA
ATOM     28  H   UNL     1      33.468  -3.267 -24.508  0.00  0.00    +0.144 HD
ATOM     29  H   UNL     1      32.124  -4.084 -23.958  0.00  0.00    +0.144 HD
ENDBRANCH  24  27
ENDBRANCH  19  24
ENDBRANCH   1  18
TORSDOF 4
ENDMDL
MODEL 9
REMARK VINA RESULT:      -8.9      2.462      4.794
REMARK  Name = 5288527
REMARK  4 active torsions:
REMARK  status: ('A' for Active; 'I' for Inactive)
REMARK    1  A    between atoms: N_1  and  C_18
REMARK    2  A    between atoms: C_4  and  C_11
REMARK    3  A    between atoms: C_19  and  S_24
REMARK    4  A    between atoms: S_24  and  N_27
REMARK                            x       y       z     vdW  Elec       q    Type
REMARK                         _______ _______ _______ _____ _____    ______ ____
ROOT
ATOM      1  N   UNL     1      36.006 -23.244 -16.492  0.00  0.00    -0.247 N 
ATOM      2  N   UNL     1      33.661 -23.208 -16.503  0.00  0.00    -0.336 NA
ATOM      3  N   UNL     1      34.920 -22.362 -18.375  0.00  0.00    -0.170 NA
ATOM      4  C   UNL     1      32.534 -22.887 -17.170  0.00  0.00    +0.161 C 
ATOM      5  C   UNL     1      34.803 -22.922 -17.156  0.00  0.00    +0.149 C 
ATOM      6  C   UNL     1      32.514 -22.311 -18.421  0.00  0.00    +0.056 C 
ATOM      7  C   UNL     1      33.751 -22.068 -18.981  0.00  0.00    +0.114 C 
ATOM      8  H   UNL     1      36.815 -23.017 -17.005  0.00  0.00    +0.165 HD
ENDROOT
BRANCH   4  11
ATOM      9  N   UNL     1      31.232 -23.940 -15.317  0.00  0.00    -0.246 N 
ATOM     10  N   UNL     1      29.139 -23.337 -15.829  0.00  0.00    -0.227 NA
ATOM     11  C   UNL     1      31.312 -23.195 -16.466  0.00  0.00    +0.107 C 
ATOM     12  C   UNL     1      29.885 -23.998 -14.968  0.00  0.00    +0.139 C 
ATOM     13  C   UNL     1      30.016 -22.838 -16.757  0.00  0.00    +0.118 C 
ATOM     14  C   UNL     1      32.246 -24.551 -14.585  0.00  0.00    +0.071 C 
ATOM     15  C   UNL     1      29.554 -24.730 -13.790  0.00  0.00    +0.035 C 
ATOM     16  C   UNL     1      31.926 -25.238 -13.477  0.00  0.00    +0.017 C 
ATOM     17  C   UNL     1      30.530 -25.325 -13.076  0.00  0.00    +0.004 C 
ENDBRANCH   4  11
BRANCH   1  18
ATOM     18  C   UNL     1      36.277 -23.826 -15.239  0.00  0.00    +0.058 C 
ATOM     19  C   UNL     1      36.812 -24.981 -12.754  0.00  0.00    +0.122 C 
ATOM     20  C   UNL     1      36.852 -23.062 -14.221  0.00  0.00    +0.017 C 
ATOM     21  C   UNL     1      35.970 -25.169 -15.010  0.00  0.00    +0.017 C 
ATOM     22  C   UNL     1      37.119 -23.639 -12.980  0.00  0.00    +0.021 C 
ATOM     23  C   UNL     1      36.238 -25.746 -13.769  0.00  0.00    +0.021 C 
BRANCH  19  24
ATOM     24  S   UNL     1      37.148 -25.704 -11.200  0.00  0.00    +0.057 S 
ATOM     25  O   UNL     1      37.282 -27.143 -11.383  0.00  0.00    -0.153 OA
ATOM     26  O   UNL     1      38.219 -24.954 -10.562  0.00  0.00    -0.153 OA
BRANCH  24  27
ATOM     27  N   UNL     1      35.687 -25.388 -10.371  0.00  0.00    -0.203 NA
ATOM     28  H   UNL     1      35.510 -26.134  -9.700  0.00  0.00    +0.144 HD
ATOM     29  H   UNL     1      34.919 -25.342 -11.041  0.00  0.00    +0.144 HD
ENDBRANCH  24  27
ENDBRANCH  19  24
ENDBRANCH   1  18
TORSDOF 4
ENDMDL
