MODEL 1
REMARK VINA RESULT:     -11.6      0.000      0.000
REMARK  Name = 446752
REMARK  3 active torsions:
REMARK  status: ('A' for Active; 'I' for Inactive)
REMARK    1  A    between atoms: C_6  and  C_18
REMARK    2  A    between atoms: C_18  and  N_19
REMARK    3  A    between atoms: N_19  and  C_22
REMARK                            x       y       z     vdW  Elec       q    Type
REMARK                         _______ _______ _______ _____ _____    ______ ____
ROOT
ATOM      1  N   UNL     1      32.773 -20.947 -20.150  0.00  0.00    -0.182 NA
ATOM      2  N   UNL     1      32.627 -22.406 -18.359  0.00  0.00    -0.273 NA
ATOM      3  N   UNL     1      34.591 -23.165 -17.190  0.00  0.00    -0.312 NA
ATOM      4  N   UNL     1      36.712 -22.458 -17.821  0.00  0.00    -0.332 N 
ATOM      5  N   UNL     1      32.459 -23.887 -16.545  0.00  0.00    -0.283 N 
ATOM      6  C   UNL     1      34.904 -20.135 -20.908  0.00  0.00    +0.010 C 
ATOM      7  C   UNL     1      35.536 -20.867 -19.930  0.00  0.00    -0.009 C 
ATOM      8  C   UNL     1      34.763 -21.644 -19.055  0.00  0.00    +0.115 C 
ATOM      9  C   UNL     1      33.370 -21.666 -19.190  0.00  0.00    +0.104 C 
ATOM     10  C   UNL     1      33.536 -20.202 -20.986  0.00  0.00    +0.107 C 
ATOM     11  C   UNL     1      37.030 -20.775 -19.870  0.00  0.00    +0.032 C 
ATOM     12  C   UNL     1      35.317 -22.415 -18.036  0.00  0.00    +0.201 C 
ATOM     13  C   UNL     1      33.269 -23.115 -17.406  0.00  0.00    +0.206 C 
ATOM     14  H   UNL     1      37.081 -23.010 -17.094  0.00  0.00    +0.145 HD
ATOM     15  H   UNL     1      37.315 -21.937 -18.399  0.00  0.00    +0.145 HD
ATOM     16  H   UNL     1      31.481 -23.887 -16.658  0.00  0.00    +0.156 HD
ATOM     17  H   UNL     1      32.873 -24.425 -15.831  0.00  0.00    +0.156 HD
ENDROOT
BRANCH   6  18
ATOM     18  C   UNL     1      35.660 -19.277 -21.886  0.00  0.00    +0.097 C 
BRANCH  18  19
ATOM     19  N   UNL     1      35.422 -17.894 -21.625  0.00  0.00    -0.288 NA
ATOM     20  H   UNL     1      35.637 -17.539 -20.732  0.00  0.00    +0.124 HD
BRANCH  19  22
ATOM     21  N   UNL     1      33.095 -13.812 -22.912  0.00  0.00    -0.248 NA
ATOM     22  C   UNL     1      34.890 -17.012 -22.596  0.00  0.00    +0.101 C 
ATOM     23  C   UNL     1      34.242 -15.819 -22.234  0.00  0.00    +0.010 C 
ATOM     24  C   UNL     1      33.722 -14.961 -23.225  0.00  0.00    +0.061 C 
ATOM     25  C   UNL     1      35.029 -17.359 -23.938  0.00  0.00    -0.010 C 
ATOM     26  C   UNL     1      34.090 -15.446 -20.892  0.00  0.00    +0.000 C 
ATOM     27  C   UNL     1      33.873 -15.333 -24.558  0.00  0.00    +0.071 C 
ATOM     28  C   UNL     1      34.519 -16.518 -24.919  0.00  0.00    -0.023 C 
ATOM     29  C   UNL     1      33.444 -14.263 -20.566  0.00  0.00    +0.020 C 
ATOM     30  C   UNL     1      32.969 -13.487 -21.604  0.00  0.00    +0.098 C 
ENDBRANCH  19  22
ENDBRANCH  18  19
ENDBRANCH   6  18
TORSDOF 3
ENDMDL
MODEL 2
REMARK VINA RESULT:     -11.3      1.045      2.936
REMARK  Name = 446752
REMARK  3 active torsions:
REMARK  status: ('A' for Active; 'I' for Inactive)
REMARK    1  A    between atoms: C_6  and  C_18
REMARK    2  A    between atoms: C_18  and  N_19
REMARK    3  A    between atoms: N_19  and  C_22
REMARK                            x       y       z     vdW  Elec       q    Type
REMARK                         _______ _______ _______ _____ _____    ______ ____
ROOT
ATOM      1  N   UNL     1      37.088 -20.886 -19.364  0.00  0.00    -0.182 NA
ATOM      2  N   UNL     1      36.680 -22.301 -17.578  0.00  0.00    -0.273 NA
ATOM      3  N   UNL     1      34.465 -23.110 -17.094  0.00  0.00    -0.312 NA
ATOM      4  N   UNL     1      32.648 -22.497 -18.406  0.00  0.00    -0.332 N 
ATOM      5  N   UNL     1      36.286 -23.736 -15.762  0.00  0.00    -0.283 N 
ATOM      6  C   UNL     1      35.301 -20.171 -20.804  0.00  0.00    +0.010 C 
ATOM      7  C   UNL     1      34.405 -20.905 -20.063  0.00  0.00    -0.009 C 
ATOM      8  C   UNL     1      34.870 -21.636 -18.960  0.00  0.00    +0.115 C 
ATOM      9  C   UNL     1      36.230 -21.607 -18.630  0.00  0.00    +0.104 C 
ATOM     10  C   UNL     1      36.620 -20.186 -20.426  0.00  0.00    +0.107 C 
ATOM     11  C   UNL     1      32.972 -20.869 -20.499  0.00  0.00    +0.032 C 
ATOM     12  C   UNL     1      34.034 -22.406 -18.154  0.00  0.00    +0.201 C 
ATOM     13  C   UNL     1      35.781 -23.015 -16.866  0.00  0.00    +0.206 C 
ATOM     14  H   UNL     1      32.077 -23.047 -17.823  0.00  0.00    +0.145 HD
ATOM     15  H   UNL     1      32.253 -22.009 -19.165  0.00  0.00    +0.145 HD
ATOM     16  H   UNL     1      37.246 -23.702 -15.549  0.00  0.00    +0.156 HD
ATOM     17  H   UNL     1      35.677 -24.274 -15.207  0.00  0.00    +0.156 HD
ENDROOT
BRANCH   6  18
ATOM     18  C   UNL     1      34.884 -19.360 -22.001  0.00  0.00    +0.097 C 
BRANCH  18  19
ATOM     19  N   UNL     1      35.559 -18.103 -22.012  0.00  0.00    -0.288 NA
ATOM     20  H   UNL     1      36.539 -18.094 -22.112  0.00  0.00    +0.124 HD
BRANCH  19  22
ATOM     21  N   UNL     1      33.261 -14.245 -23.902  0.00  0.00    -0.248 NA
ATOM     22  C   UNL     1      34.879 -16.867 -21.886  0.00  0.00    +0.101 C 
ATOM     23  C   UNL     1      34.402 -16.169 -23.007  0.00  0.00    +0.010 C 
ATOM     24  C   UNL     1      33.729 -14.940 -22.849  0.00  0.00    +0.061 C 
ATOM     25  C   UNL     1      34.690 -16.356 -20.604  0.00  0.00    -0.010 C 
ATOM     26  C   UNL     1      34.578 -16.661 -24.308  0.00  0.00    +0.000 C 
ATOM     27  C   UNL     1      33.555 -14.451 -21.557  0.00  0.00    +0.071 C 
ATOM     28  C   UNL     1      34.028 -15.146 -20.441  0.00  0.00    -0.023 C 
ATOM     29  C   UNL     1      34.097 -15.948 -25.395  0.00  0.00    +0.020 C 
ATOM     30  C   UNL     1      33.451 -14.756 -25.141  0.00  0.00    +0.098 C 
ENDBRANCH  19  22
ENDBRANCH  18  19
ENDBRANCH   6  18
TORSDOF 3
ENDMDL
MODEL 3
REMARK VINA RESULT:     -11.2      0.572      2.082
REMARK  Name = 446752
REMARK  3 active torsions:
REMARK  status: ('A' for Active; 'I' for Inactive)
REMARK    1  A    between atoms: C_6  and  C_18
REMARK    2  A    between atoms: C_18  and  N_19
REMARK    3  A    between atoms: N_19  and  C_22
REMARK                            x       y       z     vdW  Elec       q    Type
REMARK                         _______ _______ _______ _____ _____    ______ ____
ROOT
ATOM      1  N   UNL     1      32.638 -20.955 -20.079  0.00  0.00    -0.182 NA
ATOM      2  N   UNL     1      32.602 -22.431 -18.296  0.00  0.00    -0.273 NA
ATOM      3  N   UNL     1      34.632 -23.169 -17.232  0.00  0.00    -0.312 NA
ATOM      4  N   UNL     1      36.709 -22.426 -17.961  0.00  0.00    -0.332 N 
ATOM      5  N   UNL     1      32.545 -23.928 -16.488  0.00  0.00    -0.283 N 
ATOM      6  C   UNL     1      34.718 -20.106 -20.935  0.00  0.00    +0.010 C 
ATOM      7  C   UNL     1      35.407 -20.836 -19.995  0.00  0.00    -0.009 C 
ATOM      8  C   UNL     1      34.690 -21.632 -19.090  0.00  0.00    +0.115 C 
ATOM      9  C   UNL     1      33.293 -21.673 -19.156  0.00  0.00    +0.104 C 
ATOM     10  C   UNL     1      33.348 -20.192 -20.945  0.00  0.00    +0.107 C 
ATOM     11  C   UNL     1      36.901 -20.722 -20.008  0.00  0.00    +0.032 C 
ATOM     12  C   UNL     1      35.305 -22.402 -18.106  0.00  0.00    +0.201 C 
ATOM     13  C   UNL     1      33.301 -23.137 -17.381  0.00  0.00    +0.206 C 
ATOM     14  H   UNL     1      37.122 -22.978 -17.257  0.00  0.00    +0.145 HD
ATOM     15  H   UNL     1      37.275 -21.891 -18.563  0.00  0.00    +0.145 HD
ATOM     16  H   UNL     1      31.563 -23.942 -16.552  0.00  0.00    +0.156 HD
ATOM     17  H   UNL     1      33.002 -24.465 -15.800  0.00  0.00    +0.156 HD
ENDROOT
BRANCH   6  18
ATOM     18  C   UNL     1      35.411 -19.229 -21.942  0.00  0.00    +0.097 C 
BRANCH  18  19
ATOM     19  N   UNL     1      35.739 -17.967 -21.363  0.00  0.00    -0.288 NA
ATOM     20  H   UNL     1      36.564 -17.891 -20.830  0.00  0.00    +0.124 HD
BRANCH  19  22
ATOM     21  N   UNL     1      33.375 -14.719 -24.120  0.00  0.00    -0.248 NA
ATOM     22  C   UNL     1      34.927 -16.817 -21.522  0.00  0.00    +0.101 C 
ATOM     23  C   UNL     1      34.557 -16.346 -22.792  0.00  0.00    +0.010 C 
ATOM     24  C   UNL     1      33.747 -15.198 -22.919  0.00  0.00    +0.061 C 
ATOM     25  C   UNL     1      34.499 -16.158 -20.373  0.00  0.00    -0.010 C 
ATOM     26  C   UNL     1      34.974 -16.990 -23.965  0.00  0.00    +0.000 C 
ATOM     27  C   UNL     1      33.334 -14.557 -21.754  0.00  0.00    +0.071 C 
ATOM     28  C   UNL     1      33.701 -15.027 -20.490  0.00  0.00    -0.023 C 
ATOM     29  C   UNL     1      34.592 -16.500 -25.205  0.00  0.00    +0.020 C 
ATOM     30  C   UNL     1      33.799 -15.371 -25.228  0.00  0.00    +0.098 C 
ENDBRANCH  19  22
ENDBRANCH  18  19
ENDBRANCH   6  18
TORSDOF 3
ENDMDL
MODEL 4
REMARK VINA RESULT:     -11.1      1.095      2.349
REMARK  Name = 446752
REMARK  3 active torsions:
REMARK  status: ('A' for Active; 'I' for Inactive)
REMARK    1  A    between atoms: C_6  and  C_18
REMARK    2  A    between atoms: C_18  and  N_19
REMARK    3  A    between atoms: N_19  and  C_22
REMARK                            x       y       z     vdW  Elec       q    Type
REMARK                         _______ _______ _______ _____ _____    ______ ____
ROOT
ATOM      1  N   UNL     1      37.405 -20.141 -19.857  0.00  0.00    -0.182 NA
ATOM      2  N   UNL     1      36.722 -21.626 -18.218  0.00  0.00    -0.273 NA
ATOM      3  N   UNL     1      34.474 -22.487 -18.156  0.00  0.00    -0.312 NA
ATOM      4  N   UNL     1      32.902 -21.855 -19.746  0.00  0.00    -0.332 N 
ATOM      5  N   UNL     1      36.048 -23.130 -16.547  0.00  0.00    -0.283 N 
ATOM      6  C   UNL     1      35.882 -19.403 -21.564  0.00  0.00    +0.010 C 
ATOM      7  C   UNL     1      34.886 -20.177 -21.016  0.00  0.00    -0.009 C 
ATOM      8  C   UNL     1      35.167 -20.940 -19.873  0.00  0.00    +0.115 C 
ATOM      9  C   UNL     1      36.447 -20.902 -19.309  0.00  0.00    +0.104 C 
ATOM     10  C   UNL     1      37.114 -19.411 -20.962  0.00  0.00    +0.107 C 
ATOM     11  C   UNL     1      33.550 -20.148 -21.695  0.00  0.00    +0.032 C 
ATOM     12  C   UNL     1      34.220 -21.751 -19.252  0.00  0.00    +0.201 C 
ATOM     13  C   UNL     1      35.728 -22.378 -17.698  0.00  0.00    +0.206 C 
ATOM     14  H   UNL     1      32.250 -22.435 -19.290  0.00  0.00    +0.145 HD
ATOM     15  H   UNL     1      32.635 -21.346 -20.545  0.00  0.00    +0.145 HD
ATOM     16  H   UNL     1      36.955 -23.089 -16.167  0.00  0.00    +0.156 HD
ATOM     17  H   UNL     1      35.363 -23.698 -16.124  0.00  0.00    +0.156 HD
ENDROOT
BRANCH   6  18
ATOM     18  C   UNL     1      35.662 -18.557 -22.789  0.00  0.00    +0.097 C 
BRANCH  18  19
ATOM     19  N   UNL     1      35.602 -17.175 -22.436  0.00  0.00    -0.288 NA
ATOM     20  H   UNL     1      36.173 -16.850 -21.702  0.00  0.00    +0.124 HD
BRANCH  19  22
ATOM     21  N   UNL     1      32.403 -13.500 -22.427  0.00  0.00    -0.248 NA
ATOM     22  C   UNL     1      34.757 -16.252 -23.098  0.00  0.00    +0.101 C 
ATOM     23  C   UNL     1      33.988 -15.316 -22.388  0.00  0.00    +0.010 C 
ATOM     24  C   UNL     1      33.154 -14.409 -23.076  0.00  0.00    +0.061 C 
ATOM     25  C   UNL     1      34.707 -16.295 -24.489  0.00  0.00    -0.010 C 
ATOM     26  C   UNL     1      34.019 -15.250 -20.989  0.00  0.00    +0.000 C 
ATOM     27  C   UNL     1      33.123 -14.475 -24.466  0.00  0.00    +0.071 C 
ATOM     28  C   UNL     1      33.889 -15.405 -25.173  0.00  0.00    -0.023 C 
ATOM     29  C   UNL     1      33.247 -14.315 -20.316  0.00  0.00    +0.020 C 
ATOM     30  C   UNL     1      32.463 -13.470 -21.075  0.00  0.00    +0.098 C 
ENDBRANCH  19  22
ENDBRANCH  18  19
ENDBRANCH   6  18
TORSDOF 3
ENDMDL
MODEL 5
REMARK VINA RESULT:     -11.0      3.352      6.824
REMARK  Name = 446752
REMARK  3 active torsions:
REMARK  status: ('A' for Active; 'I' for Inactive)
REMARK    1  A    between atoms: C_6  and  C_18
REMARK    2  A    between atoms: C_18  and  N_19
REMARK    3  A    between atoms: N_19  and  C_22
REMARK                            x       y       z     vdW  Elec       q    Type
REMARK                         _______ _______ _______ _____ _____    ______ ____
ROOT
ATOM      1  N   UNL     1      34.447 -15.461 -20.304  0.00  0.00    -0.182 NA
ATOM      2  N   UNL     1      35.332 -17.581 -20.591  0.00  0.00    -0.273 NA
ATOM      3  N   UNL     1      35.498 -18.591 -22.770  0.00  0.00    -0.312 NA
ATOM      4  N   UNL     1      34.772 -17.471 -24.672  0.00  0.00    -0.332 N 
ATOM      5  N   UNL     1      36.232 -19.731 -20.861  0.00  0.00    -0.283 N 
ATOM      6  C   UNL     1      33.658 -14.189 -22.185  0.00  0.00    +0.010 C 
ATOM      7  C   UNL     1      33.999 -15.220 -23.030  0.00  0.00    -0.009 C 
ATOM      8  C   UNL     1      34.572 -16.381 -22.491  0.00  0.00    +0.115 C 
ATOM      9  C   UNL     1      34.786 -16.475 -21.111  0.00  0.00    +0.104 C 
ATOM     10  C   UNL     1      33.894 -14.347 -20.843  0.00  0.00    +0.107 C 
ATOM     11  C   UNL     1      33.729 -15.019 -24.490  0.00  0.00    +0.032 C 
ATOM     12  C   UNL     1      34.949 -17.472 -23.271  0.00  0.00    +0.201 C 
ATOM     13  C   UNL     1      35.659 -18.578 -21.440  0.00  0.00    +0.206 C 
ATOM     14  H   UNL     1      35.046 -18.254 -25.203  0.00  0.00    +0.145 HD
ATOM     15  H   UNL     1      34.375 -16.688 -25.117  0.00  0.00    +0.145 HD
ATOM     16  H   UNL     1      36.374 -19.776 -19.888  0.00  0.00    +0.156 HD
ATOM     17  H   UNL     1      36.491 -20.491 -21.432  0.00  0.00    +0.156 HD
ENDROOT
BRANCH   6  18
ATOM     18  C   UNL     1      33.038 -12.911 -22.682  0.00  0.00    +0.097 C 
BRANCH  18  19
ATOM     19  N   UNL     1      31.827 -12.637 -21.980  0.00  0.00    -0.288 NA
ATOM     20  H   UNL     1      31.015 -13.138 -22.225  0.00  0.00    +0.124 HD
BRANCH  19  22
ATOM     21  N   UNL     1      31.977  -8.048 -20.351  0.00  0.00    -0.248 NA
ATOM     22  C   UNL     1      31.744 -11.675 -20.944  0.00  0.00    +0.101 C 
ATOM     23  C   UNL     1      31.910 -10.303 -21.196  0.00  0.00    +0.010 C 
ATOM     24  C   UNL     1      31.821  -9.369 -20.144  0.00  0.00    +0.061 C 
ATOM     25  C   UNL     1      31.488 -12.128 -19.653  0.00  0.00    -0.010 C 
ATOM     26  C   UNL     1      32.168  -9.820 -22.486  0.00  0.00    +0.000 C 
ATOM     27  C   UNL     1      31.566  -9.849 -18.862  0.00  0.00    +0.071 C 
ATOM     28  C   UNL     1      31.399 -11.213 -18.611  0.00  0.00    -0.023 C 
ATOM     29  C   UNL     1      32.328  -8.460 -22.704  0.00  0.00    +0.020 C 
ATOM     30  C   UNL     1      32.224  -7.623 -21.612  0.00  0.00    +0.098 C 
ENDBRANCH  19  22
ENDBRANCH  18  19
ENDBRANCH   6  18
TORSDOF 3
ENDMDL
MODEL 6
REMARK VINA RESULT:     -10.9      1.410      2.132
REMARK  Name = 446752
REMARK  3 active torsions:
REMARK  status: ('A' for Active; 'I' for Inactive)
REMARK    1  A    between atoms: C_6  and  C_18
REMARK    2  A    between atoms: C_18  and  N_19
REMARK    3  A    between atoms: N_19  and  C_22
REMARK                            x       y       z     vdW  Elec       q    Type
REMARK                         _______ _______ _______ _____ _____    ______ ____
ROOT
ATOM      1  N   UNL     1      32.640 -22.250 -18.597  0.00  0.00    -0.182 NA
ATOM      2  N   UNL     1      32.387 -23.434 -16.624  0.00  0.00    -0.273 NA
ATOM      3  N   UNL     1      34.278 -24.008 -15.248  0.00  0.00    -0.312 NA
ATOM      4  N   UNL     1      36.435 -23.394 -15.855  0.00  0.00    -0.332 N 
ATOM      5  N   UNL     1      32.109 -24.635 -14.626  0.00  0.00    -0.283 N 
ATOM      6  C   UNL     1      34.815 -21.551 -19.344  0.00  0.00    +0.010 C 
ATOM      7  C   UNL     1      35.387 -22.130 -18.235  0.00  0.00    -0.009 C 
ATOM      8  C   UNL     1      34.562 -22.775 -17.302  0.00  0.00    +0.115 C 
ATOM      9  C   UNL     1      33.179 -22.820 -17.510  0.00  0.00    +0.104 C 
ATOM     10  C   UNL     1      33.453 -21.633 -19.488  0.00  0.00    +0.107 C 
ATOM     11  C   UNL     1      36.876 -22.026 -18.105  0.00  0.00    +0.032 C 
ATOM     12  C   UNL     1      35.054 -23.387 -16.152  0.00  0.00    +0.201 C 
ATOM     13  C   UNL     1      32.971 -23.994 -15.543  0.00  0.00    +0.206 C 
ATOM     14  H   UNL     1      36.760 -23.833 -15.036  0.00  0.00    +0.145 HD
ATOM     15  H   UNL     1      37.072 -22.960 -16.467  0.00  0.00    +0.145 HD
ATOM     16  H   UNL     1      31.139 -24.655 -14.792  0.00  0.00    +0.156 HD
ATOM     17  H   UNL     1      32.480 -25.062 -13.820  0.00  0.00    +0.156 HD
ENDROOT
BRANCH   6  18
ATOM     18  C   UNL     1      35.628 -20.842 -20.393  0.00  0.00    +0.097 C 
BRANCH  18  19
ATOM     19  N   UNL     1      35.171 -19.500 -20.557  0.00  0.00    -0.288 NA
ATOM     20  H   UNL     1      34.962 -18.970 -19.754  0.00  0.00    +0.124 HD
BRANCH  19  22
ATOM     21  N   UNL     1      34.466 -15.622 -23.421  0.00  0.00    -0.248 NA
ATOM     22  C   UNL     1      35.004 -18.899 -21.829  0.00  0.00    +0.101 C 
ATOM     23  C   UNL     1      34.815 -17.514 -21.970  0.00  0.00    +0.010 C 
ATOM     24  C   UNL     1      34.651 -16.944 -23.250  0.00  0.00    +0.061 C 
ATOM     25  C   UNL     1      35.035 -19.724 -22.949  0.00  0.00    -0.010 C 
ATOM     26  C   UNL     1      34.780 -16.661 -20.859  0.00  0.00    +0.000 C 
ATOM     27  C   UNL     1      34.685 -17.793 -24.353  0.00  0.00    +0.071 C 
ATOM     28  C   UNL     1      34.875 -19.170 -24.213  0.00  0.00    -0.023 C 
ATOM     29  C   UNL     1      34.590 -15.298 -21.032  0.00  0.00    +0.020 C 
ATOM     30  C   UNL     1      34.440 -14.832 -22.323  0.00  0.00    +0.098 C 
ENDBRANCH  19  22
ENDBRANCH  18  19
ENDBRANCH   6  18
TORSDOF 3
ENDMDL
MODEL 7
REMARK VINA RESULT:     -10.5      3.175      6.546
REMARK  Name = 446752
REMARK  3 active torsions:
REMARK  status: ('A' for Active; 'I' for Inactive)
REMARK    1  A    between atoms: C_6  and  C_18
REMARK    2  A    between atoms: C_18  and  N_19
REMARK    3  A    between atoms: N_19  and  C_22
REMARK                            x       y       z     vdW  Elec       q    Type
REMARK                         _______ _______ _______ _____ _____    ______ ____
ROOT
ATOM      1  N   UNL     1      34.587 -15.341 -20.692  0.00  0.00    -0.182 NA
ATOM      2  N   UNL     1      35.186 -17.577 -20.687  0.00  0.00    -0.273 NA
ATOM      3  N   UNL     1      35.237 -18.871 -22.717  0.00  0.00    -0.312 NA
ATOM      4  N   UNL     1      34.683 -17.919 -24.763  0.00  0.00    -0.332 N 
ATOM      5  N   UNL     1      35.797 -19.843 -20.662  0.00  0.00    -0.283 N 
ATOM      6  C   UNL     1      33.990 -14.229 -22.738  0.00  0.00    +0.010 C 
ATOM      7  C   UNL     1      34.200 -15.394 -23.437  0.00  0.00    -0.009 C 
ATOM      8  C   UNL     1      34.609 -16.542 -22.743  0.00  0.00    +0.115 C 
ATOM      9  C   UNL     1      34.797 -16.486 -21.357  0.00  0.00    +0.104 C 
ATOM     10  C   UNL     1      34.191 -14.243 -21.381  0.00  0.00    +0.107 C 
ATOM     11  C   UNL     1      33.972 -15.349 -24.918  0.00  0.00    +0.032 C 
ATOM     12  C   UNL     1      34.845 -17.763 -23.369  0.00  0.00    +0.201 C 
ATOM     13  C   UNL     1      35.387 -18.709 -21.396  0.00  0.00    +0.206 C 
ATOM     14  H   UNL     1      34.856 -18.792 -25.184  0.00  0.00    +0.145 HD
ATOM     15  H   UNL     1      34.397 -17.154 -25.313  0.00  0.00    +0.145 HD
ATOM     16  H   UNL     1      35.923 -19.781 -19.688  0.00  0.00    +0.156 HD
ATOM     17  H   UNL     1      35.958 -20.697 -21.126  0.00  0.00    +0.156 HD
ENDROOT
BRANCH   6  18
ATOM     18  C   UNL     1      33.550 -12.955 -23.408  0.00  0.00    +0.097 C 
BRANCH  18  19
ATOM     19  N   UNL     1      32.447 -12.379 -22.709  0.00  0.00    -0.288 NA
ATOM     20  H   UNL     1      31.635 -12.921 -22.578  0.00  0.00    +0.124 HD
BRANCH  19  22
ATOM     21  N   UNL     1      31.767  -9.144 -19.130  0.00  0.00    -0.248 NA
ATOM     22  C   UNL     1      32.472 -11.060 -22.195  0.00  0.00    +0.101 C 
ATOM     23  C   UNL     1      32.091 -10.776 -20.873  0.00  0.00    +0.010 C 
ATOM     24  C   UNL     1      32.126  -9.451 -20.390  0.00  0.00    +0.061 C 
ATOM     25  C   UNL     1      32.890 -10.038 -23.043  0.00  0.00    -0.010 C 
ATOM     26  C   UNL     1      31.667 -11.785 -19.998  0.00  0.00    +0.000 C 
ATOM     27  C   UNL     1      32.546  -8.448 -21.260  0.00  0.00    +0.071 C 
ATOM     28  C   UNL     1      32.926  -8.731 -22.574  0.00  0.00    -0.023 C 
ATOM     29  C   UNL     1      31.297 -11.473 -18.699  0.00  0.00    +0.020 C 
ATOM     30  C   UNL     1      31.364 -10.148 -18.317  0.00  0.00    +0.098 C 
ENDBRANCH  19  22
ENDBRANCH  18  19
ENDBRANCH   6  18
TORSDOF 3
ENDMDL
MODEL 8
REMARK VINA RESULT:     -10.3      1.502      8.058
REMARK  Name = 446752
REMARK  3 active torsions:
REMARK  status: ('A' for Active; 'I' for Inactive)
REMARK    1  A    between atoms: C_6  and  C_18
REMARK    2  A    between atoms: C_18  and  N_19
REMARK    3  A    between atoms: N_19  and  C_22
REMARK                            x       y       z     vdW  Elec       q    Type
REMARK                         _______ _______ _______ _____ _____    ______ ____
ROOT
ATOM      1  N   UNL     1      34.869 -15.791 -21.150  0.00  0.00    -0.182 NA
ATOM      2  N   UNL     1      34.068 -13.831 -22.085  0.00  0.00    -0.273 NA
ATOM      3  N   UNL     1      33.475 -13.698 -24.415  0.00  0.00    -0.312 NA
ATOM      4  N   UNL     1      33.689 -15.540 -25.816  0.00  0.00    -0.332 N 
ATOM      5  N   UNL     1      33.257 -11.834 -23.016  0.00  0.00    -0.283 N 
ATOM      6  C   UNL     1      35.140 -17.772 -22.483  0.00  0.00    +0.010 C 
ATOM      7  C   UNL     1      34.678 -17.097 -23.588  0.00  0.00    -0.009 C 
ATOM      8  C   UNL     1      34.310 -15.750 -23.459  0.00  0.00    +0.115 C 
ATOM      9  C   UNL     1      34.417 -15.116 -22.216  0.00  0.00    +0.104 C 
ATOM     10  C   UNL     1      35.221 -17.091 -21.295  0.00  0.00    +0.107 C 
ATOM     11  C   UNL     1      34.601 -17.866 -24.872  0.00  0.00    +0.032 C 
ATOM     12  C   UNL     1      33.832 -14.989 -24.524  0.00  0.00    +0.201 C 
ATOM     13  C   UNL     1      33.616 -13.189 -23.184  0.00  0.00    +0.206 C 
ATOM     14  H   UNL     1      33.349 -14.983 -26.553  0.00  0.00    +0.145 HD
ATOM     15  H   UNL     1      33.930 -16.480 -25.979  0.00  0.00    +0.145 HD
ATOM     16  H   UNL     1      33.340 -11.408 -22.132  0.00  0.00    +0.156 HD
ATOM     17  H   UNL     1      32.921 -11.315 -23.783  0.00  0.00    +0.156 HD
ENDROOT
BRANCH   6  18
ATOM     18  C   UNL     1      35.556 -19.217 -22.538  0.00  0.00    +0.097 C 
BRANCH  18  19
ATOM     19  N   UNL     1      35.836 -19.707 -21.227  0.00  0.00    -0.288 NA
ATOM     20  H   UNL     1      36.718 -19.520 -20.831  0.00  0.00    +0.124 HD
BRANCH  19  22
ATOM     21  N   UNL     1      34.671 -22.724 -17.583  0.00  0.00    -0.248 NA
ATOM     22  C   UNL     1      34.897 -20.450 -20.471  0.00  0.00    +0.101 C 
ATOM     23  C   UNL     1      35.288 -21.233 -19.373  0.00  0.00    +0.010 C 
ATOM     24  C   UNL     1      34.330 -21.963 -18.639  0.00  0.00    +0.061 C 
ATOM     25  C   UNL     1      33.558 -20.382 -20.847  0.00  0.00    -0.010 C 
ATOM     26  C   UNL     1      36.629 -21.319 -18.973  0.00  0.00    +0.000 C 
ATOM     27  C   UNL     1      32.999 -21.879 -19.038  0.00  0.00    +0.071 C 
ATOM     28  C   UNL     1      32.608 -21.098 -20.129  0.00  0.00    -0.023 C 
ATOM     29  C   UNL     1      36.984 -22.102 -17.885  0.00  0.00    +0.020 C 
ATOM     30  C   UNL     1      35.976 -22.779 -17.229  0.00  0.00    +0.098 C 
ENDBRANCH  19  22
ENDBRANCH  18  19
ENDBRANCH   6  18
TORSDOF 3
ENDMDL
MODEL 9
REMARK VINA RESULT:     -10.2      3.283      9.165
REMARK  Name = 446752
REMARK  3 active torsions:
REMARK  status: ('A' for Active; 'I' for Inactive)
REMARK    1  A    between atoms: C_6  and  C_18
REMARK    2  A    between atoms: C_18  and  N_19
REMARK    3  A    between atoms: N_19  and  C_22
REMARK                            x       y       z     vdW  Elec       q    Type
REMARK                         _______ _______ _______ _____ _____    ______ ____
ROOT
ATOM      1  N   UNL     1      36.727 -21.524 -18.719  0.00  0.00    -0.182 NA
ATOM      2  N   UNL     1      37.496 -19.965 -20.247  0.00  0.00    -0.273 NA
ATOM      3  N   UNL     1      36.019 -18.930 -21.842  0.00  0.00    -0.312 NA
ATOM      4  N   UNL     1      33.758 -19.461 -21.905  0.00  0.00    -0.332 N 
ATOM      5  N   UNL     1      38.296 -18.387 -21.789  0.00  0.00    -0.283 N 
ATOM      6  C   UNL     1      34.411 -22.167 -18.673  0.00  0.00    +0.010 C 
ATOM      7  C   UNL     1      34.148 -21.308 -19.715  0.00  0.00    -0.009 C 
ATOM      8  C   UNL     1      35.198 -20.553 -20.257  0.00  0.00    +0.115 C 
ATOM      9  C   UNL     1      36.490 -20.683 -19.734  0.00  0.00    +0.104 C 
ATOM     10  C   UNL     1      35.700 -22.246 -18.209  0.00  0.00    +0.107 C 
ATOM     11  C   UNL     1      32.732 -21.243 -20.201  0.00  0.00    +0.032 C 
ATOM     12  C   UNL     1      35.023 -19.660 -21.311  0.00  0.00    +0.201 C 
ATOM     13  C   UNL     1      37.214 -19.129 -21.269  0.00  0.00    +0.206 C 
ATOM     14  H   UNL     1      33.658 -18.824 -22.650  0.00  0.00    +0.145 HD
ATOM     15  H   UNL     1      32.976 -19.959 -21.575  0.00  0.00    +0.145 HD
ATOM     16  H   UNL     1      39.196 -18.493 -21.407  0.00  0.00    +0.156 HD
ATOM     17  H   UNL     1      38.149 -17.761 -22.536  0.00  0.00    +0.156 HD
ENDROOT
BRANCH   6  18
ATOM     18  C   UNL     1      33.342 -23.013 -18.036  0.00  0.00    +0.097 C 
BRANCH  18  19
ATOM     19  N   UNL     1      33.884 -23.778 -16.961  0.00  0.00    -0.288 NA
ATOM     20  H   UNL     1      34.706 -24.298 -17.119  0.00  0.00    +0.124 HD
BRANCH  19  22
ATOM     21  N   UNL     1      34.055 -24.656 -12.172  0.00  0.00    -0.248 NA
ATOM     22  C   UNL     1      33.291 -23.822 -15.676  0.00  0.00    +0.101 C 
ATOM     23  C   UNL     1      34.012 -24.233 -14.544  0.00  0.00    +0.010 C 
ATOM     24  C   UNL     1      33.393 -24.266 -13.277  0.00  0.00    +0.061 C 
ATOM     25  C   UNL     1      31.957 -23.440 -15.562  0.00  0.00    -0.010 C 
ATOM     26  C   UNL     1      35.356 -24.622 -14.631  0.00  0.00    +0.000 C 
ATOM     27  C   UNL     1      32.058 -23.881 -13.191  0.00  0.00    +0.071 C 
ATOM     28  C   UNL     1      31.340 -23.470 -14.317  0.00  0.00    -0.023 C 
ATOM     29  C   UNL     1      36.042 -25.024 -13.495  0.00  0.00    +0.020 C 
ATOM     30  C   UNL     1      35.352 -25.023 -12.299  0.00  0.00    +0.098 C 
ENDBRANCH  19  22
ENDBRANCH  18  19
ENDBRANCH   6  18
TORSDOF 3
ENDMDL
