MODEL 1
REMARK VINA RESULT:     -11.2      0.000      0.000
REMARK  Name = 115368
REMARK  5 active torsions:
REMARK  status: ('A' for Active; 'I' for Inactive)
REMARK    1  A    between atoms: N_2  and  C_17
REMARK    2  A    between atoms: C_17  and  C_18
REMARK    3  A    between atoms: C_18  and  C_19
REMARK    4  A    between atoms: C_19  and  C_20
REMARK    5  A    between atoms: C_20  and  N_23
REMARK                            x       y       z     vdW  Elec       q    Type
REMARK                         _______ _______ _______ _____ _____    ______ ____
ROOT
ATOM      1  S   UNL     1      33.813 -16.107 -25.509  0.00  0.00    +0.014 S 
ATOM      2  N   UNL     1      36.101 -20.341 -20.963  0.00  0.00    +0.389 N 
ATOM      3  N   UNL     1      35.231 -18.357 -22.828  0.00  0.00    -0.297 N 
ATOM      4  N   UNL     1      34.412 -17.531 -24.911  0.00  0.00    -0.194 NA
ATOM      5  C   UNL     1      36.521 -18.942 -20.818  0.00  0.00    -0.055 C 
ATOM      6  C   UNL     1      34.758 -20.407 -21.557  0.00  0.00    -0.055 C 
ATOM      7  C   UNL     1      36.534 -18.222 -22.170  0.00  0.00    +0.069 C 
ATOM      8  C   UNL     1      34.743 -19.737 -22.931  0.00  0.00    +0.069 C 
ATOM      9  C   UNL     1      34.710 -17.359 -23.622  0.00  0.00    +0.140 A 
ATOM     10  C   UNL     1      34.464 -16.057 -23.062  0.00  0.00    +0.040 A 
ATOM     11  C   UNL     1      33.938 -15.215 -24.043  0.00  0.00    +0.050 A 
ATOM     12  C   UNL     1      34.658 -15.538 -21.763  0.00  0.00    +0.003 C 
ATOM     13  C   UNL     1      33.601 -13.878 -23.779  0.00  0.00    +0.008 C 
ATOM     14  C   UNL     1      34.325 -14.209 -21.489  0.00  0.00    +0.000 C 
ATOM     15  C   UNL     1      33.804 -13.391 -22.486  0.00  0.00    +0.001 C 
ATOM     16  H   UNL     1      36.755 -20.815 -21.586  0.00  0.00    -0.080 HD
ENDROOT
BRANCH   2  17
ATOM     17  C   UNL     1      36.126 -21.023 -19.669  0.00  0.00    -0.077 C 
BRANCH  17  18
ATOM     18  C   UNL     1      34.794 -21.725 -19.414  0.00  0.00    -0.021 C 
BRANCH  18  19
ATOM     19  C   UNL     1      34.857 -22.585 -18.147  0.00  0.00    +0.020 C 
BRANCH  19  20
ATOM     20  C   UNL     1      33.660 -23.521 -18.014  0.00  0.00    +0.101 C 
BRANCH  20  23
ATOM     21  O   UNL     1      34.741 -24.489 -15.436  0.00  0.00    -0.274 OA
ATOM     22  O   UNL     1      31.032 -22.442 -17.288  0.00  0.00    -0.274 OA
ATOM     23  N   UNL     1      33.056 -23.462 -16.698  0.00  0.00    -0.230 N 
ATOM     24  C   UNL     1      32.800 -23.457 -14.393  0.00  0.00    +0.086 C 
ATOM     25  C   UNL     1      31.424 -23.277 -15.044  0.00  0.00    +0.086 C 
ATOM     26  C   UNL     1      32.850 -24.357 -13.165  0.00  0.00    +0.010 C 
ATOM     27  C   UNL     1      30.537 -24.527 -15.023  0.00  0.00    +0.010 C 
ATOM     28  C   UNL     1      31.991 -25.608 -13.295  0.00  0.00    +0.001 C 
ATOM     29  C   UNL     1      30.564 -25.248 -13.684  0.00  0.00    +0.001 C 
ATOM     30  C   UNL     1      33.674 -23.907 -15.545  0.00  0.00    +0.231 C 
ATOM     31  C   UNL     1      31.784 -22.968 -16.480  0.00  0.00    +0.231 C 
ENDBRANCH  20  23
ENDBRANCH  19  20
ENDBRANCH  18  19
ENDBRANCH  17  18
ENDBRANCH   2  17
TORSDOF 5
ENDMDL
MODEL 2
REMARK VINA RESULT:     -11.0      1.892      2.534
REMARK  Name = 115368
REMARK  5 active torsions:
REMARK  status: ('A' for Active; 'I' for Inactive)
REMARK    1  A    between atoms: N_2  and  C_17
REMARK    2  A    between atoms: C_17  and  C_18
REMARK    3  A    between atoms: C_18  and  C_19
REMARK    4  A    between atoms: C_19  and  C_20
REMARK    5  A    between atoms: C_20  and  N_23
REMARK                            x       y       z     vdW  Elec       q    Type
REMARK                         _______ _______ _______ _____ _____    ______ ____
ROOT
ATOM      1  S   UNL     1      34.063 -15.270 -25.920  0.00  0.00    +0.014 S 
ATOM      2  N   UNL     1      35.421 -19.981 -21.473  0.00  0.00    +0.389 N 
ATOM      3  N   UNL     1      34.918 -17.802 -23.253  0.00  0.00    -0.297 N 
ATOM      4  N   UNL     1      34.575 -16.744 -25.363  0.00  0.00    -0.194 NA
ATOM      5  C   UNL     1      35.726 -18.603 -21.072  0.00  0.00    -0.055 C 
ATOM      6  C   UNL     1      34.261 -20.002 -22.375  0.00  0.00    -0.055 C 
ATOM      7  C   UNL     1      36.021 -17.722 -22.290  0.00  0.00    +0.069 C 
ATOM      8  C   UNL     1      34.537 -19.169 -23.627  0.00  0.00    +0.069 C 
ATOM      9  C   UNL     1      34.551 -16.726 -24.029  0.00  0.00    +0.140 A 
ATOM     10  C   UNL     1      34.116 -15.508 -23.400  0.00  0.00    +0.040 A 
ATOM     11  C   UNL     1      33.795 -14.562 -24.376  0.00  0.00    +0.050 A 
ATOM     12  C   UNL     1      33.972 -15.148 -22.041  0.00  0.00    +0.003 C 
ATOM     13  C   UNL     1      33.340 -13.275 -24.049  0.00  0.00    +0.008 C 
ATOM     14  C   UNL     1      33.519 -13.869 -21.706  0.00  0.00    +0.000 C 
ATOM     15  C   UNL     1      33.208 -12.946 -22.698  0.00  0.00    +0.001 C 
ATOM     16  H   UNL     1      36.226 -20.362 -21.970  0.00  0.00    -0.080 HD
ENDROOT
BRANCH   2  17
ATOM     17  C   UNL     1      35.173 -20.816 -20.297  0.00  0.00    -0.077 C 
BRANCH  17  18
ATOM     18  C   UNL     1      33.677 -20.877 -19.995  0.00  0.00    -0.021 C 
BRANCH  18  19
ATOM     19  C   UNL     1      33.371 -21.938 -18.933  0.00  0.00    +0.020 C 
BRANCH  19  20
ATOM     20  C   UNL     1      34.544 -22.883 -18.693  0.00  0.00    +0.101 C 
BRANCH  20  23
ATOM     21  O   UNL     1      37.118 -22.287 -17.359  0.00  0.00    -0.274 OA
ATOM     22  O   UNL     1      32.837 -23.808 -16.495  0.00  0.00    -0.274 OA
ATOM     23  N   UNL     1      34.885 -22.995 -17.289  0.00  0.00    -0.230 N 
ATOM     24  C   UNL     1      35.966 -22.706 -15.257  0.00  0.00    +0.086 C 
ATOM     25  C   UNL     1      34.786 -23.664 -15.058  0.00  0.00    +0.086 C 
ATOM     26  C   UNL     1      37.245 -23.048 -14.503  0.00  0.00    +0.010 C 
ATOM     27  C   UNL     1      35.176 -25.140 -14.922  0.00  0.00    +0.010 C 
ATOM     28  C   UNL     1      37.570 -24.536 -14.507  0.00  0.00    +0.001 C 
ATOM     29  C   UNL     1      36.381 -25.352 -14.018  0.00  0.00    +0.001 C 
ATOM     30  C   UNL     1      36.114 -22.645 -16.762  0.00  0.00    +0.231 C 
ATOM     31  C   UNL     1      34.007 -23.489 -16.342  0.00  0.00    +0.231 C 
ENDBRANCH  20  23
ENDBRANCH  19  20
ENDBRANCH  18  19
ENDBRANCH  17  18
ENDBRANCH   2  17
TORSDOF 5
ENDMDL
MODEL 3
REMARK VINA RESULT:     -10.5      7.363     11.814
REMARK  Name = 115368
REMARK  5 active torsions:
REMARK  status: ('A' for Active; 'I' for Inactive)
REMARK    1  A    between atoms: N_2  and  C_17
REMARK    2  A    between atoms: C_17  and  C_18
REMARK    3  A    between atoms: C_18  and  C_19
REMARK    4  A    between atoms: C_19  and  C_20
REMARK    5  A    between atoms: C_20  and  N_23
REMARK                            x       y       z     vdW  Elec       q    Type
REMARK                         _______ _______ _______ _____ _____    ______ ____
ROOT
ATOM      1  S   UNL     1      30.912  -2.938 -23.815  0.00  0.00    +0.014 S 
ATOM      2  N   UNL     1      31.518  -9.036 -21.314  0.00  0.00    +0.389 N 
ATOM      3  N   UNL     1      31.302  -6.488 -22.590  0.00  0.00    -0.297 N 
ATOM      4  N   UNL     1      30.546  -4.241 -22.862  0.00  0.00    -0.194 NA
ATOM      5  C   UNL     1      31.785  -8.894 -22.750  0.00  0.00    -0.055 C 
ATOM      6  C   UNL     1      31.898  -7.807 -20.603  0.00  0.00    -0.055 C 
ATOM      7  C   UNL     1      31.014  -7.712 -23.344  0.00  0.00    +0.069 C 
ATOM      8  C   UNL     1      31.113  -6.610 -21.139  0.00  0.00    +0.069 C 
ATOM      9  C   UNL     1      31.349  -5.253 -23.198  0.00  0.00    +0.140 A 
ATOM     10  C   UNL     1      32.299  -5.011 -24.250  0.00  0.00    +0.040 A 
ATOM     11  C   UNL     1      32.167  -3.700 -24.712  0.00  0.00    +0.050 A 
ATOM     12  C   UNL     1      33.278  -5.838 -24.843  0.00  0.00    +0.003 C 
ATOM     13  C   UNL     1      32.970  -3.186 -25.741  0.00  0.00    +0.008 C 
ATOM     14  C   UNL     1      34.084  -5.335 -25.869  0.00  0.00    +0.000 C 
ATOM     15  C   UNL     1      33.930  -4.026 -26.311  0.00  0.00    +0.001 C 
ATOM     16  H   UNL     1      30.518  -9.192 -21.181  0.00  0.00    -0.080 HD
ENDROOT
BRANCH   2  17
ATOM     17  C   UNL     1      32.236 -10.188 -20.769  0.00  0.00    -0.077 C 
BRANCH  17  18
ATOM     18  C   UNL     1      31.498 -11.482 -21.107  0.00  0.00    -0.021 C 
BRANCH  18  19
ATOM     19  C   UNL     1      32.351 -12.386 -22.004  0.00  0.00    +0.020 C 
BRANCH  19  20
ATOM     20  C   UNL     1      32.287 -13.852 -21.589  0.00  0.00    +0.101 C 
BRANCH  20  23
ATOM     21  O   UNL     1      32.798 -14.538 -24.422  0.00  0.00    -0.274 OA
ATOM     22  O   UNL     1      34.482 -15.174 -20.162  0.00  0.00    -0.274 OA
ATOM     23  N   UNL     1      33.370 -14.634 -22.151  0.00  0.00    -0.230 N 
ATOM     24  C   UNL     1      34.894 -15.515 -23.662  0.00  0.00    +0.086 C 
ATOM     25  C   UNL     1      35.142 -16.143 -22.285  0.00  0.00    +0.086 C 
ATOM     26  C   UNL     1      35.013 -16.451 -24.859  0.00  0.00    +0.010 C 
ATOM     27  C   UNL     1      34.634 -17.581 -22.137  0.00  0.00    +0.010 C 
ATOM     28  C   UNL     1      34.400 -17.823 -24.618  0.00  0.00    +0.001 C 
ATOM     29  C   UNL     1      34.954 -18.449 -23.344  0.00  0.00    +0.001 C 
ATOM     30  C   UNL     1      33.540 -14.856 -23.505  0.00  0.00    +0.231 C 
ATOM     31  C   UNL     1      34.331 -15.250 -21.373  0.00  0.00    +0.231 C 
ENDBRANCH  20  23
ENDBRANCH  19  20
ENDBRANCH  18  19
ENDBRANCH  17  18
ENDBRANCH   2  17
TORSDOF 5
ENDMDL
MODEL 4
REMARK VINA RESULT:     -10.4      0.744      1.818
REMARK  Name = 115368
REMARK  5 active torsions:
REMARK  status: ('A' for Active; 'I' for Inactive)
REMARK    1  A    between atoms: N_2  and  C_17
REMARK    2  A    between atoms: C_17  and  C_18
REMARK    3  A    between atoms: C_18  and  C_19
REMARK    4  A    between atoms: C_19  and  C_20
REMARK    5  A    between atoms: C_20  and  N_23
REMARK                            x       y       z     vdW  Elec       q    Type
REMARK                         _______ _______ _______ _____ _____    ______ ____
ROOT
ATOM      1  S   UNL     1      33.931 -15.815 -25.450  0.00  0.00    +0.014 S 
ATOM      2  N   UNL     1      36.037 -20.242 -21.002  0.00  0.00    +0.389 N 
ATOM      3  N   UNL     1      35.237 -18.178 -22.810  0.00  0.00    -0.297 N 
ATOM      4  N   UNL     1      34.521 -17.259 -24.892  0.00  0.00    -0.194 NA
ATOM      5  C   UNL     1      36.424 -18.846 -20.763  0.00  0.00    -0.055 C 
ATOM      6  C   UNL     1      34.730 -20.297 -21.672  0.00  0.00    -0.055 C 
ATOM      7  C   UNL     1      36.499 -18.058 -22.074  0.00  0.00    +0.069 C 
ATOM      8  C   UNL     1      34.779 -19.559 -23.010  0.00  0.00    +0.069 C 
ATOM      9  C   UNL     1      34.744 -17.149 -23.581  0.00  0.00    +0.140 A 
ATOM     10  C   UNL     1      34.445 -15.881 -22.971  0.00  0.00    +0.040 A 
ATOM     11  C   UNL     1      33.959 -14.997 -23.937  0.00  0.00    +0.050 A 
ATOM     12  C   UNL     1      34.557 -15.426 -21.639  0.00  0.00    +0.003 C 
ATOM     13  C   UNL     1      33.585 -13.681 -23.625  0.00  0.00    +0.008 C 
ATOM     14  C   UNL     1      34.186 -14.118 -21.318  0.00  0.00    +0.000 C 
ATOM     15  C   UNL     1      33.707 -13.257 -22.300  0.00  0.00    +0.001 C 
ATOM     16  H   UNL     1      36.733 -20.674 -21.609  0.00  0.00    -0.080 HD
ENDROOT
BRANCH   2  17
ATOM     17  C   UNL     1      36.002 -20.988 -19.744  0.00  0.00    -0.077 C 
BRANCH  17  18
ATOM     18  C   UNL     1      34.587 -21.493 -19.465  0.00  0.00    -0.021 C 
BRANCH  18  19
ATOM     19  C   UNL     1      34.614 -22.849 -18.752  0.00  0.00    +0.020 C 
BRANCH  19  20
ATOM     20  C   UNL     1      34.807 -22.714 -17.245  0.00  0.00    +0.101 C 
BRANCH  20  23
ATOM     21  O   UNL     1      31.863 -22.529 -17.482  0.00  0.00    -0.274 OA
ATOM     22  O   UNL     1      35.194 -24.654 -15.080  0.00  0.00    -0.274 OA
ATOM     23  N   UNL     1      33.790 -23.423 -16.493  0.00  0.00    -0.230 N 
ATOM     24  C   UNL     1      31.758 -24.359 -15.882  0.00  0.00    +0.086 C 
ATOM     25  C   UNL     1      32.786 -24.647 -14.782  0.00  0.00    +0.086 C 
ATOM     26  C   UNL     1      30.352 -24.007 -15.412  0.00  0.00    +0.010 C 
ATOM     27  C   UNL     1      32.636 -23.786 -13.524  0.00  0.00    +0.010 C 
ATOM     28  C   UNL     1      30.332 -23.080 -14.204  0.00  0.00    +0.001 C 
ATOM     29  C   UNL     1      31.189 -23.640 -13.077  0.00  0.00    +0.001 C 
ATOM     30  C   UNL     1      32.432 -23.293 -16.719  0.00  0.00    +0.231 C 
ATOM     31  C   UNL     1      34.091 -24.287 -15.458  0.00  0.00    +0.231 C 
ENDBRANCH  20  23
ENDBRANCH  19  20
ENDBRANCH  18  19
ENDBRANCH  17  18
ENDBRANCH   2  17
TORSDOF 5
ENDMDL
MODEL 5
REMARK VINA RESULT:     -10.2      3.572      6.274
REMARK  Name = 115368
REMARK  5 active torsions:
REMARK  status: ('A' for Active; 'I' for Inactive)
REMARK    1  A    between atoms: N_2  and  C_17
REMARK    2  A    between atoms: C_17  and  C_18
REMARK    3  A    between atoms: C_18  and  C_19
REMARK    4  A    between atoms: C_19  and  C_20
REMARK    5  A    between atoms: C_20  and  N_23
REMARK                            x       y       z     vdW  Elec       q    Type
REMARK                         _______ _______ _______ _____ _____    ______ ____
ROOT
ATOM      1  S   UNL     1      31.136 -10.689 -19.375  0.00  0.00    +0.014 S 
ATOM      2  N   UNL     1      34.047 -15.588 -22.742  0.00  0.00    +0.389 N 
ATOM      3  N   UNL     1      32.733 -13.386 -21.480  0.00  0.00    -0.297 N 
ATOM      4  N   UNL     1      31.585 -12.243 -19.729  0.00  0.00    -0.194 NA
ATOM      5  C   UNL     1      33.447 -14.516 -23.545  0.00  0.00    -0.055 C 
ATOM      6  C   UNL     1      34.542 -15.050 -21.467  0.00  0.00    -0.055 C 
ATOM      7  C   UNL     1      32.288 -13.846 -22.800  0.00  0.00    +0.069 C 
ATOM      8  C   UNL     1      33.402 -14.413 -20.672  0.00  0.00    +0.069 C 
ATOM      9  C   UNL     1      32.226 -12.245 -20.899  0.00  0.00    +0.140 A 
ATOM     10  C   UNL     1      32.379 -10.978 -21.563  0.00  0.00    +0.040 A 
ATOM     11  C   UNL     1      31.793  -9.970 -20.794  0.00  0.00    +0.050 A 
ATOM     12  C   UNL     1      32.989 -10.622 -22.786  0.00  0.00    +0.003 C 
ATOM     13  C   UNL     1      31.792  -8.627 -21.198  0.00  0.00    +0.008 C 
ATOM     14  C   UNL     1      32.994  -9.287 -23.197  0.00  0.00    +0.000 C 
ATOM     15  C   UNL     1      32.402  -8.303 -22.412  0.00  0.00    +0.001 C 
ATOM     16  H   UNL     1      33.332 -16.288 -22.544  0.00  0.00    -0.080 HD
ENDROOT
BRANCH   2  17
ATOM     17  C   UNL     1      35.130 -16.239 -23.480  0.00  0.00    -0.077 C 
BRANCH  17  18
ATOM     18  C   UNL     1      34.958 -17.757 -23.446  0.00  0.00    -0.021 C 
BRANCH  18  19
ATOM     19  C   UNL     1      35.825 -18.386 -22.350  0.00  0.00    +0.020 C 
BRANCH  19  20
ATOM     20  C   UNL     1      35.044 -18.657 -21.068  0.00  0.00    +0.101 C 
BRANCH  20  23
ATOM     21  O   UNL     1      33.096 -20.723 -20.237  0.00  0.00    -0.274 OA
ATOM     22  O   UNL     1      37.639 -19.906 -20.516  0.00  0.00    -0.274 OA
ATOM     23  N   UNL     1      35.299 -19.980 -20.536  0.00  0.00    -0.230 N 
ATOM     24  C   UNL     1      35.007 -22.197 -19.917  0.00  0.00    +0.086 C 
ATOM     25  C   UNL     1      36.422 -21.756 -19.526  0.00  0.00    +0.086 C 
ATOM     26  C   UNL     1      34.282 -23.093 -18.921  0.00  0.00    +0.010 C 
ATOM     27  C   UNL     1      36.617 -21.486 -18.030  0.00  0.00    +0.010 C 
ATOM     28  C   UNL     1      34.486 -22.676 -17.471  0.00  0.00    +0.001 C 
ATOM     29  C   UNL     1      35.969 -22.543 -17.149  0.00  0.00    +0.001 C 
ATOM     30  C   UNL     1      34.306 -20.889 -20.220  0.00  0.00    +0.231 C 
ATOM     31  C   UNL     1      36.572 -20.450 -20.274  0.00  0.00    +0.231 C 
ENDBRANCH  20  23
ENDBRANCH  19  20
ENDBRANCH  18  19
ENDBRANCH  17  18
ENDBRANCH   2  17
TORSDOF 5
ENDMDL
MODEL 6
REMARK VINA RESULT:     -10.2      4.614     11.188
REMARK  Name = 115368
REMARK  5 active torsions:
REMARK  status: ('A' for Active; 'I' for Inactive)
REMARK    1  A    between atoms: N_2  and  C_17
REMARK    2  A    between atoms: C_17  and  C_18
REMARK    3  A    between atoms: C_18  and  C_19
REMARK    4  A    between atoms: C_19  and  C_20
REMARK    5  A    between atoms: C_20  and  N_23
REMARK                            x       y       z     vdW  Elec       q    Type
REMARK                         _______ _______ _______ _____ _____    ______ ____
ROOT
ATOM      1  S   UNL     1      35.367 -25.022 -12.349  0.00  0.00    +0.014 S 
ATOM      2  N   UNL     1      36.050 -21.707 -18.038  0.00  0.00    +0.389 N 
ATOM      3  N   UNL     1      35.965 -23.093 -15.539  0.00  0.00    -0.297 N 
ATOM      4  N   UNL     1      34.948 -23.995 -13.578  0.00  0.00    -0.194 NA
ATOM      5  C   UNL     1      37.257 -21.835 -17.211  0.00  0.00    -0.055 C 
ATOM      6  C   UNL     1      35.190 -22.886 -17.863  0.00  0.00    -0.055 C 
ATOM      7  C   UNL     1      36.902 -21.981 -15.729  0.00  0.00    +0.069 C 
ATOM      8  C   UNL     1      34.776 -23.039 -16.399  0.00  0.00    +0.069 C 
ATOM      9  C   UNL     1      35.986 -23.878 -14.408  0.00  0.00    +0.140 A 
ATOM     10  C   UNL     1      37.173 -24.621 -14.078  0.00  0.00    +0.040 A 
ATOM     11  C   UNL     1      36.966 -25.340 -12.899  0.00  0.00    +0.050 A 
ATOM     12  C   UNL     1      38.427 -24.727 -14.719  0.00  0.00    +0.003 C 
ATOM     13  C   UNL     1      37.958 -26.157 -12.337  0.00  0.00    +0.008 C 
ATOM     14  C   UNL     1      39.422 -25.539 -14.167  0.00  0.00    +0.000 C 
ATOM     15  C   UNL     1      39.189 -26.244 -12.992  0.00  0.00    +0.001 C 
ATOM     16  H   UNL     1      35.534 -20.880 -17.737  0.00  0.00    -0.080 HD
ENDROOT
BRANCH   2  17
ATOM     17  C   UNL     1      36.407 -21.535 -19.446  0.00  0.00    -0.077 C 
BRANCH  17  18
ATOM     18  C   UNL     1      35.220 -20.981 -20.231  0.00  0.00    -0.021 C 
BRANCH  18  19
ATOM     19  C   UNL     1      35.589 -19.676 -20.943  0.00  0.00    +0.020 C 
BRANCH  19  20
ATOM     20  C   UNL     1      34.382 -18.772 -21.173  0.00  0.00    +0.101 C 
BRANCH  20  23
ATOM     21  O   UNL     1      34.135 -15.850 -20.779  0.00  0.00    -0.274 OA
ATOM     22  O   UNL     1      35.295 -19.009 -23.950  0.00  0.00    -0.274 OA
ATOM     23  N   UNL     1      34.663 -17.704 -22.112  0.00  0.00    -0.230 N 
ATOM     24  C   UNL     1      35.148 -15.608 -22.979  0.00  0.00    +0.086 C 
ATOM     25  C   UNL     1      35.026 -16.606 -24.136  0.00  0.00    +0.086 C 
ATOM     26  C   UNL     1      34.553 -14.226 -23.217  0.00  0.00    +0.010 C 
ATOM     27  C   UNL     1      33.720 -16.505 -24.932  0.00  0.00    +0.010 C 
ATOM     28  C   UNL     1      33.216 -14.259 -23.946  0.00  0.00    +0.001 C 
ATOM     29  C   UNL     1      33.320 -15.068 -25.232  0.00  0.00    +0.001 C 
ATOM     30  C   UNL     1      34.555 -16.360 -21.806  0.00  0.00    +0.231 C 
ATOM     31  C   UNL     1      35.048 -17.937 -23.418  0.00  0.00    +0.231 C 
ENDBRANCH  20  23
ENDBRANCH  19  20
ENDBRANCH  18  19
ENDBRANCH  17  18
ENDBRANCH   2  17
TORSDOF 5
ENDMDL
MODEL 7
REMARK VINA RESULT:     -10.2      3.859     10.456
REMARK  Name = 115368
REMARK  5 active torsions:
REMARK  status: ('A' for Active; 'I' for Inactive)
REMARK    1  A    between atoms: N_2  and  C_17
REMARK    2  A    between atoms: C_17  and  C_18
REMARK    3  A    between atoms: C_18  and  C_19
REMARK    4  A    between atoms: C_19  and  C_20
REMARK    5  A    between atoms: C_20  and  N_23
REMARK                            x       y       z     vdW  Elec       q    Type
REMARK                         _______ _______ _______ _____ _____    ______ ____
ROOT
ATOM      1  S   UNL     1      32.496 -25.199 -13.388  0.00  0.00    +0.014 S 
ATOM      2  N   UNL     1      35.993 -22.467 -18.300  0.00  0.00    +0.389 N 
ATOM      3  N   UNL     1      34.320 -23.673 -16.321  0.00  0.00    -0.297 N 
ATOM      4  N   UNL     1      33.825 -24.879 -14.323  0.00  0.00    -0.194 NA
ATOM      5  C   UNL     1      34.617 -22.861 -18.624  0.00  0.00    -0.055 C 
ATOM      6  C   UNL     1      36.085 -22.061 -16.891  0.00  0.00    -0.055 C 
ATOM      7  C   UNL     1      34.146 -24.017 -17.736  0.00  0.00    +0.069 C 
ATOM      8  C   UNL     1      35.666 -23.208 -15.970  0.00  0.00    +0.069 C 
ATOM      9  C   UNL     1      33.448 -24.118 -15.353  0.00  0.00    +0.140 A 
ATOM     10  C   UNL     1      32.056 -23.762 -15.427  0.00  0.00    +0.040 A 
ATOM     11  C   UNL     1      31.369 -24.320 -14.346  0.00  0.00    +0.050 A 
ATOM     12  C   UNL     1      31.330 -22.988 -16.359  0.00  0.00    +0.003 C 
ATOM     13  C   UNL     1      29.990 -24.136 -14.162  0.00  0.00    +0.008 C 
ATOM     14  C   UNL     1      29.956 -22.799 -16.184  0.00  0.00    +0.000 C 
ATOM     15  C   UNL     1      29.297 -23.367 -15.099  0.00  0.00    +0.001 C 
ATOM     16  H   UNL     1      36.606 -23.269 -18.448  0.00  0.00    -0.080 HD
ENDROOT
BRANCH   2  17
ATOM     17  C   UNL     1      36.439 -21.385 -19.177  0.00  0.00    -0.077 C 
BRANCH  17  18
ATOM     18  C   UNL     1      35.357 -21.053 -20.203  0.00  0.00    -0.021 C 
BRANCH  18  19
ATOM     19  C   UNL     1      35.636 -19.711 -20.887  0.00  0.00    +0.020 C 
BRANCH  19  20
ATOM     20  C   UNL     1      34.365 -19.031 -21.385  0.00  0.00    +0.101 C 
BRANCH  20  23
ATOM     21  O   UNL     1      34.273 -16.135 -20.783  0.00  0.00    -0.274 OA
ATOM     22  O   UNL     1      35.117 -19.113 -24.218  0.00  0.00    -0.274 OA
ATOM     23  N   UNL     1      34.644 -17.913 -22.264  0.00  0.00    -0.230 N 
ATOM     24  C   UNL     1      35.179 -15.784 -23.014  0.00  0.00    +0.086 C 
ATOM     25  C   UNL     1      34.949 -16.693 -24.227  0.00  0.00    +0.086 C 
ATOM     26  C   UNL     1      34.636 -14.365 -23.126  0.00  0.00    +0.010 C 
ATOM     27  C   UNL     1      33.610 -16.482 -24.941  0.00  0.00    +0.010 C 
ATOM     28  C   UNL     1      33.262 -14.291 -23.779  0.00  0.00    +0.001 C 
ATOM     29  C   UNL     1      33.261 -15.013 -25.121  0.00  0.00    +0.001 C 
ATOM     30  C   UNL     1      34.615 -16.590 -21.863  0.00  0.00    +0.231 C 
ATOM     31  C   UNL     1      34.949 -18.071 -23.602  0.00  0.00    +0.231 C 
ENDBRANCH  20  23
ENDBRANCH  19  20
ENDBRANCH  18  19
ENDBRANCH  17  18
ENDBRANCH   2  17
TORSDOF 5
ENDMDL
MODEL 8
REMARK VINA RESULT:     -10.2      2.024      3.018
REMARK  Name = 115368
REMARK  5 active torsions:
REMARK  status: ('A' for Active; 'I' for Inactive)
REMARK    1  A    between atoms: N_2  and  C_17
REMARK    2  A    between atoms: C_17  and  C_18
REMARK    3  A    between atoms: C_18  and  C_19
REMARK    4  A    between atoms: C_19  and  C_20
REMARK    5  A    between atoms: C_20  and  N_23
REMARK                            x       y       z     vdW  Elec       q    Type
REMARK                         _______ _______ _______ _____ _____    ______ ____
ROOT
ATOM      1  S   UNL     1      34.083 -15.375 -25.875  0.00  0.00    +0.014 S 
ATOM      2  N   UNL     1      35.441 -20.018 -21.358  0.00  0.00    +0.389 N 
ATOM      3  N   UNL     1      34.943 -17.867 -23.172  0.00  0.00    -0.297 N 
ATOM      4  N   UNL     1      34.580 -16.845 -25.297  0.00  0.00    -0.194 NA
ATOM      5  C   UNL     1      35.774 -18.637 -20.989  0.00  0.00    -0.055 C 
ATOM      6  C   UNL     1      34.266 -20.039 -22.240  0.00  0.00    -0.055 C 
ATOM      7  C   UNL     1      36.062 -17.785 -22.229  0.00  0.00    +0.069 C 
ATOM      8  C   UNL     1      34.534 -19.235 -23.513  0.00  0.00    +0.069 C 
ATOM      9  C   UNL     1      34.579 -16.800 -23.963  0.00  0.00    +0.140 A 
ATOM     10  C   UNL     1      34.173 -15.564 -23.351  0.00  0.00    +0.040 A 
ATOM     11  C   UNL     1      33.851 -14.632 -24.340  0.00  0.00    +0.050 A 
ATOM     12  C   UNL     1      34.057 -15.175 -21.998  0.00  0.00    +0.003 C 
ATOM     13  C   UNL     1      33.421 -13.333 -24.032  0.00  0.00    +0.008 C 
ATOM     14  C   UNL     1      33.629 -13.883 -21.681  0.00  0.00    +0.000 C 
ATOM     15  C   UNL     1      33.316 -12.975 -22.686  0.00  0.00    +0.001 C 
ATOM     16  H   UNL     1      36.232 -20.422 -21.860  0.00  0.00    -0.080 HD
ENDROOT
BRANCH   2  17
ATOM     17  C   UNL     1      35.201 -20.826 -20.162  0.00  0.00    -0.077 C 
BRANCH  17  18
ATOM     18  C   UNL     1      36.524 -21.315 -19.576  0.00  0.00    -0.021 C 
BRANCH  18  19
ATOM     19  C   UNL     1      36.294 -22.411 -18.530  0.00  0.00    +0.020 C 
BRANCH  19  20
ATOM     20  C   UNL     1      36.568 -21.931 -17.108  0.00  0.00    +0.101 C 
BRANCH  20  23
ATOM     21  O   UNL     1      34.083 -23.163 -16.077  0.00  0.00    -0.274 OA
ATOM     22  O   UNL     1      38.683 -23.333 -15.639  0.00  0.00    -0.274 OA
ATOM     23  N   UNL     1      36.419 -22.989 -16.130  0.00  0.00    -0.230 N 
ATOM     24  C   UNL     1      35.517 -24.733 -14.895  0.00  0.00    +0.086 C 
ATOM     25  C   UNL     1      36.931 -24.441 -14.379  0.00  0.00    +0.086 C 
ATOM     26  C   UNL     1      34.469 -25.056 -13.837  0.00  0.00    +0.010 C 
ATOM     27  C   UNL     1      36.983 -23.681 -13.050  0.00  0.00    +0.010 C 
ATOM     28  C   UNL     1      34.572 -24.181 -12.596  0.00  0.00    +0.001 C 
ATOM     29  C   UNL     1      35.985 -24.206 -12.029  0.00  0.00    +0.001 C 
ATOM     30  C   UNL     1      35.202 -23.525 -15.751  0.00  0.00    +0.231 C 
ATOM     31  C   UNL     1      37.493 -23.550 -15.464  0.00  0.00    +0.231 C 
ENDBRANCH  20  23
ENDBRANCH  19  20
ENDBRANCH  18  19
ENDBRANCH  17  18
ENDBRANCH   2  17
TORSDOF 5
ENDMDL
MODEL 9
REMARK VINA RESULT:     -10.0      4.783     11.114
REMARK  Name = 115368
REMARK  5 active torsions:
REMARK  status: ('A' for Active; 'I' for Inactive)
REMARK    1  A    between atoms: N_2  and  C_17
REMARK    2  A    between atoms: C_17  and  C_18
REMARK    3  A    between atoms: C_18  and  C_19
REMARK    4  A    between atoms: C_19  and  C_20
REMARK    5  A    between atoms: C_20  and  N_23
REMARK                            x       y       z     vdW  Elec       q    Type
REMARK                         _______ _______ _______ _____ _____    ______ ____
ROOT
ATOM      1  S   UNL     1      37.178 -20.952 -19.292  0.00  0.00    +0.014 S 
ATOM      2  N   UNL     1      34.848 -16.897 -23.978  0.00  0.00    +0.389 N 
ATOM      3  N   UNL     1      35.710 -18.797 -22.024  0.00  0.00    -0.297 N 
ATOM      4  N   UNL     1      37.235 -19.823 -20.503  0.00  0.00    -0.194 NA
ATOM      5  C   UNL     1      34.188 -18.202 -23.861  0.00  0.00    -0.055 C 
ATOM      6  C   UNL     1      35.329 -16.453 -22.662  0.00  0.00    -0.055 C 
ATOM      7  C   UNL     1      35.140 -19.259 -23.294  0.00  0.00    +0.069 C 
ATOM      8  C   UNL     1      36.321 -17.463 -22.082  0.00  0.00    +0.069 C 
ATOM      9  C   UNL     1      36.006 -19.668 -21.000  0.00  0.00    +0.140 A 
ATOM     10  C   UNL     1      34.961 -20.465 -20.416  0.00  0.00    +0.040 A 
ATOM     11  C   UNL     1      35.490 -21.267 -19.403  0.00  0.00    +0.050 A 
ATOM     12  C   UNL     1      33.578 -20.553 -20.691  0.00  0.00    +0.003 C 
ATOM     13  C   UNL     1      34.695 -22.151 -18.657  0.00  0.00    +0.008 C 
ATOM     14  C   UNL     1      32.778 -21.430 -19.954  0.00  0.00    +0.000 C 
ATOM     15  C   UNL     1      33.331 -22.219 -18.951  0.00  0.00    +0.001 C 
ATOM     16  H   UNL     1      35.650 -16.991 -24.602  0.00  0.00    -0.080 HD
ENDROOT
BRANCH   2  17
ATOM     17  C   UNL     1      33.936 -15.908 -24.552  0.00  0.00    -0.077 C 
BRANCH  17  18
ATOM     18  C   UNL     1      34.206 -14.527 -23.956  0.00  0.00    -0.021 C 
BRANCH  18  19
ATOM     19  C   UNL     1      32.902 -13.842 -23.536  0.00  0.00    +0.020 C 
BRANCH  19  20
ATOM     20  C   UNL     1      33.013 -13.152 -22.180  0.00  0.00    +0.101 C 
BRANCH  20  23
ATOM     21  O   UNL     1      34.186 -10.881 -23.670  0.00  0.00    -0.274 OA
ATOM     22  O   UNL     1      30.751 -11.940 -20.761  0.00  0.00    -0.274 OA
ATOM     23  N   UNL     1      32.571 -11.772 -22.224  0.00  0.00    -0.230 N 
ATOM     24  C   UNL     1      32.271  -9.580 -22.919  0.00  0.00    +0.086 C 
ATOM     25  C   UNL     1      31.500  -9.795 -21.611  0.00  0.00    +0.086 C 
ATOM     26  C   UNL     1      32.989  -8.243 -23.063  0.00  0.00    +0.010 C 
ATOM     27  C   UNL     1      32.162  -9.189 -20.370  0.00  0.00    +0.010 C 
ATOM     28  C   UNL     1      33.677  -7.784 -21.785  0.00  0.00    +0.001 C 
ATOM     29  C   UNL     1      32.704  -7.788 -20.614  0.00  0.00    +0.001 C 
ATOM     30  C   UNL     1      33.171 -10.795 -22.996  0.00  0.00    +0.231 C 
ATOM     31  C   UNL     1      31.511 -11.301 -21.474  0.00  0.00    +0.231 C 
ENDBRANCH  20  23
ENDBRANCH  19  20
ENDBRANCH  18  19
ENDBRANCH  17  18
ENDBRANCH   2  17
TORSDOF 5
ENDMDL
