MODEL 1
REMARK VINA RESULT:     -12.2      0.000      0.000
REMARK  Name = 11610553
REMARK  5 active torsions:
REMARK  status: ('A' for Active; 'I' for Inactive)
REMARK    1  A    between atoms: C_1  and  C_9
REMARK    2  A    between atoms: C_4  and  O_19
REMARK    3  A    between atoms: C_10  and  C_14
REMARK    4  A    between atoms: O_19  and  C_20
REMARK    5  A    between atoms: C_20  and  C_22
REMARK                            x       y       z     vdW  Elec       q    Type
REMARK                         _______ _______ _______ _____ _____    ______ ____
ROOT
ATOM      1  C   UNL     1      33.836 -22.290 -18.300  0.00  0.00    +0.015 C 
ATOM      2  C   UNL     1      33.071 -21.438 -19.097  0.00  0.00    +0.004 C 
ATOM      3  C   UNL     1      35.194 -22.463 -18.567  0.00  0.00    +0.004 C 
ATOM      4  C   UNL     1      35.019 -20.939 -20.423  0.00  0.00    +0.139 C 
ATOM      5  C   UNL     1      33.666 -20.760 -20.162  0.00  0.00    +0.037 C 
ATOM      6  C   UNL     1      35.788 -21.786 -19.632  0.00  0.00    +0.037 C 
ENDROOT
BRANCH   1   9
ATOM      7  N   UNL     1      31.879 -23.226 -17.147  0.00  0.00    -0.236 N 
ATOM      8  N   UNL     1      31.487 -23.893 -16.048  0.00  0.00    -0.180 NA
ATOM      9  C   UNL     1      33.222 -22.991 -17.199  0.00  0.00    +0.067 C 
ATOM     10  C   UNL     1      33.744 -23.542 -16.054  0.00  0.00    +0.036 C 
ATOM     11  C   UNL     1      32.630 -24.083 -15.384  0.00  0.00    +0.119 C 
ATOM     12  H   UNL     1      31.255 -22.935 -17.850  0.00  0.00    +0.174 HD
BRANCH  10  14
ATOM     13  N   UNL     1      37.837 -23.502 -14.981  0.00  0.00    -0.242 NA
ATOM     14  C   UNL     1      35.129 -23.529 -15.692  0.00  0.00    +0.006 C 
ATOM     15  C   UNL     1      35.859 -22.344 -15.751  0.00  0.00    +0.021 C 
ATOM     16  C   UNL     1      35.758 -24.699 -15.275  0.00  0.00    +0.021 C 
ATOM     17  C   UNL     1      37.195 -22.383 -15.390  0.00  0.00    +0.099 C 
ATOM     18  C   UNL     1      37.099 -24.633 -14.935  0.00  0.00    +0.099 C 
ENDBRANCH  10  14
ENDBRANCH   1   9
BRANCH   4  19
ATOM     19  O   UNL     1      35.602 -20.273 -21.469  0.00  0.00    -0.468 OA
BRANCH  19  20
ATOM     20  C   UNL     1      36.340 -19.100 -21.151  0.00  0.00    +0.264 C 
BRANCH  20  22
ATOM     21  N   UNL     1      34.991 -17.134 -20.735  0.00  0.00    -0.406 NA
ATOM     22  C   UNL     1      35.611 -17.902 -21.660  0.00  0.00    +0.152 C 
ATOM     23  C   UNL     1      34.253 -15.696 -22.522  0.00  0.00    +0.026 C 
ATOM     24  C   UNL     1      34.321 -16.045 -21.157  0.00  0.00    +0.113 C 
ATOM     25  C   UNL     1      35.600 -17.641 -23.015  0.00  0.00    +0.031 C 
ATOM     26  C   UNL     1      34.909 -16.519 -23.447  0.00  0.00    +0.005 C 
ATOM     27  C   UNL     1      33.545 -14.552 -22.928  0.00  0.00    +0.002 C 
ATOM     28  C   UNL     1      33.670 -15.226 -20.239  0.00  0.00    +0.085 C 
ATOM     29  C   UNL     1      32.902 -13.751 -21.988  0.00  0.00    -0.004 C 
ATOM     30  C   UNL     1      32.965 -14.089 -20.642  0.00  0.00    -0.019 C 
ENDBRANCH  20  22
ENDBRANCH  19  20
ENDBRANCH   4  19
TORSDOF 5
ENDMDL
MODEL 2
REMARK VINA RESULT:     -12.1      3.058      5.391
REMARK  Name = 11610553
REMARK  5 active torsions:
REMARK  status: ('A' for Active; 'I' for Inactive)
REMARK    1  A    between atoms: C_1  and  C_9
REMARK    2  A    between atoms: C_4  and  O_19
REMARK    3  A    between atoms: C_10  and  C_14
REMARK    4  A    between atoms: O_19  and  C_20
REMARK    5  A    between atoms: C_20  and  C_22
REMARK                            x       y       z     vdW  Elec       q    Type
REMARK                         _______ _______ _______ _____ _____    ______ ____
ROOT
ATOM      1  C   UNL     1      34.783 -24.164 -13.420  0.00  0.00    +0.015 C 
ATOM      2  C   UNL     1      33.457 -24.495 -13.700  0.00  0.00    +0.004 C 
ATOM      3  C   UNL     1      35.550 -23.492 -14.371  0.00  0.00    +0.004 C 
ATOM      4  C   UNL     1      33.671 -23.486 -15.876  0.00  0.00    +0.139 C 
ATOM      5  C   UNL     1      32.900 -24.155 -14.933  0.00  0.00    +0.037 C 
ATOM      6  C   UNL     1      34.993 -23.152 -15.603  0.00  0.00    +0.037 C 
ENDROOT
BRANCH   1   9
ATOM      7  N   UNL     1      34.795 -24.136 -10.962  0.00  0.00    -0.236 N 
ATOM      8  N   UNL     1      35.470 -24.555  -9.879  0.00  0.00    -0.180 NA
ATOM      9  C   UNL     1      35.360 -24.516 -12.145  0.00  0.00    +0.067 C 
ATOM     10  C   UNL     1      36.484 -25.232 -11.811  0.00  0.00    +0.036 C 
ATOM     11  C   UNL     1      36.501 -25.223 -10.403  0.00  0.00    +0.119 C 
ATOM     12  H   UNL     1      33.968 -23.605 -10.909  0.00  0.00    +0.174 HD
BRANCH  10  14
ATOM     13  N   UNL     1      39.161 -26.990 -14.575  0.00  0.00    -0.242 NA
ATOM     14  C   UNL     1      37.389 -25.826 -12.747  0.00  0.00    +0.006 C 
ATOM     15  C   UNL     1      38.721 -25.422 -12.788  0.00  0.00    +0.021 C 
ATOM     16  C   UNL     1      36.947 -26.815 -13.622  0.00  0.00    +0.021 C 
ATOM     17  C   UNL     1      39.558 -26.028 -13.711  0.00  0.00    +0.099 C 
ATOM     18  C   UNL     1      37.862 -27.358 -14.508  0.00  0.00    +0.099 C 
ENDBRANCH  10  14
ENDBRANCH   1   9
BRANCH   4  19
ATOM     19  O   UNL     1      33.123 -23.152 -17.087  0.00  0.00    -0.468 OA
BRANCH  19  20
ATOM     20  C   UNL     1      33.868 -23.501 -18.246  0.00  0.00    +0.264 C 
BRANCH  20  22
ATOM     21  N   UNL     1      35.355 -21.888 -19.268  0.00  0.00    -0.406 NA
ATOM     22  C   UNL     1      34.075 -22.286 -19.087  0.00  0.00    +0.152 C 
ATOM     23  C   UNL     1      34.527 -20.067 -20.612  0.00  0.00    +0.026 C 
ATOM     24  C   UNL     1      35.581 -20.794 -20.020  0.00  0.00    +0.113 C 
ATOM     25  C   UNL     1      32.980 -21.640 -19.624  0.00  0.00    +0.031 C 
ATOM     26  C   UNL     1      33.216 -20.513 -20.398  0.00  0.00    +0.005 C 
ATOM     27  C   UNL     1      34.799 -18.930 -21.391  0.00  0.00    +0.002 C 
ATOM     28  C   UNL     1      36.883 -20.351 -20.234  0.00  0.00    +0.085 C 
ATOM     29  C   UNL     1      36.111 -18.508 -21.588  0.00  0.00    -0.004 C 
ATOM     30  C   UNL     1      37.154 -19.219 -21.008  0.00  0.00    -0.019 C 
ENDBRANCH  20  22
ENDBRANCH  19  20
ENDBRANCH   4  19
TORSDOF 5
ENDMDL
MODEL 3
REMARK VINA RESULT:     -12.0      1.239      1.765
REMARK  Name = 11610553
REMARK  5 active torsions:
REMARK  status: ('A' for Active; 'I' for Inactive)
REMARK    1  A    between atoms: C_1  and  C_9
REMARK    2  A    between atoms: C_4  and  O_19
REMARK    3  A    between atoms: C_10  and  C_14
REMARK    4  A    between atoms: O_19  and  C_20
REMARK    5  A    between atoms: C_20  and  C_22
REMARK                            x       y       z     vdW  Elec       q    Type
REMARK                         _______ _______ _______ _____ _____    ______ ____
ROOT
ATOM      1  C   UNL     1      33.925 -23.154 -16.825  0.00  0.00    +0.015 C 
ATOM      2  C   UNL     1      33.087 -22.856 -17.899  0.00  0.00    +0.004 C 
ATOM      3  C   UNL     1      35.288 -22.870 -16.903  0.00  0.00    +0.004 C 
ATOM      4  C   UNL     1      34.972 -21.994 -19.124  0.00  0.00    +0.139 C 
ATOM      5  C   UNL     1      33.613 -22.274 -19.052  0.00  0.00    +0.037 C 
ATOM      6  C   UNL     1      35.814 -22.289 -18.056  0.00  0.00    +0.037 C 
ENDROOT
BRANCH   1   9
ATOM      7  N   UNL     1      32.038 -23.849 -15.413  0.00  0.00    -0.236 N 
ATOM      8  N   UNL     1      31.716 -24.440 -14.249  0.00  0.00    -0.180 NA
ATOM      9  C   UNL     1      33.381 -23.757 -15.632  0.00  0.00    +0.067 C 
ATOM     10  C   UNL     1      33.980 -24.327 -14.534  0.00  0.00    +0.036 C 
ATOM     11  C   UNL     1      32.907 -24.730 -13.717  0.00  0.00    +0.119 C 
ATOM     12  H   UNL     1      31.366 -23.514 -16.049  0.00  0.00    +0.174 HD
BRANCH  10  14
ATOM     13  N   UNL     1      38.156 -24.687 -13.953  0.00  0.00    -0.242 NA
ATOM     14  C   UNL     1      35.393 -24.449 -14.338  0.00  0.00    +0.006 C 
ATOM     15  C   UNL     1      36.109 -23.417 -13.737  0.00  0.00    +0.021 C 
ATOM     16  C   UNL     1      36.062 -25.600 -14.745  0.00  0.00    +0.021 C 
ATOM     17  C   UNL     1      37.474 -23.583 -13.569  0.00  0.00    +0.099 C 
ATOM     18  C   UNL     1      37.430 -25.668 -14.533  0.00  0.00    +0.099 C 
ENDBRANCH  10  14
ENDBRANCH   1   9
BRANCH   4  19
ATOM     19  O   UNL     1      35.489 -21.423 -20.257  0.00  0.00    -0.468 OA
BRANCH  19  20
ATOM     20  C   UNL     1      36.251 -20.235 -20.086  0.00  0.00    +0.264 C 
BRANCH  20  22
ATOM     21  N   UNL     1      35.429 -18.020 -20.612  0.00  0.00    -0.406 NA
ATOM     22  C   UNL     1      35.823 -19.221 -21.093  0.00  0.00    +0.152 C 
ATOM     23  C   UNL     1      35.023 -17.320 -22.881  0.00  0.00    +0.026 C 
ATOM     24  C   UNL     1      35.034 -17.080 -21.491  0.00  0.00    +0.113 C 
ATOM     25  C   UNL     1      35.846 -19.548 -22.434  0.00  0.00    +0.031 C 
ATOM     26  C   UNL     1      35.438 -18.578 -23.338  0.00  0.00    +0.005 C 
ATOM     27  C   UNL     1      34.604 -16.316 -23.771  0.00  0.00    +0.002 C 
ATOM     28  C   UNL     1      34.622 -15.830 -21.039  0.00  0.00    +0.085 C 
ATOM     29  C   UNL     1      34.197 -15.074 -23.291  0.00  0.00    -0.004 C 
ATOM     30  C   UNL     1      34.206 -14.832 -21.924  0.00  0.00    -0.019 C 
ENDBRANCH  20  22
ENDBRANCH  19  20
ENDBRANCH   4  19
TORSDOF 5
ENDMDL
MODEL 4
REMARK VINA RESULT:     -12.0      1.610      2.541
REMARK  Name = 11610553
REMARK  5 active torsions:
REMARK  status: ('A' for Active; 'I' for Inactive)
REMARK    1  A    between atoms: C_1  and  C_9
REMARK    2  A    between atoms: C_4  and  O_19
REMARK    3  A    between atoms: C_10  and  C_14
REMARK    4  A    between atoms: O_19  and  C_20
REMARK    5  A    between atoms: C_20  and  C_22
REMARK                            x       y       z     vdW  Elec       q    Type
REMARK                         _______ _______ _______ _____ _____    ______ ____
ROOT
ATOM      1  C   UNL     1      34.487 -23.214 -16.197  0.00  0.00    +0.015 C 
ATOM      2  C   UNL     1      33.609 -23.274 -17.279  0.00  0.00    +0.004 C 
ATOM      3  C   UNL     1      35.758 -22.662 -16.359  0.00  0.00    +0.004 C 
ATOM      4  C   UNL     1      35.270 -22.233 -18.678  0.00  0.00    +0.139 C 
ATOM      5  C   UNL     1      34.002 -22.781 -18.524  0.00  0.00    +0.037 C 
ATOM      6  C   UNL     1      36.151 -22.170 -17.603  0.00  0.00    +0.037 C 
ENDROOT
BRANCH   1   9
ATOM      7  N   UNL     1      32.914 -23.344 -14.314  0.00  0.00    -0.236 N 
ATOM      8  N   UNL     1      32.701 -23.921 -13.120  0.00  0.00    -0.180 NA
ATOM      9  C   UNL     1      34.081 -23.724 -14.910  0.00  0.00    +0.067 C 
ATOM     10  C   UNL     1      34.673 -24.612 -14.044  0.00  0.00    +0.036 C 
ATOM     11  C   UNL     1      33.779 -24.694 -12.960  0.00  0.00    +0.119 C 
ATOM     12  H   UNL     1      32.285 -22.707 -14.723  0.00  0.00    +0.174 HD
BRANCH  10  14
ATOM     13  N   UNL     1      38.376 -26.550 -14.699  0.00  0.00    -0.242 NA
ATOM     14  C   UNL     1      35.926 -25.267 -14.266  0.00  0.00    +0.006 C 
ATOM     15  C   UNL     1      37.116 -24.657 -13.877  0.00  0.00    +0.021 C 
ATOM     16  C   UNL     1      35.965 -26.521 -14.871  0.00  0.00    +0.021 C 
ATOM     17  C   UNL     1      38.302 -25.332 -14.114  0.00  0.00    +0.099 C 
ATOM     18  C   UNL     1      37.203 -27.113 -15.064  0.00  0.00    +0.099 C 
ENDBRANCH  10  14
ENDBRANCH   1   9
BRANCH   4  19
ATOM     19  O   UNL     1      35.656 -21.749 -19.900  0.00  0.00    -0.468 OA
BRANCH  19  20
ATOM     20  C   UNL     1      36.416 -20.547 -19.903  0.00  0.00    +0.264 C 
BRANCH  20  22
ATOM     21  N   UNL     1      35.664 -18.382 -20.681  0.00  0.00    -0.406 NA
ATOM     22  C   UNL     1      35.942 -19.664 -21.009  0.00  0.00    +0.152 C 
ATOM     23  C   UNL     1      35.067 -17.993 -22.983  0.00  0.00    +0.026 C 
ATOM     24  C   UNL     1      35.232 -17.555 -21.652  0.00  0.00    +0.113 C 
ATOM     25  C   UNL     1      35.811 -20.183 -22.281  0.00  0.00    +0.031 C 
ATOM     26  C   UNL     1      35.366 -19.329 -23.280  0.00  0.00    +0.005 C 
ATOM     27  C   UNL     1      34.615 -17.103 -23.972  0.00  0.00    +0.002 C 
ATOM     28  C   UNL     1      34.935 -16.227 -21.359  0.00  0.00    +0.085 C 
ATOM     29  C   UNL     1      34.324 -15.781 -23.650  0.00  0.00    -0.004 C 
ATOM     30  C   UNL     1      34.485 -15.343 -22.342  0.00  0.00    -0.019 C 
ENDBRANCH  20  22
ENDBRANCH  19  20
ENDBRANCH   4  19
TORSDOF 5
ENDMDL
MODEL 5
REMARK VINA RESULT:     -11.9      1.482      3.305
REMARK  Name = 11610553
REMARK  5 active torsions:
REMARK  status: ('A' for Active; 'I' for Inactive)
REMARK    1  A    between atoms: C_1  and  C_9
REMARK    2  A    between atoms: C_4  and  O_19
REMARK    3  A    between atoms: C_10  and  C_14
REMARK    4  A    between atoms: O_19  and  C_20
REMARK    5  A    between atoms: C_20  and  C_22
REMARK                            x       y       z     vdW  Elec       q    Type
REMARK                         _______ _______ _______ _____ _____    ______ ____
ROOT
ATOM      1  C   UNL     1      34.611 -23.150 -16.979  0.00  0.00    +0.015 C 
ATOM      2  C   UNL     1      35.767 -22.542 -17.468  0.00  0.00    +0.004 C 
ATOM      3  C   UNL     1      33.396 -22.971 -17.640  0.00  0.00    +0.004 C 
ATOM      4  C   UNL     1      34.492 -21.580 -19.271  0.00  0.00    +0.139 C 
ATOM      5  C   UNL     1      35.707 -21.754 -18.617  0.00  0.00    +0.037 C 
ATOM      6  C   UNL     1      33.336 -22.184 -18.789  0.00  0.00    +0.037 C 
ENDROOT
BRANCH   1   9
ATOM      7  N   UNL     1      35.830 -24.554 -15.373  0.00  0.00    -0.236 N 
ATOM      8  N   UNL     1      35.698 -25.274 -14.246  0.00  0.00    -0.180 NA
ATOM      9  C   UNL     1      34.672 -23.964 -15.790  0.00  0.00    +0.067 C 
ATOM     10  C   UNL     1      33.716 -24.325 -14.871  0.00  0.00    +0.036 C 
ATOM     11  C   UNL     1      34.404 -25.130 -13.945  0.00  0.00    +0.119 C 
ATOM     12  H   UNL     1      36.684 -24.459 -15.853  0.00  0.00    +0.174 HD
BRANCH  10  14
ATOM     13  N   UNL     1      29.654 -23.149 -15.005  0.00  0.00    -0.242 NA
ATOM     14  C   UNL     1      32.341 -23.928 -14.916  0.00  0.00    +0.006 C 
ATOM     15  C   UNL     1      31.912 -22.805 -14.212  0.00  0.00    +0.021 C 
ATOM     16  C   UNL     1      31.423 -24.659 -15.665  0.00  0.00    +0.021 C 
ATOM     17  C   UNL     1      30.572 -22.462 -14.288  0.00  0.00    +0.099 C 
ATOM     18  C   UNL     1      30.104 -24.233 -15.676  0.00  0.00    +0.099 C 
ENDBRANCH  10  14
ENDBRANCH   1   9
BRANCH   4  19
ATOM     19  O   UNL     1      34.434 -20.806 -20.400  0.00  0.00    -0.468 OA
BRANCH  19  20
ATOM     20  C   UNL     1      35.655 -20.234 -20.849  0.00  0.00    +0.264 C 
BRANCH  20  22
ATOM     21  N   UNL     1      35.042 -17.895 -20.743  0.00  0.00    -0.406 NA
ATOM     22  C   UNL     1      35.373 -18.939 -21.536  0.00  0.00    +0.152 C 
ATOM     23  C   UNL     1      34.840 -16.541 -22.727  0.00  0.00    +0.026 C 
ATOM     24  C   UNL     1      34.779 -16.710 -21.327  0.00  0.00    +0.113 C 
ATOM     25  C   UNL     1      35.458 -18.870 -22.912  0.00  0.00    +0.031 C 
ATOM     26  C   UNL     1      35.186 -17.649 -23.511  0.00  0.00    +0.005 C 
ATOM     27  C   UNL     1      34.559 -15.291 -23.303  0.00  0.00    +0.002 C 
ATOM     28  C   UNL     1      34.435 -15.608 -20.549  0.00  0.00    +0.085 C 
ATOM     29  C   UNL     1      34.218 -14.206 -22.501  0.00  0.00    -0.004 C 
ATOM     30  C   UNL     1      34.155 -14.365 -21.122  0.00  0.00    -0.019 C 
ENDBRANCH  20  22
ENDBRANCH  19  20
ENDBRANCH   4  19
TORSDOF 5
ENDMDL
MODEL 6
REMARK VINA RESULT:     -11.9      7.788     15.071
REMARK  Name = 11610553
REMARK  5 active torsions:
REMARK  status: ('A' for Active; 'I' for Inactive)
REMARK    1  A    between atoms: C_1  and  C_9
REMARK    2  A    between atoms: C_4  and  O_19
REMARK    3  A    between atoms: C_10  and  C_14
REMARK    4  A    between atoms: O_19  and  C_20
REMARK    5  A    between atoms: C_20  and  C_22
REMARK                            x       y       z     vdW  Elec       q    Type
REMARK                         _______ _______ _______ _____ _____    ______ ____
ROOT
ATOM      1  C   UNL     1      31.270  -6.307 -22.084  0.00  0.00    +0.015 C 
ATOM      2  C   UNL     1      30.833  -7.364 -22.882  0.00  0.00    +0.004 C 
ATOM      3  C   UNL     1      32.006  -6.564 -20.928  0.00  0.00    +0.004 C 
ATOM      4  C   UNL     1      31.866  -8.927 -21.369  0.00  0.00    +0.139 C 
ATOM      5  C   UNL     1      31.132  -8.678 -22.523  0.00  0.00    +0.037 C 
ATOM      6  C   UNL     1      32.305  -7.878 -20.568  0.00  0.00    +0.037 C 
ENDROOT
BRANCH   1   9
ATOM      7  N   UNL     1      30.055  -4.195 -21.765  0.00  0.00    -0.236 N 
ATOM      8  N   UNL     1      29.896  -2.953 -22.254  0.00  0.00    -0.180 NA
ATOM      9  C   UNL     1      30.960  -4.948 -22.455  0.00  0.00    +0.067 C 
ATOM     10  C   UNL     1      31.425  -4.142 -23.466  0.00  0.00    +0.036 C 
ATOM     11  C   UNL     1      30.735  -2.927 -23.293  0.00  0.00    +0.119 C 
ATOM     12  H   UNL     1      29.565  -4.531 -20.980  0.00  0.00    +0.174 HD
BRANCH  10  14
ATOM     13  N   UNL     1      34.303  -5.275 -26.353  0.00  0.00    -0.242 NA
ATOM     14  C   UNL     1      32.398  -4.526 -24.443  0.00  0.00    +0.006 C 
ATOM     15  C   UNL     1      32.450  -3.879 -25.675  0.00  0.00    +0.021 C 
ATOM     16  C   UNL     1      33.302  -5.549 -24.169  0.00  0.00    +0.021 C 
ATOM     17  C   UNL     1      33.410  -4.286 -26.586  0.00  0.00    +0.099 C 
ATOM     18  C   UNL     1      34.225  -5.883 -25.148  0.00  0.00    +0.099 C 
ENDBRANCH  10  14
ENDBRANCH   1   9
BRANCH   4  19
ATOM     19  O   UNL     1      32.160 -10.218 -21.016  0.00  0.00    -0.468 OA
BRANCH  19  20
ATOM     20  C   UNL     1      31.488 -11.246 -21.731  0.00  0.00    +0.264 C 
BRANCH  20  22
ATOM     21  N   UNL     1      32.947 -13.021 -22.492  0.00  0.00    -0.406 NA
ATOM     22  C   UNL     1      32.174 -12.549 -21.488  0.00  0.00    +0.152 C 
ATOM     23  C   UNL     1      33.456 -14.930 -21.113  0.00  0.00    +0.026 C 
ATOM     24  C   UNL     1      33.581 -14.195 -22.310  0.00  0.00    +0.113 C 
ATOM     25  C   UNL     1      31.990 -13.197 -20.283  0.00  0.00    +0.031 C 
ATOM     26  C   UNL     1      32.644 -14.406 -20.099  0.00  0.00    +0.005 C 
ATOM     27  C   UNL     1      34.131 -16.153 -20.957  0.00  0.00    +0.002 C 
ATOM     28  C   UNL     1      34.388 -14.716 -23.317  0.00  0.00    +0.085 C 
ATOM     29  C   UNL     1      34.932 -16.651 -21.981  0.00  0.00    -0.004 C 
ATOM     30  C   UNL     1      35.060 -15.932 -23.162  0.00  0.00    -0.019 C 
ENDBRANCH  20  22
ENDBRANCH  19  20
ENDBRANCH   4  19
TORSDOF 5
ENDMDL
MODEL 7
REMARK VINA RESULT:     -11.4      1.816      9.143
REMARK  Name = 11610553
REMARK  5 active torsions:
REMARK  status: ('A' for Active; 'I' for Inactive)
REMARK    1  A    between atoms: C_1  and  C_9
REMARK    2  A    between atoms: C_4  and  O_19
REMARK    3  A    between atoms: C_10  and  C_14
REMARK    4  A    between atoms: O_19  and  C_20
REMARK    5  A    between atoms: C_20  and  C_22
REMARK                            x       y       z     vdW  Elec       q    Type
REMARK                         _______ _______ _______ _____ _____    ______ ____
ROOT
ATOM      1  C   UNL     1      35.203 -18.075 -22.600  0.00  0.00    +0.015 C 
ATOM      2  C   UNL     1      34.263 -18.909 -21.997  0.00  0.00    +0.004 C 
ATOM      3  C   UNL     1      36.538 -18.122 -22.198  0.00  0.00    +0.004 C 
ATOM      4  C   UNL     1      35.990 -19.833 -20.595  0.00  0.00    +0.139 C 
ATOM      5  C   UNL     1      34.658 -19.791 -20.990  0.00  0.00    +0.037 C 
ATOM      6  C   UNL     1      36.933 -19.003 -21.193  0.00  0.00    +0.037 C 
ENDROOT
BRANCH   1   9
ATOM      7  N   UNL     1      34.981 -17.439 -24.963  0.00  0.00    -0.236 N 
ATOM      8  N   UNL     1      34.538 -16.475 -25.788  0.00  0.00    -0.180 NA
ATOM      9  C   UNL     1      34.795 -17.163 -23.640  0.00  0.00    +0.067 C 
ATOM     10  C   UNL     1      34.188 -15.930 -23.597  0.00  0.00    +0.036 C 
ATOM     11  C   UNL     1      34.055 -15.556 -24.948  0.00  0.00    +0.119 C 
ATOM     12  H   UNL     1      35.401 -18.270 -25.284  0.00  0.00    +0.174 HD
BRANCH  10  14
ATOM     13  N   UNL     1      33.055 -13.902 -20.061  0.00  0.00    -0.242 NA
ATOM     14  C   UNL     1      33.805 -15.243 -22.401  0.00  0.00    +0.006 C 
ATOM     15  C   UNL     1      32.744 -14.342 -22.418  0.00  0.00    +0.021 C 
ATOM     16  C   UNL     1      34.490 -15.472 -21.210  0.00  0.00    +0.021 C 
ATOM     17  C   UNL     1      32.412 -13.703 -21.234  0.00  0.00    +0.099 C 
ATOM     18  C   UNL     1      34.080 -14.782 -20.080  0.00  0.00    +0.099 C 
ENDBRANCH  10  14
ENDBRANCH   1   9
BRANCH   4  19
ATOM     19  O   UNL     1      36.378 -20.699 -19.607  0.00  0.00    -0.468 OA
BRANCH  19  20
ATOM     20  C   UNL     1      35.836 -22.012 -19.656  0.00  0.00    +0.264 C 
BRANCH  20  22
ATOM     21  N   UNL     1      34.139 -22.763 -18.103  0.00  0.00    -0.406 NA
ATOM     22  C   UNL     1      35.439 -22.437 -18.282  0.00  0.00    +0.152 C 
ATOM     23  C   UNL     1      34.642 -23.219 -15.790  0.00  0.00    +0.026 C 
ATOM     24  C   UNL     1      33.743 -23.150 -16.875  0.00  0.00    +0.113 C 
ATOM     25  C   UNL     1      36.391 -22.474 -17.283  0.00  0.00    +0.031 C 
ATOM     26  C   UNL     1      35.980 -22.872 -16.019  0.00  0.00    +0.005 C 
ATOM     27  C   UNL     1      34.195 -23.627 -14.522  0.00  0.00    +0.002 C 
ATOM     28  C   UNL     1      32.414 -23.496 -16.646  0.00  0.00    +0.085 C 
ATOM     29  C   UNL     1      32.860 -23.967 -14.322  0.00  0.00    -0.004 C 
ATOM     30  C   UNL     1      31.969 -23.901 -15.385  0.00  0.00    -0.019 C 
ENDBRANCH  20  22
ENDBRANCH  19  20
ENDBRANCH   4  19
TORSDOF 5
ENDMDL
MODEL 8
REMARK VINA RESULT:     -11.3      3.139     10.372
REMARK  Name = 11610553
REMARK  5 active torsions:
REMARK  status: ('A' for Active; 'I' for Inactive)
REMARK    1  A    between atoms: C_1  and  C_9
REMARK    2  A    between atoms: C_4  and  O_19
REMARK    3  A    between atoms: C_10  and  C_14
REMARK    4  A    between atoms: O_19  and  C_20
REMARK    5  A    between atoms: C_20  and  C_22
REMARK                            x       y       z     vdW  Elec       q    Type
REMARK                         _______ _______ _______ _____ _____    ______ ____
ROOT
ATOM      1  C   UNL     1      33.231 -13.857 -21.999  0.00  0.00    +0.015 C 
ATOM      2  C   UNL     1      33.451 -14.415 -23.258  0.00  0.00    +0.004 C 
ATOM      3  C   UNL     1      33.816 -14.429 -20.870  0.00  0.00    +0.004 C 
ATOM      4  C   UNL     1      34.835 -16.113 -22.257  0.00  0.00    +0.139 C 
ATOM      5  C   UNL     1      34.255 -15.548 -23.387  0.00  0.00    +0.037 C 
ATOM      6  C   UNL     1      34.620 -15.561 -20.999  0.00  0.00    +0.037 C 
ENDROOT
BRANCH   1   9
ATOM      7  N   UNL     1      31.287 -12.672 -21.074  0.00  0.00    -0.236 N 
ATOM      8  N   UNL     1      30.636 -11.496 -21.073  0.00  0.00    -0.180 NA
ATOM      9  C   UNL     1      32.398 -12.686 -21.866  0.00  0.00    +0.067 C 
ATOM     10  C   UNL     1      32.480 -11.431 -22.421  0.00  0.00    +0.036 C 
ATOM     11  C   UNL     1      31.369 -10.743 -21.897  0.00  0.00    +0.119 C 
ATOM     12  H   UNL     1      30.990 -13.451 -20.552  0.00  0.00    +0.174 HD
BRANCH  10  14
ATOM     13  N   UNL     1      35.498 -10.147 -25.092  0.00  0.00    -0.242 NA
ATOM     14  C   UNL     1      33.500 -10.996 -23.325  0.00  0.00    +0.006 C 
ATOM     15  C   UNL     1      34.102  -9.752 -23.158  0.00  0.00    +0.021 C 
ATOM     16  C   UNL     1      33.901 -11.815 -24.378  0.00  0.00    +0.021 C 
ATOM     17  C   UNL     1      35.085  -9.377 -24.059  0.00  0.00    +0.099 C 
ATOM     18  C   UNL     1      34.893 -11.348 -25.225  0.00  0.00    +0.099 C 
ENDBRANCH  10  14
ENDBRANCH   1   9
BRANCH   4  19
ATOM     19  O   UNL     1      35.625 -17.225 -22.384  0.00  0.00    -0.468 OA
BRANCH  19  20
ATOM     20  C   UNL     1      34.964 -18.454 -22.657  0.00  0.00    +0.264 C 
BRANCH  20  22
ATOM     21  N   UNL     1      34.164 -20.067 -21.040  0.00  0.00    -0.406 NA
ATOM     22  C   UNL     1      35.235 -19.419 -21.551  0.00  0.00    +0.152 C 
ATOM     23  C   UNL     1      35.658 -21.197 -19.523  0.00  0.00    +0.026 C 
ATOM     24  C   UNL     1      34.369 -20.945 -20.040  0.00  0.00    +0.113 C 
ATOM     25  C   UNL     1      36.531 -19.599 -21.112  0.00  0.00    +0.031 C 
ATOM     26  C   UNL     1      36.740 -20.503 -20.081  0.00  0.00    +0.005 C 
ATOM     27  C   UNL     1      35.836 -22.120 -18.478  0.00  0.00    +0.002 C 
ATOM     28  C   UNL     1      33.295 -21.635 -19.485  0.00  0.00    +0.085 C 
ATOM     29  C   UNL     1      34.744 -22.796 -17.942  0.00  0.00    -0.004 C 
ATOM     30  C   UNL     1      33.472 -22.553 -18.446  0.00  0.00    -0.019 C 
ENDBRANCH  20  22
ENDBRANCH  19  20
ENDBRANCH   4  19
TORSDOF 5
ENDMDL
MODEL 9
REMARK VINA RESULT:     -11.3      1.268      3.446
REMARK  Name = 11610553
REMARK  5 active torsions:
REMARK  status: ('A' for Active; 'I' for Inactive)
REMARK    1  A    between atoms: C_1  and  C_9
REMARK    2  A    between atoms: C_4  and  O_19
REMARK    3  A    between atoms: C_10  and  C_14
REMARK    4  A    between atoms: O_19  and  C_20
REMARK    5  A    between atoms: C_20  and  C_22
REMARK                            x       y       z     vdW  Elec       q    Type
REMARK                         _______ _______ _______ _____ _____    ______ ____
ROOT
ATOM      1  C   UNL     1      35.556 -22.528 -17.574  0.00  0.00    +0.015 C 
ATOM      2  C   UNL     1      36.611 -21.847 -18.180  0.00  0.00    +0.004 C 
ATOM      3  C   UNL     1      34.280 -22.480 -18.136  0.00  0.00    +0.004 C 
ATOM      4  C   UNL     1      35.117 -21.072 -19.902  0.00  0.00    +0.139 C 
ATOM      5  C   UNL     1      36.391 -21.117 -19.348  0.00  0.00    +0.037 C 
ATOM      6  C   UNL     1      34.059 -21.749 -19.303  0.00  0.00    +0.037 C 
ENDROOT
BRANCH   1   9
ATOM      7  N   UNL     1      37.032 -23.675 -15.980  0.00  0.00    -0.236 N 
ATOM      8  N   UNL     1      37.052 -24.369 -14.829  0.00  0.00    -0.180 NA
ATOM      9  C   UNL     1      35.784 -23.283 -16.366  0.00  0.00    +0.067 C 
ATOM     10  C   UNL     1      34.927 -23.755 -15.401  0.00  0.00    +0.036 C 
ATOM     11  C   UNL     1      35.764 -24.414 -14.480  0.00  0.00    +0.119 C 
ATOM     12  H   UNL     1      37.844 -23.467 -16.496  0.00  0.00    +0.174 HD
BRANCH  10  14
ATOM     13  N   UNL     1      30.730 -23.223 -15.402  0.00  0.00    -0.242 NA
ATOM     14  C   UNL     1      33.507 -23.574 -15.401  0.00  0.00    +0.006 C 
ATOM     15  C   UNL     1      32.757 -23.908 -16.526  0.00  0.00    +0.021 C 
ATOM     16  C   UNL     1      32.863 -23.065 -14.276  0.00  0.00    +0.021 C 
ATOM     17  C   UNL     1      31.386 -23.715 -16.477  0.00  0.00    +0.099 C 
ATOM     18  C   UNL     1      31.487 -22.909 -14.328  0.00  0.00    +0.099 C 
ENDBRANCH  10  14
ENDBRANCH   1   9
BRANCH   4  19
ATOM     19  O   UNL     1      34.900 -20.354 -21.048  0.00  0.00    -0.468 OA
BRANCH  19  20
ATOM     20  C   UNL     1      35.946 -19.491 -21.471  0.00  0.00    +0.264 C 
BRANCH  20  22
ATOM     21  N   UNL     1      35.176 -18.016 -23.229  0.00  0.00    -0.406 NA
ATOM     22  C   UNL     1      35.368 -18.184 -21.901  0.00  0.00    +0.152 C 
ATOM     23  C   UNL     1      34.316 -15.814 -22.758  0.00  0.00    +0.026 C 
ATOM     24  C   UNL     1      34.658 -16.848 -23.655  0.00  0.00    +0.113 C 
ATOM     25  C   UNL     1      35.065 -17.231 -20.949  0.00  0.00    +0.031 C 
ATOM     26  C   UNL     1      34.531 -16.030 -21.390  0.00  0.00    +0.005 C 
ATOM     27  C   UNL     1      33.777 -14.608 -23.237  0.00  0.00    +0.002 C 
ATOM     28  C   UNL     1      34.443 -16.633 -25.014  0.00  0.00    +0.085 C 
ATOM     29  C   UNL     1      33.573 -14.420 -24.601  0.00  0.00    -0.004 C 
ATOM     30  C   UNL     1      33.907 -15.434 -25.490  0.00  0.00    -0.019 C 
ENDBRANCH  20  22
ENDBRANCH  19  20
ENDBRANCH   4  19
TORSDOF 5
ENDMDL
