MODEL 1
REMARK VINA RESULT:     -11.7      0.000      0.000
REMARK  Name = 5289110
REMARK  6 active torsions:
REMARK  status: ('A' for Active; 'I' for Inactive)
REMARK    1  A    between atoms: C_3  and  C_9
REMARK    2  A    between atoms: C_4  and  C_22
REMARK    3  A    between atoms: N_8  and  C_11
REMARK    4  A    between atoms: C_11  and  C_13
REMARK    5  A    between atoms: N_21  and  C_24
REMARK    6  A    between atoms: C_24  and  C_26
REMARK                            x       y       z     vdW  Elec       q    Type
REMARK                         _______ _______ _______ _____ _____    ______ ____
ROOT
ATOM      1  N   UNL     1      33.048 -13.458 -23.760  0.00  0.00    -0.244 NA
ATOM      2  N   UNL     1      34.132 -15.345 -24.795  0.00  0.00    -0.244 NA
ATOM      3  C   UNL     1      33.208 -14.067 -22.568  0.00  0.00    +0.115 C 
ATOM      4  C   UNL     1      34.244 -15.867 -23.571  0.00  0.00    +0.115 C 
ATOM      5  C   UNL     1      33.812 -15.299 -22.410  0.00  0.00    +0.100 C 
ATOM      6  C   UNL     1      33.525 -14.144 -24.816  0.00  0.00    +0.250 C 
ENDROOT
BRANCH   3   9
ATOM      7  O   UNL     1      32.891 -13.775 -20.262  0.00  0.00    -0.269 OA
ATOM      8  N   UNL     1      32.016 -12.149 -21.664  0.00  0.00    -0.296 N 
ATOM      9  C   UNL     1      32.700 -13.345 -21.414  0.00  0.00    +0.260 C 
ATOM     10  H   UNL     1      31.900 -11.866 -22.599  0.00  0.00    +0.150 HD
BRANCH   8  11
ATOM     11  C   UNL     1      31.472 -11.306 -20.623  0.00  0.00    +0.117 C 
BRANCH  11  13
ATOM     12  F   UNL     1      32.644  -5.875 -21.483  0.00  0.00    -0.205 F 
ATOM     13  C   UNL     1      31.783  -9.855 -20.856  0.00  0.00    -0.003 C 
ATOM     14  C   UNL     1      31.516  -9.284 -22.094  0.00  0.00    -0.005 C 
ATOM     15  C   UNL     1      31.805  -7.936 -22.310  0.00  0.00    +0.005 C 
ATOM     16  C   UNL     1      32.338  -9.098 -19.830  0.00  0.00    -0.000 C 
ATOM     17  C   UNL     1      32.362  -7.170 -21.285  0.00  0.00    +0.136 C 
ATOM     18  C   UNL     1      32.627  -7.751 -20.045  0.00  0.00    +0.029 C 
ATOM     19  C   UNL     1      31.518  -7.318 -23.636  0.00  0.00    +0.033 C 
ENDBRANCH  11  13
ENDBRANCH   8  11
ENDBRANCH   3   9
BRANCH   4  22
ATOM     20  O   UNL     1      34.824 -17.943 -24.497  0.00  0.00    -0.269 OA
ATOM     21  N   UNL     1      35.613 -17.484 -22.365  0.00  0.00    -0.296 N 
ATOM     22  C   UNL     1      34.909 -17.195 -23.525  0.00  0.00    +0.260 C 
ATOM     23  H   UNL     1      35.623 -16.819 -21.639  0.00  0.00    +0.150 HD
BRANCH  21  24
ATOM     24  C   UNL     1      36.331 -18.720 -22.180  0.00  0.00    +0.117 C 
BRANCH  24  26
ATOM     25  F   UNL     1      33.692 -22.204 -18.644  0.00  0.00    -0.205 F 
ATOM     26  C   UNL     1      35.633 -19.645 -21.240  0.00  0.00    -0.003 C 
ATOM     27  C   UNL     1      36.371 -20.402 -20.330  0.00  0.00    -0.005 C 
ATOM     28  C   UNL     1      35.718 -21.268 -19.452  0.00  0.00    +0.005 C 
ATOM     29  C   UNL     1      34.243 -19.753 -21.271  0.00  0.00    -0.000 C 
ATOM     30  C   UNL     1      34.328 -21.375 -19.484  0.00  0.00    +0.136 C 
ATOM     31  C   UNL     1      33.590 -20.618 -20.394  0.00  0.00    +0.029 C 
ATOM     32  C   UNL     1      36.510 -22.075 -18.480  0.00  0.00    +0.033 C 
ENDBRANCH  24  26
ENDBRANCH  21  24
ENDBRANCH   4  22
TORSDOF 6
ENDMDL
MODEL 2
REMARK VINA RESULT:     -11.7      0.195     10.592
REMARK  Name = 5289110
REMARK  6 active torsions:
REMARK  status: ('A' for Active; 'I' for Inactive)
REMARK    1  A    between atoms: C_3  and  C_9
REMARK    2  A    between atoms: C_4  and  C_22
REMARK    3  A    between atoms: N_8  and  C_11
REMARK    4  A    between atoms: C_11  and  C_13
REMARK    5  A    between atoms: N_21  and  C_24
REMARK    6  A    between atoms: C_24  and  C_26
REMARK                            x       y       z     vdW  Elec       q    Type
REMARK                         _______ _______ _______ _____ _____    ______ ____
ROOT
ATOM      1  N   UNL     1      34.080 -15.412 -24.815  0.00  0.00    -0.244 NA
ATOM      2  N   UNL     1      32.953 -13.540 -23.798  0.00  0.00    -0.244 NA
ATOM      3  C   UNL     1      34.243 -15.936 -23.583  0.00  0.00    +0.115 C 
ATOM      4  C   UNL     1      33.163 -14.139 -22.622  0.00  0.00    +0.115 C 
ATOM      5  C   UNL     1      33.795 -15.331 -22.426  0.00  0.00    +0.100 C 
ATOM      6  C   UNL     1      33.437 -14.229 -24.848  0.00  0.00    +0.250 C 
ENDROOT
BRANCH   3   9
ATOM      7  O   UNL     1      34.921 -17.986 -24.498  0.00  0.00    -0.269 OA
ATOM      8  N   UNL     1      35.623 -17.508 -22.341  0.00  0.00    -0.296 N 
ATOM      9  C   UNL     1      34.935 -17.212 -23.524  0.00  0.00    +0.260 C 
ATOM     10  H   UNL     1      35.593 -16.851 -21.609  0.00  0.00    +0.150 HD
BRANCH   8  11
ATOM     11  C   UNL     1      36.377 -18.724 -22.136  0.00  0.00    +0.117 C 
BRANCH  11  13
ATOM     12  F   UNL     1      33.753 -22.249 -18.629  0.00  0.00    -0.205 F 
ATOM     13  C   UNL     1      35.679 -19.666 -21.197  0.00  0.00    -0.003 C 
ATOM     14  C   UNL     1      36.422 -20.410 -20.290  0.00  0.00    -0.005 C 
ATOM     15  C   UNL     1      35.774 -21.285 -19.418  0.00  0.00    +0.005 C 
ATOM     16  C   UNL     1      34.294 -19.785 -21.247  0.00  0.00    -0.000 C 
ATOM     17  C   UNL     1      34.385 -21.410 -19.461  0.00  0.00    +0.136 C 
ATOM     18  C   UNL     1      33.646 -20.659 -20.375  0.00  0.00    +0.029 C 
ATOM     19  C   UNL     1      36.568 -22.085 -18.441  0.00  0.00    +0.033 C 
ENDBRANCH  11  13
ENDBRANCH   8  11
ENDBRANCH   3   9
BRANCH   4  22
ATOM     20  O   UNL     1      33.018 -13.705 -20.322  0.00  0.00    -0.269 OA
ATOM     21  N   UNL     1      31.755 -12.361 -21.728  0.00  0.00    -0.296 N 
ATOM     22  C   UNL     1      32.639 -13.393 -21.449  0.00  0.00    +0.260 C 
ATOM     23  H   UNL     1      31.511 -12.188 -22.666  0.00  0.00    +0.150 HD
BRANCH  21  24
ATOM     24  C   UNL     1      31.180 -11.532 -20.700  0.00  0.00    +0.117 C 
BRANCH  24  26
ATOM     25  F   UNL     1      32.587  -6.119 -21.274  0.00  0.00    -0.205 F 
ATOM     26  C   UNL     1      31.553 -10.095 -20.855  0.00  0.00    -0.003 C 
ATOM     27  C   UNL     1      31.380  -9.459 -22.084  0.00  0.00    -0.005 C 
ATOM     28  C   UNL     1      31.729  -8.116 -22.229  0.00  0.00    +0.005 C 
ATOM     29  C   UNL     1      32.072  -9.389 -19.771  0.00  0.00    -0.000 C 
ATOM     30  C   UNL     1      32.249  -7.410 -21.144  0.00  0.00    +0.136 C 
ATOM     31  C   UNL     1      32.421  -8.046 -19.915  0.00  0.00    +0.029 C 
ATOM     32  C   UNL     1      31.543  -7.438 -23.544  0.00  0.00    +0.033 C 
ENDBRANCH  24  26
ENDBRANCH  21  24
ENDBRANCH   4  22
TORSDOF 6
ENDMDL
MODEL 3
REMARK VINA RESULT:     -11.6      8.167     11.970
REMARK  Name = 5289110
REMARK  6 active torsions:
REMARK  status: ('A' for Active; 'I' for Inactive)
REMARK    1  A    between atoms: C_3  and  C_9
REMARK    2  A    between atoms: C_4  and  C_22
REMARK    3  A    between atoms: N_8  and  C_11
REMARK    4  A    between atoms: C_11  and  C_13
REMARK    5  A    between atoms: N_21  and  C_24
REMARK    6  A    between atoms: C_24  and  C_26
REMARK                            x       y       z     vdW  Elec       q    Type
REMARK                         _______ _______ _______ _____ _____    ______ ____
ROOT
ATOM      1  N   UNL     1      38.017 -23.890 -14.577  0.00  0.00    -0.244 NA
ATOM      2  N   UNL     1      36.556 -24.866 -12.928  0.00  0.00    -0.244 NA
ATOM      3  C   UNL     1      36.959 -23.205 -15.055  0.00  0.00    +0.115 C 
ATOM      4  C   UNL     1      35.571 -24.146 -13.471  0.00  0.00    +0.115 C 
ATOM      5  C   UNL     1      35.685 -23.295 -14.530  0.00  0.00    +0.100 C 
ATOM      6  C   UNL     1      37.748 -24.691 -13.528  0.00  0.00    +0.250 C 
ENDROOT
BRANCH   3   9
ATOM      7  O   UNL     1      37.871 -21.281 -16.038  0.00  0.00    -0.269 OA
ATOM      8  N   UNL     1      36.748 -22.749 -17.436  0.00  0.00    -0.296 N 
ATOM      9  C   UNL     1      37.227 -22.334 -16.187  0.00  0.00    +0.260 C 
ATOM     10  H   UNL     1      36.245 -23.594 -17.484  0.00  0.00    +0.150 HD
BRANCH   8  11
ATOM     11  C   UNL     1      36.952 -22.007 -18.659  0.00  0.00    +0.117 C 
BRANCH  11  13
ATOM     12  F   UNL     1      32.086 -20.362 -20.944  0.00  0.00    -0.205 F 
ATOM     13  C   UNL     1      35.654 -21.566 -19.272  0.00  0.00    -0.003 C 
ATOM     14  C   UNL     1      35.663 -20.666 -20.330  0.00  0.00    -0.005 C 
ATOM     15  C   UNL     1      34.457 -20.257 -20.900  0.00  0.00    +0.005 C 
ATOM     16  C   UNL     1      34.455 -22.062 -18.772  0.00  0.00    -0.000 C 
ATOM     17  C   UNL     1      33.250 -20.750 -20.405  0.00  0.00    +0.136 C 
ATOM     18  C   UNL     1      33.249 -21.653 -19.342  0.00  0.00    +0.029 C 
ATOM     19  C   UNL     1      34.462 -19.292 -22.037  0.00  0.00    +0.033 C 
ENDBRANCH  11  13
ENDBRANCH   8  11
ENDBRANCH   3   9
BRANCH   4  22
ATOM     20  O   UNL     1      34.140 -25.107 -11.881  0.00  0.00    -0.269 OA
ATOM     21  N   UNL     1      33.209 -23.559 -13.336  0.00  0.00    -0.296 N 
ATOM     22  C   UNL     1      34.246 -24.326 -12.824  0.00  0.00    +0.260 C 
ATOM     23  H   UNL     1      33.393 -22.960 -14.096  0.00  0.00    +0.150 HD
BRANCH  21  24
ATOM     24  C   UNL     1      31.872 -23.604 -12.800  0.00  0.00    +0.117 C 
BRANCH  24  26
ATOM     25  F   UNL     1      28.115 -25.393 -16.579  0.00  0.00    -0.205 F 
ATOM     26  C   UNL     1      30.874 -24.076 -13.803  0.00  0.00    -0.003 C 
ATOM     27  C   UNL     1      30.092 -23.152 -14.497  0.00  0.00    -0.005 C 
ATOM     28  C   UNL     1      29.159 -23.594 -15.435  0.00  0.00    +0.005 C 
ATOM     29  C   UNL     1      30.724 -25.440 -14.049  0.00  0.00    -0.000 C 
ATOM     30  C   UNL     1      29.009 -24.959 -15.680  0.00  0.00    +0.136 C 
ATOM     31  C   UNL     1      29.791 -25.882 -14.986  0.00  0.00    +0.029 C 
ATOM     32  C   UNL     1      28.324 -22.604 -16.175  0.00  0.00    +0.033 C 
ENDBRANCH  24  26
ENDBRANCH  21  24
ENDBRANCH   4  22
TORSDOF 6
ENDMDL
MODEL 4
REMARK VINA RESULT:     -11.5      2.407     10.472
REMARK  Name = 5289110
REMARK  6 active torsions:
REMARK  status: ('A' for Active; 'I' for Inactive)
REMARK    1  A    between atoms: C_3  and  C_9
REMARK    2  A    between atoms: C_4  and  C_22
REMARK    3  A    between atoms: N_8  and  C_11
REMARK    4  A    between atoms: C_11  and  C_13
REMARK    5  A    between atoms: N_21  and  C_24
REMARK    6  A    between atoms: C_24  and  C_26
REMARK                            x       y       z     vdW  Elec       q    Type
REMARK                         _______ _______ _______ _____ _____    ______ ____
ROOT
ATOM      1  N   UNL     1      35.023 -20.016 -23.155  0.00  0.00    -0.244 NA
ATOM      2  N   UNL     1      34.202 -18.354 -24.695  0.00  0.00    -0.244 NA
ATOM      3  C   UNL     1      35.485 -19.015 -22.379  0.00  0.00    +0.115 C 
ATOM      4  C   UNL     1      34.693 -17.435 -23.861  0.00  0.00    +0.115 C 
ATOM      5  C   UNL     1      35.345 -17.677 -22.688  0.00  0.00    +0.100 C 
ATOM      6  C   UNL     1      34.402 -19.620 -24.283  0.00  0.00    +0.250 C 
ENDROOT
BRANCH   3   9
ATOM      7  O   UNL     1      36.903 -18.628 -20.552  0.00  0.00    -0.269 OA
ATOM      8  N   UNL     1      35.910 -20.718 -20.695  0.00  0.00    -0.296 N 
ATOM      9  C   UNL     1      36.158 -19.420 -21.157  0.00  0.00    +0.260 C 
ATOM     10  H   UNL     1      35.310 -21.293 -21.222  0.00  0.00    +0.150 HD
BRANCH   8  11
ATOM     11  C   UNL     1      36.486 -21.261 -19.485  0.00  0.00    +0.117 C 
BRANCH  11  13
ATOM     12  F   UNL     1      32.639 -23.878 -16.329  0.00  0.00    -0.205 F 
ATOM     13  C   UNL     1      35.460 -21.959 -18.639  0.00  0.00    -0.003 C 
ATOM     14  C   UNL     1      35.828 -22.490 -17.409  0.00  0.00    -0.005 C 
ATOM     15  C   UNL     1      34.876 -23.140 -16.624  0.00  0.00    +0.005 C 
ATOM     16  C   UNL     1      34.152 -22.070 -19.097  0.00  0.00    -0.000 C 
ATOM     17  C   UNL     1      33.561 -23.255 -17.076  0.00  0.00    +0.136 C 
ATOM     18  C   UNL     1      33.199 -22.719 -18.311  0.00  0.00    +0.029 C 
ATOM     19  C   UNL     1      35.266 -23.710 -15.302  0.00  0.00    +0.033 C 
ENDBRANCH  11  13
ENDBRANCH   8  11
ENDBRANCH   3   9
BRANCH   4  22
ATOM     20  O   UNL     1      34.395 -15.783 -25.500  0.00  0.00    -0.269 OA
ATOM     21  N   UNL     1      34.383 -15.086 -23.288  0.00  0.00    -0.296 N 
ATOM     22  C   UNL     1      34.485 -16.030 -24.299  0.00  0.00    +0.260 C 
ATOM     23  H   UNL     1      34.469 -15.382 -22.353  0.00  0.00    +0.150 HD
BRANCH  21  24
ATOM     24  C   UNL     1      34.156 -13.688 -23.552  0.00  0.00    +0.117 C 
BRANCH  24  26
ATOM     25  F   UNL     1      30.658 -11.359 -19.819  0.00  0.00    -0.205 F 
ATOM     26  C   UNL     1      33.228 -13.067 -22.563  0.00  0.00    -0.003 C 
ATOM     27  C   UNL     1      32.832 -11.738 -22.716  0.00  0.00    -0.005 C 
ATOM     28  C   UNL     1      31.964 -11.158 -21.790  0.00  0.00    +0.005 C 
ATOM     29  C   UNL     1      32.755 -13.816 -21.486  0.00  0.00    -0.000 C 
ATOM     30  C   UNL     1      31.492 -11.908 -20.713  0.00  0.00    +0.136 C 
ATOM     31  C   UNL     1      31.888 -13.236 -20.560  0.00  0.00    +0.029 C 
ATOM     32  C   UNL     1      31.542  -9.737 -21.957  0.00  0.00    +0.033 C 
ENDBRANCH  24  26
ENDBRANCH  21  24
ENDBRANCH   4  22
TORSDOF 6
ENDMDL
MODEL 5
REMARK VINA RESULT:     -11.4      1.918      2.726
REMARK  Name = 5289110
REMARK  6 active torsions:
REMARK  status: ('A' for Active; 'I' for Inactive)
REMARK    1  A    between atoms: C_3  and  C_9
REMARK    2  A    between atoms: C_4  and  C_22
REMARK    3  A    between atoms: N_8  and  C_11
REMARK    4  A    between atoms: C_11  and  C_13
REMARK    5  A    between atoms: N_21  and  C_24
REMARK    6  A    between atoms: C_24  and  C_26
REMARK                            x       y       z     vdW  Elec       q    Type
REMARK                         _______ _______ _______ _____ _____    ______ ____
ROOT
ATOM      1  N   UNL     1      33.834 -14.507 -21.152  0.00  0.00    -0.244 NA
ATOM      2  N   UNL     1      34.519 -16.688 -20.389  0.00  0.00    -0.244 NA
ATOM      3  C   UNL     1      34.218 -14.862 -22.395  0.00  0.00    +0.115 C 
ATOM      4  C   UNL     1      34.870 -16.946 -21.652  0.00  0.00    +0.115 C 
ATOM      5  C   UNL     1      34.754 -16.095 -22.710  0.00  0.00    +0.100 C 
ATOM      6  C   UNL     1      34.010 -15.454 -20.211  0.00  0.00    +0.250 C 
ENDROOT
BRANCH   3   9
ATOM      7  O   UNL     1      33.709 -14.183 -24.581  0.00  0.00    -0.269 OA
ATOM      8  N   UNL     1      34.225 -12.519 -23.051  0.00  0.00    -0.296 N 
ATOM      9  C   UNL     1      34.036 -13.856 -23.426  0.00  0.00    +0.260 C 
ATOM     10  H   UNL     1      34.484 -12.330 -22.121  0.00  0.00    +0.150 HD
BRANCH   8  11
ATOM     11  C   UNL     1      34.059 -11.403 -23.954  0.00  0.00    +0.117 C 
BRANCH  11  13
ATOM     12  F   UNL     1      31.494  -7.063 -21.465  0.00  0.00    -0.205 F 
ATOM     13  C   UNL     1      33.375 -10.242 -23.291  0.00  0.00    -0.003 C 
ATOM     14  C   UNL     1      33.818  -8.949 -23.541  0.00  0.00    -0.005 C 
ATOM     15  C   UNL     1      33.183  -7.870 -22.926  0.00  0.00    +0.005 C 
ATOM     16  C   UNL     1      32.306 -10.472 -22.433  0.00  0.00    -0.000 C 
ATOM     17  C   UNL     1      32.109  -8.093 -22.063  0.00  0.00    +0.136 C 
ATOM     18  C   UNL     1      31.671  -9.394 -21.817  0.00  0.00    +0.029 C 
ATOM     19  C   UNL     1      33.654  -6.480 -23.192  0.00  0.00    +0.033 C 
ENDBRANCH  11  13
ENDBRANCH   8  11
ENDBRANCH   3   9
BRANCH   4  22
ATOM     20  O   UNL     1      35.982 -18.560 -22.940  0.00  0.00    -0.269 OA
ATOM     21  N   UNL     1      35.320 -19.188 -20.808  0.00  0.00    -0.296 N 
ATOM     22  C   UNL     1      35.436 -18.303 -21.869  0.00  0.00    +0.260 C 
ATOM     23  H   UNL     1      34.864 -18.888 -19.988  0.00  0.00    +0.150 HD
BRANCH  21  24
ATOM     24  C   UNL     1      35.840 -20.531 -20.857  0.00  0.00    +0.117 C 
BRANCH  24  26
ATOM     25  F   UNL     1      34.412 -23.541 -16.329  0.00  0.00    -0.205 F 
ATOM     26  C   UNL     1      35.464 -21.330 -19.654  0.00  0.00    -0.003 C 
ATOM     27  C   UNL     1      36.418 -21.608 -18.675  0.00  0.00    -0.005 C 
ATOM     28  C   UNL     1      36.065 -22.355 -17.551  0.00  0.00    +0.005 C 
ATOM     29  C   UNL     1      34.158 -21.797 -19.508  0.00  0.00    -0.000 C 
ATOM     30  C   UNL     1      34.760 -22.822 -17.406  0.00  0.00    +0.136 C 
ATOM     31  C   UNL     1      33.806 -22.544 -18.384  0.00  0.00    +0.029 C 
ATOM     32  C   UNL     1      37.088 -22.651 -16.506  0.00  0.00    +0.033 C 
ENDBRANCH  24  26
ENDBRANCH  21  24
ENDBRANCH   4  22
TORSDOF 6
ENDMDL
MODEL 6
REMARK VINA RESULT:     -11.4      1.921     11.101
REMARK  Name = 5289110
REMARK  6 active torsions:
REMARK  status: ('A' for Active; 'I' for Inactive)
REMARK    1  A    between atoms: C_3  and  C_9
REMARK    2  A    between atoms: C_4  and  C_22
REMARK    3  A    between atoms: N_8  and  C_11
REMARK    4  A    between atoms: C_11  and  C_13
REMARK    5  A    between atoms: N_21  and  C_24
REMARK    6  A    between atoms: C_24  and  C_26
REMARK                            x       y       z     vdW  Elec       q    Type
REMARK                         _______ _______ _______ _____ _____    ______ ____
ROOT
ATOM      1  N   UNL     1      34.579 -16.685 -20.384  0.00  0.00    -0.244 NA
ATOM      2  N   UNL     1      33.930 -14.491 -21.139  0.00  0.00    -0.244 NA
ATOM      3  C   UNL     1      34.902 -16.987 -21.658  0.00  0.00    +0.115 C 
ATOM      4  C   UNL     1      34.277 -14.883 -22.367  0.00  0.00    +0.115 C 
ATOM      5  C   UNL     1      34.769 -16.107 -22.713  0.00  0.00    +0.100 C 
ATOM      6  C   UNL     1      34.105 -15.438 -20.199  0.00  0.00    +0.250 C 
ENDROOT
BRANCH   3   9
ATOM      7  O   UNL     1      35.894 -18.649 -22.984  0.00  0.00    -0.269 OA
ATOM      8  N   UNL     1      35.363 -19.217 -20.800  0.00  0.00    -0.296 N 
ATOM      9  C   UNL     1      35.415 -18.328 -21.881  0.00  0.00    +0.260 C 
ATOM     10  H   UNL     1      34.971 -18.898 -19.955  0.00  0.00    +0.150 HD
BRANCH   8  11
ATOM     11  C   UNL     1      35.853 -20.575 -20.855  0.00  0.00    +0.117 C 
BRANCH  11  13
ATOM     12  F   UNL     1      34.389 -23.528 -16.301  0.00  0.00    -0.205 F 
ATOM     13  C   UNL     1      35.465 -21.363 -19.637  0.00  0.00    -0.003 C 
ATOM     14  C   UNL     1      36.419 -21.645 -18.667  0.00  0.00    -0.005 C 
ATOM     15  C   UNL     1      36.058 -22.377 -17.536  0.00  0.00    +0.005 C 
ATOM     16  C   UNL     1      34.154 -21.804 -19.493  0.00  0.00    -0.000 C 
ATOM     17  C   UNL     1      34.745 -22.823 -17.384  0.00  0.00    +0.136 C 
ATOM     18  C   UNL     1      33.793 -22.535 -18.362  0.00  0.00    +0.029 C 
ATOM     19  C   UNL     1      37.078 -22.682 -16.491  0.00  0.00    +0.033 C 
ENDBRANCH  11  13
ENDBRANCH   8  11
ENDBRANCH   3   9
BRANCH   4  22
ATOM     20  O   UNL     1      33.800 -14.206 -24.561  0.00  0.00    -0.269 OA
ATOM     21  N   UNL     1      34.237 -12.533 -23.014  0.00  0.00    -0.296 N 
ATOM     22  C   UNL     1      34.089 -13.852 -23.420  0.00  0.00    +0.260 C 
ATOM     23  H   UNL     1      34.470 -12.350 -22.076  0.00  0.00    +0.150 HD
BRANCH  21  24
ATOM     24  C   UNL     1      34.062 -11.421 -23.913  0.00  0.00    +0.117 C 
BRANCH  24  26
ATOM     25  F   UNL     1      31.510  -7.066 -21.438  0.00  0.00    -0.205 F 
ATOM     26  C   UNL     1      33.387 -10.263 -23.258  0.00  0.00    -0.003 C 
ATOM     27  C   UNL     1      33.836  -8.965 -23.499  0.00  0.00    -0.005 C 
ATOM     28  C   UNL     1      33.204  -7.883 -22.886  0.00  0.00    +0.005 C 
ATOM     29  C   UNL     1      32.305 -10.479 -22.405  0.00  0.00    -0.000 C 
ATOM     30  C   UNL     1      32.123  -8.099 -22.032  0.00  0.00    +0.136 C 
ATOM     31  C   UNL     1      31.674  -9.398 -21.791  0.00  0.00    +0.029 C 
ATOM     32  C   UNL     1      33.688  -6.496 -23.147  0.00  0.00    +0.033 C 
ENDBRANCH  24  26
ENDBRANCH  21  24
ENDBRANCH   4  22
TORSDOF 6
ENDMDL
MODEL 7
REMARK VINA RESULT:     -11.4      3.657      6.597
REMARK  Name = 5289110
REMARK  6 active torsions:
REMARK  status: ('A' for Active; 'I' for Inactive)
REMARK    1  A    between atoms: C_3  and  C_9
REMARK    2  A    between atoms: C_4  and  C_22
REMARK    3  A    between atoms: N_8  and  C_11
REMARK    4  A    between atoms: C_11  and  C_13
REMARK    5  A    between atoms: N_21  and  C_24
REMARK    6  A    between atoms: C_24  and  C_26
REMARK                            x       y       z     vdW  Elec       q    Type
REMARK                         _______ _______ _______ _____ _____    ______ ____
ROOT
ATOM      1  N   UNL     1      36.734 -19.407 -21.092  0.00  0.00    -0.244 NA
ATOM      2  N   UNL     1      36.076 -21.058 -19.465  0.00  0.00    -0.244 NA
ATOM      3  C   UNL     1      35.457 -19.375 -21.523  0.00  0.00    +0.115 C 
ATOM      4  C   UNL     1      34.840 -20.956 -19.961  0.00  0.00    +0.115 C 
ATOM      5  C   UNL     1      34.446 -20.144 -20.983  0.00  0.00    +0.100 C 
ATOM      6  C   UNL     1      36.970 -20.258 -20.075  0.00  0.00    +0.250 C 
ENDROOT
BRANCH   3   9
ATOM      7  O   UNL     1      34.636 -18.870 -23.661  0.00  0.00    -0.269 OA
ATOM      8  N   UNL     1      35.533 -17.120 -22.433  0.00  0.00    -0.296 N 
ATOM      9  C   UNL     1      35.181 -18.463 -22.619  0.00  0.00    +0.260 C 
ATOM     10  H   UNL     1      35.961 -16.865 -21.585  0.00  0.00    +0.150 HD
BRANCH   8  11
ATOM     11  C   UNL     1      35.303 -16.089 -23.419  0.00  0.00    +0.117 C 
BRANCH  11  13
ATOM     12  F   UNL     1      31.825 -12.097 -21.527  0.00  0.00    -0.205 F 
ATOM     13  C   UNL     1      34.374 -15.024 -22.911  0.00  0.00    -0.003 C 
ATOM     14  C   UNL     1      33.719 -15.204 -21.699  0.00  0.00    -0.005 C 
ATOM     15  C   UNL     1      32.856 -14.214 -21.227  0.00  0.00    +0.005 C 
ATOM     16  C   UNL     1      34.178 -13.869 -23.659  0.00  0.00    -0.000 C 
ATOM     17  C   UNL     1      32.653 -13.052 -21.972  0.00  0.00    +0.136 C 
ATOM     18  C   UNL     1      33.315 -12.880 -23.187  0.00  0.00    +0.029 C 
ATOM     19  C   UNL     1      32.151 -14.402 -19.926  0.00  0.00    +0.033 C 
ENDBRANCH  11  13
ENDBRANCH   8  11
ENDBRANCH   3   9
BRANCH   4  22
ATOM     20  O   UNL     1      32.734 -21.979 -19.823  0.00  0.00    -0.269 OA
ATOM     21  N   UNL     1      34.246 -22.450 -18.129  0.00  0.00    -0.296 N 
ATOM     22  C   UNL     1      33.837 -21.832 -19.302  0.00  0.00    +0.260 C 
ATOM     23  H   UNL     1      35.152 -22.269 -17.789  0.00  0.00    +0.150 HD
BRANCH  21  24
ATOM     24  C   UNL     1      33.396 -23.347 -17.388  0.00  0.00    +0.117 C 
BRANCH  24  26
ATOM     25  F   UNL     1      35.331 -24.348 -12.205  0.00  0.00    -0.205 F 
ATOM     26  C   UNL     1      33.912 -23.612 -16.013  0.00  0.00    -0.003 C 
ATOM     27  C   UNL     1      35.267 -23.436 -15.731  0.00  0.00    -0.005 C 
ATOM     28  C   UNL     1      35.749 -23.684 -14.445  0.00  0.00    +0.005 C 
ATOM     29  C   UNL     1      33.040 -24.035 -15.010  0.00  0.00    -0.000 C 
ATOM     30  C   UNL     1      34.876 -24.107 -13.443  0.00  0.00    +0.136 C 
ATOM     31  C   UNL     1      33.522 -24.284 -13.726  0.00  0.00    +0.029 C 
ATOM     32  C   UNL     1      37.198 -23.494 -14.147  0.00  0.00    +0.033 C 
ENDBRANCH  24  26
ENDBRANCH  21  24
ENDBRANCH   4  22
TORSDOF 6
ENDMDL
MODEL 8
REMARK VINA RESULT:     -11.4      3.900     11.406
REMARK  Name = 5289110
REMARK  6 active torsions:
REMARK  status: ('A' for Active; 'I' for Inactive)
REMARK    1  A    between atoms: C_3  and  C_9
REMARK    2  A    between atoms: C_4  and  C_22
REMARK    3  A    between atoms: N_8  and  C_11
REMARK    4  A    between atoms: C_11  and  C_13
REMARK    5  A    between atoms: N_21  and  C_24
REMARK    6  A    between atoms: C_24  and  C_26
REMARK                            x       y       z     vdW  Elec       q    Type
REMARK                         _______ _______ _______ _____ _____    ______ ____
ROOT
ATOM      1  N   UNL     1      36.075 -21.277 -19.071  0.00  0.00    -0.244 NA
ATOM      2  N   UNL     1      36.714 -19.624 -20.704  0.00  0.00    -0.244 NA
ATOM      3  C   UNL     1      34.842 -21.287 -19.618  0.00  0.00    +0.115 C 
ATOM      4  C   UNL     1      35.467 -19.704 -21.175  0.00  0.00    +0.115 C 
ATOM      5  C   UNL     1      34.474 -20.505 -20.694  0.00  0.00    +0.100 C 
ATOM      6  C   UNL     1      36.948 -20.434 -19.654  0.00  0.00    +0.250 C 
ENDROOT
BRANCH   3   9
ATOM      7  O   UNL     1      32.782 -22.405 -19.540  0.00  0.00    -0.269 OA
ATOM      8  N   UNL     1      34.269 -22.809 -17.808  0.00  0.00    -0.296 N 
ATOM      9  C   UNL     1      33.884 -22.189 -19.004  0.00  0.00    +0.260 C 
ATOM     10  H   UNL     1      35.155 -22.593 -17.437  0.00  0.00    +0.150 HD
BRANCH   8  11
ATOM     11  C   UNL     1      33.438 -23.748 -17.089  0.00  0.00    +0.117 C 
BRANCH  11  13
ATOM     12  F   UNL     1      35.122 -24.413 -11.766  0.00  0.00    -0.205 F 
ATOM     13  C   UNL     1      33.891 -23.924 -15.668  0.00  0.00    -0.003 C 
ATOM     14  C   UNL     1      35.246 -23.875 -15.366  0.00  0.00    -0.005 C 
ATOM     15  C   UNL     1      35.667 -24.039 -14.046  0.00  0.00    +0.005 C 
ATOM     16  C   UNL     1      32.948 -24.137 -14.668  0.00  0.00    -0.000 C 
ATOM     17  C   UNL     1      34.727 -24.253 -13.037  0.00  0.00    +0.136 C 
ATOM     18  C   UNL     1      33.369 -24.301 -13.348  0.00  0.00    +0.029 C 
ATOM     19  C   UNL     1      37.121 -23.985 -13.717  0.00  0.00    +0.033 C 
ENDBRANCH  11  13
ENDBRANCH   8  11
ENDBRANCH   3   9
BRANCH   4  22
ATOM     20  O   UNL     1      34.650 -19.285 -23.333  0.00  0.00    -0.269 OA
ATOM     21  N   UNL     1      35.543 -17.483 -22.178  0.00  0.00    -0.296 N 
ATOM     22  C   UNL     1      35.187 -18.815 -22.332  0.00  0.00    +0.260 C 
ATOM     23  H   UNL     1      35.969 -17.202 -21.336  0.00  0.00    +0.150 HD
BRANCH  21  24
ATOM     24  C   UNL     1      35.313 -16.495 -23.201  0.00  0.00    +0.117 C 
BRANCH  24  26
ATOM     25  F   UNL     1      31.813 -12.432 -21.516  0.00  0.00    -0.205 F 
ATOM     26  C   UNL     1      34.384 -15.418 -22.751  0.00  0.00    -0.003 C 
ATOM     27  C   UNL     1      33.752 -15.515 -21.511  0.00  0.00    -0.005 C 
ATOM     28  C   UNL     1      32.883 -14.508 -21.091  0.00  0.00    +0.005 C 
ATOM     29  C   UNL     1      34.148 -14.314 -23.569  0.00  0.00    -0.000 C 
ATOM     30  C   UNL     1      32.646 -13.404 -21.911  0.00  0.00    +0.136 C 
ATOM     31  C   UNL     1      33.279 -13.308 -23.150  0.00  0.00    +0.029 C 
ATOM     32  C   UNL     1      32.209 -14.614 -19.765  0.00  0.00    +0.033 C 
ENDBRANCH  24  26
ENDBRANCH  21  24
ENDBRANCH   4  22
TORSDOF 6
ENDMDL
MODEL 9
REMARK VINA RESULT:     -11.4      1.379     10.912
REMARK  Name = 5289110
REMARK  6 active torsions:
REMARK  status: ('A' for Active; 'I' for Inactive)
REMARK    1  A    between atoms: C_3  and  C_9
REMARK    2  A    between atoms: C_4  and  C_22
REMARK    3  A    between atoms: N_8  and  C_11
REMARK    4  A    between atoms: C_11  and  C_13
REMARK    5  A    between atoms: N_21  and  C_24
REMARK    6  A    between atoms: C_24  and  C_26
REMARK                            x       y       z     vdW  Elec       q    Type
REMARK                         _______ _______ _______ _____ _____    ______ ____
ROOT
ATOM      1  N   UNL     1      34.284 -15.998 -23.547  0.00  0.00    -0.244 NA
ATOM      2  N   UNL     1      33.017 -13.950 -23.463  0.00  0.00    -0.244 NA
ATOM      3  C   UNL     1      34.310 -15.993 -22.198  0.00  0.00    +0.115 C 
ATOM      4  C   UNL     1      33.098 -14.033 -22.133  0.00  0.00    +0.115 C 
ATOM      5  C   UNL     1      33.721 -15.015 -21.422  0.00  0.00    +0.100 C 
ATOM      6  C   UNL     1      33.630 -14.962 -24.105  0.00  0.00    +0.250 C 
ENDROOT
BRANCH   3   9
ATOM      7  O   UNL     1      35.264 -17.089 -20.357  0.00  0.00    -0.269 OA
ATOM      8  N   UNL     1      35.356 -18.181 -22.399  0.00  0.00    -0.296 N 
ATOM      9  C   UNL     1      35.010 -17.103 -21.575  0.00  0.00    +0.260 C 
ATOM     10  H   UNL     1      35.125 -18.128 -23.355  0.00  0.00    +0.150 HD
BRANCH   8  11
ATOM     11  C   UNL     1      36.033 -19.367 -21.925  0.00  0.00    +0.117 C 
BRANCH  11  13
ATOM     12  F   UNL     1      32.840 -22.317 -18.361  0.00  0.00    -0.205 F 
ATOM     13  C   UNL     1      35.183 -20.155 -20.971  0.00  0.00    -0.003 C 
ATOM     14  C   UNL     1      35.788 -20.933 -19.991  0.00  0.00    -0.005 C 
ATOM     15  C   UNL     1      34.998 -21.665 -19.105  0.00  0.00    +0.005 C 
ATOM     16  C   UNL     1      33.798 -20.100 -21.079  0.00  0.00    -0.000 C 
ATOM     17  C   UNL     1      33.607 -21.616 -19.207  0.00  0.00    +0.136 C 
ATOM     18  C   UNL     1      33.008 -20.833 -20.193  0.00  0.00    +0.029 C 
ATOM     19  C   UNL     1      35.642 -22.500 -18.051  0.00  0.00    +0.033 C 
ENDBRANCH  11  13
ENDBRANCH   8  11
ENDBRANCH   3   9
BRANCH   4  22
ATOM     20  O   UNL     1      32.235 -13.031 -20.196  0.00  0.00    -0.269 OA
ATOM     21  N   UNL     1      32.087 -11.814 -22.165  0.00  0.00    -0.296 N 
ATOM     22  C   UNL     1      32.429 -12.924 -21.404  0.00  0.00    +0.260 C 
ATOM     23  H   UNL     1      32.284 -11.823 -23.129  0.00  0.00    +0.150 HD
BRANCH  21  24
ATOM     24  C   UNL     1      31.456 -10.650 -21.598  0.00  0.00    +0.117 C 
BRANCH  24  26
ATOM     25  F   UNL     1      33.802  -5.870 -23.400  0.00  0.00    -0.205 F 
ATOM     26  C   UNL     1      32.076  -9.380 -22.075  0.00  0.00    -0.003 C 
ATOM     27  C   UNL     1      31.508  -8.153 -21.731  0.00  0.00    -0.005 C 
ATOM     28  C   UNL     1      32.088  -6.966 -22.177  0.00  0.00    +0.005 C 
ATOM     29  C   UNL     1      33.225  -9.418 -22.864  0.00  0.00    -0.000 C 
ATOM     30  C   UNL     1      33.237  -7.005 -22.967  0.00  0.00    +0.136 C 
ATOM     31  C   UNL     1      33.805  -8.232 -23.311  0.00  0.00    +0.029 C 
ATOM     32  C   UNL     1      31.478  -5.656 -21.807  0.00  0.00    +0.033 C 
ENDBRANCH  24  26
ENDBRANCH  21  24
ENDBRANCH   4  22
TORSDOF 6
ENDMDL
