MODEL 1
REMARK VINA RESULT:     -11.7      0.000      0.000
REMARK  Name = 23586146
REMARK  5 active torsions:
REMARK  status: ('A' for Active; 'I' for Inactive)
REMARK    1  A    between atoms: N_1  and  C_12
REMARK    2  A    between atoms: C_8  and  N_18
REMARK    3  A    between atoms: N_18  and  C_20
REMARK    4  A    between atoms: C_23  and  S_26
REMARK    5  A    between atoms: S_26  and  N_29
REMARK                            x       y       z     vdW  Elec       q    Type
REMARK                         _______ _______ _______ _____ _____    ______ ____
ROOT
ATOM      1  N   UNL     1      35.597 -24.609 -14.012  0.00  0.00    -0.309 N 
ATOM      2  N   UNL     1      33.370 -24.054 -14.031  0.00  0.00    -0.321 NA
ATOM      3  N   UNL     1      32.333 -23.493 -16.124  0.00  0.00    -0.106 N 
ATOM      4  N   UNL     1      31.105 -23.123 -16.578  0.00  0.00    -0.139 NA
ATOM      5  N   UNL     1      31.046 -23.434 -14.323  0.00  0.00    -0.145 NA
ATOM      6  C   UNL     1      34.494 -24.239 -14.682  0.00  0.00    +0.196 C 
ATOM      7  C   UNL     1      34.614 -24.052 -16.171  0.00  0.00    +0.081 C 
ATOM      8  C   UNL     1      33.515 -23.682 -16.845  0.00  0.00    +0.140 C 
ATOM      9  C   UNL     1      32.272 -23.678 -14.742  0.00  0.00    +0.176 C 
ATOM     10  C   UNL     1      30.384 -23.106 -15.461  0.00  0.00    +0.230 C 
ATOM     11  H   UNL     1      36.436 -24.728 -14.512  0.00  0.00    +0.149 HD
ENDROOT
BRANCH   1  12
ATOM     12  C   UNL     1      35.605 -24.842 -12.579  0.00  0.00    +0.071 C 
ATOM     13  C   UNL     1      36.534 -26.012 -12.241  0.00  0.00    +0.020 C 
ATOM     14  C   UNL     1      36.019 -23.564 -11.842  0.00  0.00    +0.020 C 
ATOM     15  C   UNL     1      38.013 -25.666 -12.425  0.00  0.00    +0.002 C 
ATOM     16  C   UNL     1      37.499 -23.227 -12.026  0.00  0.00    +0.002 C 
ATOM     17  C   UNL     1      38.395 -24.405 -11.658  0.00  0.00    +0.000 C 
ENDBRANCH   1  12
BRANCH   8  18
ATOM     18  N   UNL     1      33.475 -23.475 -18.194  0.00  0.00    -0.299 N 
ATOM     19  H   UNL     1      32.988 -24.152 -18.717  0.00  0.00    +0.153 HD
BRANCH  18  20
ATOM     20  C   UNL     1      34.036 -22.425 -18.928  0.00  0.00    +0.049 C 
ATOM     21  C   UNL     1      33.209 -21.491 -19.555  0.00  0.00    +0.016 C 
ATOM     22  C   UNL     1      35.422 -22.309 -19.033  0.00  0.00    +0.016 C 
ATOM     23  C   UNL     1      35.156 -20.329 -20.391  0.00  0.00    +0.122 C 
ATOM     24  C   UNL     1      33.769 -20.444 -20.286  0.00  0.00    +0.021 C 
ATOM     25  C   UNL     1      35.981 -21.262 -19.764  0.00  0.00    +0.021 C 
BRANCH  23  26
ATOM     26  S   UNL     1      35.856 -19.018 -21.306  0.00  0.00    +0.057 S 
ATOM     27  O   UNL     1      35.681 -19.303 -22.724  0.00  0.00    -0.153 OA
ATOM     28  O   UNL     1      35.371 -17.759 -20.757  0.00  0.00    -0.153 OA
BRANCH  26  29
ATOM     29  N   UNL     1      37.509 -19.189 -20.910  0.00  0.00    -0.203 NA
ATOM     30  H   UNL     1      37.618 -19.926 -20.215  0.00  0.00    +0.144 HD
ATOM     31  H   UNL     1      37.861 -18.310 -20.531  0.00  0.00    +0.144 HD
ENDBRANCH  26  29
ENDBRANCH  23  26
ENDBRANCH  18  20
ENDBRANCH   8  18
TORSDOF 5
ENDMDL
MODEL 2
REMARK VINA RESULT:     -10.7      1.141      1.701
REMARK  Name = 23586146
REMARK  5 active torsions:
REMARK  status: ('A' for Active; 'I' for Inactive)
REMARK    1  A    between atoms: N_1  and  C_12
REMARK    2  A    between atoms: C_8  and  N_18
REMARK    3  A    between atoms: N_18  and  C_20
REMARK    4  A    between atoms: C_23  and  S_26
REMARK    5  A    between atoms: S_26  and  N_29
REMARK                            x       y       z     vdW  Elec       q    Type
REMARK                         _______ _______ _______ _____ _____    ______ ____
ROOT
ATOM      1  N   UNL     1      35.825 -24.057 -14.807  0.00  0.00    -0.309 N 
ATOM      2  N   UNL     1      33.556 -23.883 -14.498  0.00  0.00    -0.321 NA
ATOM      3  N   UNL     1      32.176 -23.263 -16.365  0.00  0.00    -0.106 N 
ATOM      4  N   UNL     1      30.858 -23.053 -16.621  0.00  0.00    -0.139 NA
ATOM      5  N   UNL     1      31.148 -23.630 -14.438  0.00  0.00    -0.145 NA
ATOM      6  C   UNL     1      34.599 -23.801 -15.292  0.00  0.00    +0.196 C 
ATOM      7  C   UNL     1      34.489 -23.424 -16.745  0.00  0.00    +0.081 C 
ATOM      8  C   UNL     1      33.266 -23.167 -17.233  0.00  0.00    +0.140 C 
ATOM      9  C   UNL     1      32.329 -23.616 -15.022  0.00  0.00    +0.176 C 
ATOM     10  C   UNL     1      30.298 -23.287 -15.438  0.00  0.00    +0.230 C 
ATOM     11  H   UNL     1      36.597 -23.975 -15.411  0.00  0.00    +0.149 HD
ENDROOT
BRANCH   1  12
ATOM     12  C   UNL     1      36.059 -24.450 -13.430  0.00  0.00    +0.071 C 
ATOM     13  C   UNL     1      35.931 -25.970 -13.287  0.00  0.00    +0.020 C 
ATOM     14  C   UNL     1      37.434 -23.956 -12.970  0.00  0.00    +0.020 C 
ATOM     15  C   UNL     1      37.089 -26.725 -13.941  0.00  0.00    +0.002 C 
ATOM     16  C   UNL     1      38.587 -24.718 -13.624  0.00  0.00    +0.002 C 
ATOM     17  C   UNL     1      38.441 -26.226 -13.441  0.00  0.00    +0.000 C 
ENDBRANCH   1  12
BRANCH   8  18
ATOM     18  N   UNL     1      33.016 -22.815 -18.528  0.00  0.00    -0.299 N 
ATOM     19  H   UNL     1      32.297 -23.315 -18.977  0.00  0.00    +0.153 HD
BRANCH  18  20
ATOM     20  C   UNL     1      33.649 -21.833 -19.298  0.00  0.00    +0.049 C 
ATOM     21  C   UNL     1      35.043 -21.780 -19.353  0.00  0.00    +0.016 C 
ATOM     22  C   UNL     1      32.888 -20.907 -20.012  0.00  0.00    +0.016 C 
ATOM     23  C   UNL     1      34.912 -19.875 -20.834  0.00  0.00    +0.122 C 
ATOM     24  C   UNL     1      35.674 -20.802 -20.121  0.00  0.00    +0.021 C 
ATOM     25  C   UNL     1      33.520 -19.929 -20.780  0.00  0.00    +0.021 C 
BRANCH  23  26
ATOM     26  S   UNL     1      35.703 -18.652 -21.795  0.00  0.00    +0.057 S 
ATOM     27  O   UNL     1      35.301 -17.344 -21.295  0.00  0.00    -0.153 OA
ATOM     28  O   UNL     1      37.117 -18.984 -21.896  0.00  0.00    -0.153 OA
BRANCH  26  29
ATOM     29  N   UNL     1      34.969 -18.908 -23.317  0.00  0.00    -0.203 NA
ATOM     30  H   UNL     1      35.057 -18.065 -23.883  0.00  0.00    +0.144 HD
ATOM     31  H   UNL     1      33.982 -19.128 -23.186  0.00  0.00    +0.144 HD
ENDBRANCH  26  29
ENDBRANCH  23  26
ENDBRANCH  18  20
ENDBRANCH   8  18
TORSDOF 5
ENDMDL
MODEL 3
REMARK VINA RESULT:     -10.3      1.549      4.955
REMARK  Name = 23586146
REMARK  5 active torsions:
REMARK  status: ('A' for Active; 'I' for Inactive)
REMARK    1  A    between atoms: N_1  and  C_12
REMARK    2  A    between atoms: C_8  and  N_18
REMARK    3  A    between atoms: N_18  and  C_20
REMARK    4  A    between atoms: C_23  and  S_26
REMARK    5  A    between atoms: S_26  and  N_29
REMARK                            x       y       z     vdW  Elec       q    Type
REMARK                         _______ _______ _______ _____ _____    ______ ____
ROOT
ATOM      1  N   UNL     1      31.463 -23.930 -15.912  0.00  0.00    -0.309 N 
ATOM      2  N   UNL     1      33.313 -23.902 -14.553  0.00  0.00    -0.321 NA
ATOM      3  N   UNL     1      35.457 -23.421 -15.523  0.00  0.00    -0.106 N 
ATOM      4  N   UNL     1      36.749 -23.306 -15.114  0.00  0.00    -0.139 NA
ATOM      5  N   UNL     1      35.410 -23.813 -13.343  0.00  0.00    -0.145 NA
ATOM      6  C   UNL     1      32.786 -23.767 -15.747  0.00  0.00    +0.196 C 
ATOM      7  C   UNL     1      33.604 -23.434 -16.966  0.00  0.00    +0.081 C 
ATOM      8  C   UNL     1      34.926 -23.271 -16.806  0.00  0.00    +0.140 C 
ATOM      9  C   UNL     1      34.656 -23.731 -14.422  0.00  0.00    +0.176 C 
ATOM     10  C   UNL     1      36.657 -23.550 -13.810  0.00  0.00    +0.230 C 
ATOM     11  H   UNL     1      31.086 -23.841 -16.817  0.00  0.00    +0.149 HD
ENDROOT
BRANCH   1  12
ATOM     12  C   UNL     1      30.565 -24.231 -14.813  0.00  0.00    +0.071 C 
ATOM     13  C   UNL     1      29.838 -22.960 -14.363  0.00  0.00    +0.020 C 
ATOM     14  C   UNL     1      29.577 -25.327 -15.227  0.00  0.00    +0.020 C 
ATOM     15  C   UNL     1      28.802 -22.480 -15.380  0.00  0.00    +0.002 C 
ATOM     16  C   UNL     1      28.542 -24.838 -16.240  0.00  0.00    +0.002 C 
ATOM     17  C   UNL     1      27.820 -23.586 -15.749  0.00  0.00    +0.000 C 
ENDBRANCH   1  12
BRANCH   8  18
ATOM     18  N   UNL     1      35.790 -22.968 -17.818  0.00  0.00    -0.299 N 
ATOM     19  H   UNL     1      36.607 -23.515 -17.864  0.00  0.00    +0.153 HD
BRANCH  18  20
ATOM     20  C   UNL     1      35.663 -21.980 -18.801  0.00  0.00    +0.049 C 
ATOM     21  C   UNL     1      36.793 -21.302 -19.260  0.00  0.00    +0.016 C 
ATOM     22  C   UNL     1      34.406 -21.671 -19.322  0.00  0.00    +0.016 C 
ATOM     23  C   UNL     1      35.409 -20.009 -20.760  0.00  0.00    +0.122 C 
ATOM     24  C   UNL     1      36.666 -20.317 -20.239  0.00  0.00    +0.021 C 
ATOM     25  C   UNL     1      34.280 -20.687 -20.302  0.00  0.00    +0.021 C 
BRANCH  23  26
ATOM     26  S   UNL     1      35.251 -18.777 -21.986  0.00  0.00    +0.057 S 
ATOM     27  O   UNL     1      34.528 -19.343 -23.116  0.00  0.00    -0.153 OA
ATOM     28  O   UNL     1      34.768 -17.556 -21.356  0.00  0.00    -0.153 OA
BRANCH  26  29
ATOM     29  N   UNL     1      36.885 -18.552 -22.435  0.00  0.00    -0.203 NA
ATOM     30  H   UNL     1      37.429 -19.367 -22.157  0.00  0.00    +0.144 HD
ATOM     31  H   UNL     1      37.254 -17.722 -21.970  0.00  0.00    +0.144 HD
ENDBRANCH  26  29
ENDBRANCH  23  26
ENDBRANCH  18  20
ENDBRANCH   8  18
TORSDOF 5
ENDMDL
MODEL 4
REMARK VINA RESULT:      -9.7      4.596      8.556
REMARK  Name = 23586146
REMARK  5 active torsions:
REMARK  status: ('A' for Active; 'I' for Inactive)
REMARK    1  A    between atoms: N_1  and  C_12
REMARK    2  A    between atoms: C_8  and  N_18
REMARK    3  A    between atoms: N_18  and  C_20
REMARK    4  A    between atoms: C_23  and  S_26
REMARK    5  A    between atoms: S_26  and  N_29
REMARK                            x       y       z     vdW  Elec       q    Type
REMARK                         _______ _______ _______ _____ _____    ______ ____
ROOT
ATOM      1  N   UNL     1      35.531 -20.489 -20.458  0.00  0.00    -0.309 N 
ATOM      2  N   UNL     1      34.022 -21.692 -19.216  0.00  0.00    -0.321 NA
ATOM      3  N   UNL     1      34.815 -22.959 -17.335  0.00  0.00    -0.106 N 
ATOM      4  N   UNL     1      34.301 -23.771 -16.374  0.00  0.00    -0.139 NA
ATOM      5  N   UNL     1      32.641 -23.040 -17.751  0.00  0.00    -0.145 NA
ATOM      6  C   UNL     1      35.258 -21.308 -19.430  0.00  0.00    +0.196 C 
ATOM      7  C   UNL     1      36.409 -21.749 -18.566  0.00  0.00    +0.081 C 
ATOM      8  C   UNL     1      36.141 -22.567 -17.538  0.00  0.00    +0.140 C 
ATOM      9  C   UNL     1      33.781 -22.523 -18.166  0.00  0.00    +0.176 C 
ATOM     10  C   UNL     1      33.006 -23.781 -16.674  0.00  0.00    +0.230 C 
ATOM     11  H   UNL     1      36.466 -20.223 -20.614  0.00  0.00    +0.149 HD
ENDROOT
BRANCH   1  12
ATOM     12  C   UNL     1      34.507 -19.978 -21.350  0.00  0.00    +0.071 C 
ATOM     13  C   UNL     1      34.021 -18.609 -20.864  0.00  0.00    +0.020 C 
ATOM     14  C   UNL     1      35.045 -19.907 -22.782  0.00  0.00    +0.020 C 
ATOM     15  C   UNL     1      35.064 -17.507 -21.058  0.00  0.00    +0.002 C 
ATOM     16  C   UNL     1      36.083 -18.801 -22.971  0.00  0.00    +0.002 C 
ATOM     17  C   UNL     1      35.558 -17.448 -22.500  0.00  0.00    +0.000 C 
ENDBRANCH   1  12
BRANCH   8  18
ATOM     18  N   UNL     1      37.082 -23.047 -16.672  0.00  0.00    -0.299 N 
ATOM     19  H   UNL     1      38.013 -23.018 -16.992  0.00  0.00    +0.153 HD
BRANCH  18  20
ATOM     20  C   UNL     1      36.894 -23.573 -15.389  0.00  0.00    +0.049 C 
ATOM     21  C   UNL     1      37.032 -24.944 -15.170  0.00  0.00    +0.016 C 
ATOM     22  C   UNL     1      36.567 -22.727 -14.330  0.00  0.00    +0.016 C 
ATOM     23  C   UNL     1      36.517 -24.621 -12.831  0.00  0.00    +0.122 C 
ATOM     24  C   UNL     1      36.844 -25.468 -13.891  0.00  0.00    +0.021 C 
ATOM     25  C   UNL     1      36.379 -23.251 -13.051  0.00  0.00    +0.021 C 
BRANCH  23  26
ATOM     26  S   UNL     1      36.282 -25.278 -11.231  0.00  0.00    +0.057 S 
ATOM     27  O   UNL     1      37.136 -24.547 -10.305  0.00  0.00    -0.153 OA
ATOM     28  O   UNL     1      34.852 -25.373 -10.974  0.00  0.00    -0.153 OA
BRANCH  26  29
ATOM     29  N   UNL     1      36.910 -26.855 -11.430  0.00  0.00    -0.203 NA
ATOM     30  H   UNL     1      36.469 -27.484 -10.761  0.00  0.00    +0.144 HD
ATOM     31  H   UNL     1      37.918 -26.842 -11.273  0.00  0.00    +0.144 HD
ENDBRANCH  26  29
ENDBRANCH  23  26
ENDBRANCH  18  20
ENDBRANCH   8  18
TORSDOF 5
ENDMDL
MODEL 5
REMARK VINA RESULT:      -9.2      7.978     11.641
REMARK  Name = 23586146
REMARK  5 active torsions:
REMARK  status: ('A' for Active; 'I' for Inactive)
REMARK    1  A    between atoms: N_1  and  C_12
REMARK    2  A    between atoms: C_8  and  N_18
REMARK    3  A    between atoms: N_18  and  C_20
REMARK    4  A    between atoms: C_23  and  S_26
REMARK    5  A    between atoms: S_26  and  N_29
REMARK                            x       y       z     vdW  Elec       q    Type
REMARK                         _______ _______ _______ _____ _____    ______ ____
ROOT
ATOM      1  N   UNL     1      35.326 -17.422 -21.890  0.00  0.00    -0.309 N 
ATOM      2  N   UNL     1      34.708 -16.681 -23.973  0.00  0.00    -0.321 NA
ATOM      3  N   UNL     1      33.312 -14.733 -24.143  0.00  0.00    -0.106 N 
ATOM      4  N   UNL     1      32.736 -13.985 -25.122  0.00  0.00    -0.139 NA
ATOM      5  N   UNL     1      33.917 -15.700 -26.042  0.00  0.00    -0.145 NA
ATOM      6  C   UNL     1      34.669 -16.546 -22.668  0.00  0.00    +0.196 C 
ATOM      7  C   UNL     1      33.910 -15.441 -21.985  0.00  0.00    +0.081 C 
ATOM      8  C   UNL     1      33.252 -14.564 -22.758  0.00  0.00    +0.140 C 
ATOM      9  C   UNL     1      34.030 -15.777 -24.731  0.00  0.00    +0.176 C 
ATOM     10  C   UNL     1      33.132 -14.609 -26.227  0.00  0.00    +0.230 C 
ATOM     11  H   UNL     1      35.274 -17.316 -20.913  0.00  0.00    +0.149 HD
ENDROOT
BRANCH   1  12
ATOM     12  C   UNL     1      36.111 -18.517 -22.428  0.00  0.00    +0.071 C 
ATOM     13  C   UNL     1      37.394 -18.697 -21.612  0.00  0.00    +0.020 C 
ATOM     14  C   UNL     1      35.275 -19.801 -22.450  0.00  0.00    +0.020 C 
ATOM     15  C   UNL     1      37.134 -19.266 -20.216  0.00  0.00    +0.002 C 
ATOM     16  C   UNL     1      35.022 -20.367 -21.052  0.00  0.00    +0.002 C 
ATOM     17  C   UNL     1      36.322 -20.556 -20.277  0.00  0.00    +0.000 C 
ENDBRANCH   1  12
BRANCH   8  18
ATOM     18  N   UNL     1      32.523 -13.514 -22.279  0.00  0.00    -0.299 N 
ATOM     19  H   UNL     1      31.754 -13.748 -21.712  0.00  0.00    +0.153 HD
BRANCH  18  20
ATOM     20  C   UNL     1      32.731 -12.146 -22.490  0.00  0.00    +0.049 C 
ATOM     21  C   UNL     1      33.780 -11.717 -23.304  0.00  0.00    +0.016 C 
ATOM     22  C   UNL     1      31.890 -11.211 -21.886  0.00  0.00    +0.016 C 
ATOM     23  C   UNL     1      33.145  -9.419 -22.910  0.00  0.00    +0.122 C 
ATOM     24  C   UNL     1      33.986 -10.353 -23.515  0.00  0.00    +0.021 C 
ATOM     25  C   UNL     1      32.097  -9.848 -22.096  0.00  0.00    +0.021 C 
BRANCH  23  26
ATOM     26  S   UNL     1      33.404  -7.713 -23.174  0.00  0.00    +0.057 S 
ATOM     27  O   UNL     1      33.823  -7.112 -21.915  0.00  0.00    -0.153 OA
ATOM     28  O   UNL     1      34.228  -7.548 -24.364  0.00  0.00    -0.153 OA
BRANCH  26  29
ATOM     29  N   UNL     1      31.815  -7.193 -23.530  0.00  0.00    -0.203 NA
ATOM     30  H   UNL     1      31.234  -7.279 -22.698  0.00  0.00    +0.144 HD
ATOM     31  H   UNL     1      31.428  -7.770 -24.277  0.00  0.00    +0.144 HD
ENDBRANCH  26  29
ENDBRANCH  23  26
ENDBRANCH  18  20
ENDBRANCH   8  18
TORSDOF 5
ENDMDL
MODEL 6
REMARK VINA RESULT:      -9.2     10.216     14.554
REMARK  Name = 23586146
REMARK  5 active torsions:
REMARK  status: ('A' for Active; 'I' for Inactive)
REMARK    1  A    between atoms: N_1  and  C_12
REMARK    2  A    between atoms: C_8  and  N_18
REMARK    3  A    between atoms: N_18  and  C_20
REMARK    4  A    between atoms: C_23  and  S_26
REMARK    5  A    between atoms: S_26  and  N_29
REMARK                            x       y       z     vdW  Elec       q    Type
REMARK                         _______ _______ _______ _____ _____    ______ ____
ROOT
ATOM      1  N   UNL     1      32.951  -8.141 -22.801  0.00  0.00    -0.309 N 
ATOM      2  N   UNL     1      32.460  -8.702 -20.630  0.00  0.00    -0.321 NA
ATOM      3  N   UNL     1      31.751 -10.945 -20.144  0.00  0.00    -0.106 N 
ATOM      4  N   UNL     1      31.379 -11.675 -19.058  0.00  0.00    -0.139 NA
ATOM      5  N   UNL     1      31.885  -9.545 -18.432  0.00  0.00    -0.145 NA
ATOM      6  C   UNL     1      32.556  -9.048 -21.892  0.00  0.00    +0.196 C 
ATOM      7  C   UNL     1      32.238 -10.434 -22.384  0.00  0.00    +0.081 C 
ATOM      8  C   UNL     1      31.843 -11.343 -21.480  0.00  0.00    +0.140 C 
ATOM      9  C   UNL     1      32.057  -9.645 -19.736  0.00  0.00    +0.176 C 
ATOM     10  C   UNL     1      31.479 -10.789 -18.072  0.00  0.00    +0.230 C 
ATOM     11  H   UNL     1      33.002  -8.412 -23.745  0.00  0.00    +0.149 HD
ENDROOT
BRANCH   1  12
ATOM     12  C   UNL     1      33.306  -6.779 -22.450  0.00  0.00    +0.071 C 
ATOM     13  C   UNL     1      33.855  -6.045 -23.677  0.00  0.00    +0.020 C 
ATOM     14  C   UNL     1      32.091  -6.056 -21.859  0.00  0.00    +0.020 C 
ATOM     15  C   UNL     1      32.775  -5.739 -24.716  0.00  0.00    +0.002 C 
ATOM     16  C   UNL     1      31.018  -5.749 -22.904  0.00  0.00    +0.002 C 
ATOM     17  C   UNL     1      31.594  -4.997 -24.099  0.00  0.00    +0.000 C 
ENDBRANCH   1  12
BRANCH   8  18
ATOM     18  N   UNL     1      31.523 -12.635 -21.780  0.00  0.00    -0.299 N 
ATOM     19  H   UNL     1      30.585 -12.798 -22.031  0.00  0.00    +0.153 HD
BRANCH  18  20
ATOM     20  C   UNL     1      32.357 -13.759 -21.778  0.00  0.00    +0.049 C 
ATOM     21  C   UNL     1      32.454 -14.554 -20.634  0.00  0.00    +0.016 C 
ATOM     22  C   UNL     1      33.092 -14.085 -22.917  0.00  0.00    +0.016 C 
ATOM     23  C   UNL     1      34.020 -15.999 -21.773  0.00  0.00    +0.122 C 
ATOM     24  C   UNL     1      33.285 -15.674 -20.633  0.00  0.00    +0.021 C 
ATOM     25  C   UNL     1      33.923 -15.205 -22.915  0.00  0.00    +0.021 C 
BRANCH  23  26
ATOM     26  S   UNL     1      35.060 -17.401 -21.769  0.00  0.00    +0.057 S 
ATOM     27  O   UNL     1      35.683 -17.508 -20.458  0.00  0.00    -0.153 OA
ATOM     28  O   UNL     1      34.317 -18.531 -22.311  0.00  0.00    -0.153 OA
BRANCH  26  29
ATOM     29  N   UNL     1      36.246 -16.930 -22.906  0.00  0.00    -0.203 NA
ATOM     30  H   UNL     1      36.744 -17.754 -23.240  0.00  0.00    +0.144 HD
ATOM     31  H   UNL     1      36.906 -16.291 -22.463  0.00  0.00    +0.144 HD
ENDBRANCH  26  29
ENDBRANCH  23  26
ENDBRANCH  18  20
ENDBRANCH   8  18
TORSDOF 5
ENDMDL
MODEL 7
REMARK VINA RESULT:      -9.0      7.938     11.534
REMARK  Name = 23586146
REMARK  5 active torsions:
REMARK  status: ('A' for Active; 'I' for Inactive)
REMARK    1  A    between atoms: N_1  and  C_12
REMARK    2  A    between atoms: C_8  and  N_18
REMARK    3  A    between atoms: N_18  and  C_20
REMARK    4  A    between atoms: C_23  and  S_26
REMARK    5  A    between atoms: S_26  and  N_29
REMARK                            x       y       z     vdW  Elec       q    Type
REMARK                         _______ _______ _______ _____ _____    ______ ____
ROOT
ATOM      1  N   UNL     1      35.350 -17.434 -21.791  0.00  0.00    -0.309 N 
ATOM      2  N   UNL     1      34.727 -16.665 -23.863  0.00  0.00    -0.321 NA
ATOM      3  N   UNL     1      33.309 -14.730 -24.003  0.00  0.00    -0.106 N 
ATOM      4  N   UNL     1      32.727 -13.972 -24.969  0.00  0.00    -0.139 NA
ATOM      5  N   UNL     1      33.928 -15.658 -25.916  0.00  0.00    -0.145 NA
ATOM      6  C   UNL     1      34.684 -16.553 -22.556  0.00  0.00    +0.196 C 
ATOM      7  C   UNL     1      33.912 -15.468 -21.855  0.00  0.00    +0.081 C 
ATOM      8  C   UNL     1      33.245 -14.586 -22.614  0.00  0.00    +0.140 C 
ATOM      9  C   UNL     1      34.040 -15.756 -24.606  0.00  0.00    +0.176 C 
ATOM     10  C   UNL     1      33.132 -14.572 -26.084  0.00  0.00    +0.230 C 
ATOM     11  H   UNL     1      35.295 -17.346 -20.813  0.00  0.00    +0.149 HD
ENDROOT
BRANCH   1  12
ATOM     12  C   UNL     1      36.148 -18.512 -22.347  0.00  0.00    +0.071 C 
ATOM     13  C   UNL     1      37.426 -18.699 -21.524  0.00  0.00    +0.020 C 
ATOM     14  C   UNL     1      35.322 -19.801 -22.404  0.00  0.00    +0.020 C 
ATOM     15  C   UNL     1      37.159 -19.301 -20.144  0.00  0.00    +0.002 C 
ATOM     16  C   UNL     1      35.063 -20.399 -21.021  0.00  0.00    +0.002 C 
ATOM     17  C   UNL     1      36.358 -20.595 -20.240  0.00  0.00    +0.000 C 
ENDBRANCH   1  12
BRANCH   8  18
ATOM     18  N   UNL     1      32.504 -13.552 -22.119  0.00  0.00    -0.299 N 
ATOM     19  H   UNL     1      31.782 -13.800 -21.497  0.00  0.00    +0.153 HD
BRANCH  18  20
ATOM     20  C   UNL     1      32.639 -12.184 -22.380  0.00  0.00    +0.049 C 
ATOM     21  C   UNL     1      31.735 -11.275 -21.828  0.00  0.00    +0.016 C 
ATOM     22  C   UNL     1      33.677 -11.728 -23.192  0.00  0.00    +0.016 C 
ATOM     23  C   UNL     1      32.909  -9.456 -22.901  0.00  0.00    +0.122 C 
ATOM     24  C   UNL     1      31.871  -9.911 -22.088  0.00  0.00    +0.021 C 
ATOM     25  C   UNL     1      33.812 -10.364 -23.452  0.00  0.00    +0.021 C 
BRANCH  23  26
ATOM     26  S   UNL     1      33.078  -7.749 -23.226  0.00  0.00    +0.057 S 
ATOM     27  O   UNL     1      34.250  -7.556 -24.068  0.00  0.00    -0.153 OA
ATOM     28  O   UNL     1      31.787  -7.229 -23.654  0.00  0.00    -0.153 OA
BRANCH  26  29
ATOM     29  N   UNL     1      33.419  -7.151 -21.662  0.00  0.00    -0.203 NA
ATOM     30  H   UNL     1      32.908  -7.698 -20.970  0.00  0.00    +0.144 HD
ATOM     31  H   UNL     1      33.133  -6.174 -21.602  0.00  0.00    +0.144 HD
ENDBRANCH  26  29
ENDBRANCH  23  26
ENDBRANCH  18  20
ENDBRANCH   8  18
TORSDOF 5
ENDMDL
MODEL 8
REMARK VINA RESULT:      -8.7      5.639      9.093
REMARK  Name = 23586146
REMARK  5 active torsions:
REMARK  status: ('A' for Active; 'I' for Inactive)
REMARK    1  A    between atoms: N_1  and  C_12
REMARK    2  A    between atoms: C_8  and  N_18
REMARK    3  A    between atoms: N_18  and  C_20
REMARK    4  A    between atoms: C_23  and  S_26
REMARK    5  A    between atoms: S_26  and  N_29
REMARK                            x       y       z     vdW  Elec       q    Type
REMARK                         _______ _______ _______ _____ _____    ______ ____
ROOT
ATOM      1  N   UNL     1      35.051 -19.992 -20.302  0.00  0.00    -0.309 N 
ATOM      2  N   UNL     1      34.660 -19.516 -22.513  0.00  0.00    -0.321 NA
ATOM      3  N   UNL     1      34.737 -17.227 -23.238  0.00  0.00    -0.106 N 
ATOM      4  N   UNL     1      34.577 -16.526 -24.392  0.00  0.00    -0.139 NA
ATOM      5  N   UNL     1      34.284 -18.750 -24.781  0.00  0.00    -0.145 NA
ATOM      6  C   UNL     1      34.940 -19.101 -21.300  0.00  0.00    +0.196 C 
ATOM      7  C   UNL     1      35.147 -17.649 -20.964  0.00  0.00    +0.081 C 
ATOM      8  C   UNL     1      35.037 -16.755 -21.958  0.00  0.00    +0.140 C 
ATOM      9  C   UNL     1      34.554 -18.586 -23.501  0.00  0.00    +0.176 C 
ATOM     10  C   UNL     1      34.310 -17.486 -25.272  0.00  0.00    +0.230 C 
ATOM     11  H   UNL     1      35.247 -19.663 -19.396  0.00  0.00    +0.149 HD
ENDROOT
BRANCH   1  12
ATOM     12  C   UNL     1      34.896 -21.421 -20.503  0.00  0.00    +0.071 C 
ATOM     13  C   UNL     1      36.005 -22.179 -19.766  0.00  0.00    +0.020 C 
ATOM     14  C   UNL     1      33.506 -21.868 -20.039  0.00  0.00    +0.020 C 
ATOM     15  C   UNL     1      35.838 -22.143 -18.246  0.00  0.00    +0.002 C 
ATOM     16  C   UNL     1      33.348 -21.833 -18.520  0.00  0.00    +0.002 C 
ATOM     17  C   UNL     1      34.454 -22.618 -17.820  0.00  0.00    +0.000 C 
ENDBRANCH   1  12
BRANCH   8  18
ATOM     18  N   UNL     1      35.197 -15.408 -21.801  0.00  0.00    -0.299 N 
ATOM     19  H   UNL     1      36.124 -15.080 -21.833  0.00  0.00    +0.153 HD
BRANCH  18  20
ATOM     20  C   UNL     1      34.212 -14.434 -21.601  0.00  0.00    +0.049 C 
ATOM     21  C   UNL     1      34.012 -13.437 -22.557  0.00  0.00    +0.016 C 
ATOM     22  C   UNL     1      33.430 -14.459 -20.446  0.00  0.00    +0.016 C 
ATOM     23  C   UNL     1      32.248 -12.493 -21.202  0.00  0.00    +0.122 C 
ATOM     24  C   UNL     1      33.030 -12.467 -22.358  0.00  0.00    +0.021 C 
ATOM     25  C   UNL     1      32.448 -13.489 -20.248  0.00  0.00    +0.021 C 
BRANCH  23  26
ATOM     26  S   UNL     1      31.019 -11.279 -20.954  0.00  0.00    +0.057 S 
ATOM     27  O   UNL     1      30.888 -10.501 -22.178  0.00  0.00    -0.153 OA
ATOM     28  O   UNL     1      29.846 -11.918 -20.375  0.00  0.00    -0.153 OA
BRANCH  26  29
ATOM     29  N   UNL     1      31.759 -10.305 -19.760  0.00  0.00    -0.203 NA
ATOM     30  H   UNL     1      32.243  -9.528 -20.207  0.00  0.00    +0.144 HD
ATOM     31  H   UNL     1      32.429 -10.865 -19.232  0.00  0.00    +0.144 HD
ENDBRANCH  26  29
ENDBRANCH  23  26
ENDBRANCH  18  20
ENDBRANCH   8  18
TORSDOF 5
ENDMDL
