MODEL 1
REMARK VINA RESULT:     -11.7      0.000      0.000
REMARK  Name = 3822
REMARK  5 active torsions:
REMARK  status: ('A' for Active; 'I' for Inactive)
REMARK    1  A    between atoms: N_1  and  C_17
REMARK    2  A    between atoms: C_2  and  C_9
REMARK    3  A    between atoms: C_9  and  C_11
REMARK    4  A    between atoms: C_17  and  C_18
REMARK    5  A    between atoms: C_18  and  N_21
REMARK                            x       y       z     vdW  Elec       q    Type
REMARK                         _______ _______ _______ _____ _____    ______ ____
ROOT
ATOM      1  N   UNL     1      36.144 -20.516 -20.451  0.00  0.00    +0.388 N 
ATOM      2  C   UNL     1      35.782 -18.597 -22.644  0.00  0.00    +0.058 C 
ATOM      3  C   UNL     1      37.144 -18.864 -22.003  0.00  0.00    -0.015 C 
ATOM      4  C   UNL     1      34.805 -19.742 -22.382  0.00  0.00    -0.015 C 
ATOM      5  C   UNL     1      37.036 -19.355 -20.556  0.00  0.00    -0.077 C 
ATOM      6  C   UNL     1      34.792 -20.183 -20.915  0.00  0.00    -0.077 C 
ATOM      7  H   UNL     1      36.512 -21.255 -21.050  0.00  0.00    -0.080 HD
ENDROOT
BRANCH   2   9
ATOM      8  O   UNL     1      35.221 -17.000 -20.974  0.00  0.00    -0.291 OA
ATOM      9  C   UNL     1      35.201 -17.298 -22.165  0.00  0.00    +0.172 C 
BRANCH   9  11
ATOM     10  F   UNL     1      32.929 -13.807 -25.884  0.00  0.00    -0.204 F 
ATOM     11  C   UNL     1      34.595 -16.366 -23.158  0.00  0.00    +0.035 C 
ATOM     12  C   UNL     1      34.580 -16.732 -24.486  0.00  0.00    +0.005 C 
ATOM     13  C   UNL     1      34.070 -15.174 -22.711  0.00  0.00    +0.005 C 
ATOM     14  C   UNL     1      34.013 -15.860 -25.415  0.00  0.00    +0.030 C 
ATOM     15  C   UNL     1      33.503 -14.302 -23.640  0.00  0.00    +0.030 C 
ATOM     16  C   UNL     1      33.474 -14.644 -24.992  0.00  0.00    +0.140 C 
ENDBRANCH   9  11
ENDBRANCH   2   9
BRANCH   1  17
ATOM     17  C   UNL     1      36.104 -21.007 -19.072  0.00  0.00    -0.052 C 
BRANCH  17  18
ATOM     18  C   UNL     1      35.638 -22.454 -19.040  0.00  0.00    +0.091 C 
BRANCH  18  21
ATOM     19  O   UNL     1      32.884 -22.723 -18.881  0.00  0.00    -0.267 OA
ATOM     20  O   UNL     1      36.958 -22.844 -16.592  0.00  0.00    -0.246 OA
ATOM     21  N   UNL     1      34.961 -22.756 -17.809  0.00  0.00    -0.251 N 
ATOM     22  N   UNL     1      35.013 -23.221 -15.472  0.00  0.00    -0.306 N 
ATOM     23  C   UNL     1      33.549 -22.866 -17.858  0.00  0.00    +0.265 A 
ATOM     24  C   UNL     1      35.728 -22.934 -16.624  0.00  0.00    +0.330 A 
ATOM     25  C   UNL     1      32.865 -23.174 -16.586  0.00  0.00    +0.072 A 
ATOM     26  C   UNL     1      33.621 -23.342 -15.430  0.00  0.00    +0.065 A 
ATOM     27  C   UNL     1      31.474 -23.297 -16.537  0.00  0.00    +0.006 C 
ATOM     28  C   UNL     1      32.992 -23.634 -14.217  0.00  0.00    +0.017 C 
ATOM     29  C   UNL     1      30.845 -23.588 -15.324  0.00  0.00    +0.000 C 
ATOM     30  C   UNL     1      31.604 -23.757 -14.167  0.00  0.00    +0.001 C 
ATOM     31  H   UNL     1      35.515 -23.349 -14.635  0.00  0.00    +0.170 HD
ENDBRANCH  18  21
ENDBRANCH  17  18
ENDBRANCH   1  17
TORSDOF 5
ENDMDL
MODEL 2
REMARK VINA RESULT:     -11.5      0.681      2.031
REMARK  Name = 3822
REMARK  5 active torsions:
REMARK  status: ('A' for Active; 'I' for Inactive)
REMARK    1  A    between atoms: N_1  and  C_17
REMARK    2  A    between atoms: C_2  and  C_9
REMARK    3  A    between atoms: C_9  and  C_11
REMARK    4  A    between atoms: C_17  and  C_18
REMARK    5  A    between atoms: C_18  and  N_21
REMARK                            x       y       z     vdW  Elec       q    Type
REMARK                         _______ _______ _______ _____ _____    ______ ____
ROOT
ATOM      1  N   UNL     1      36.034 -20.488 -20.450  0.00  0.00    +0.388 N 
ATOM      2  C   UNL     1      35.768 -18.572 -22.660  0.00  0.00    +0.058 C 
ATOM      3  C   UNL     1      37.107 -18.863 -21.983  0.00  0.00    -0.015 C 
ATOM      4  C   UNL     1      34.762 -19.695 -22.418  0.00  0.00    -0.015 C 
ATOM      5  C   UNL     1      36.953 -19.345 -20.538  0.00  0.00    -0.077 C 
ATOM      6  C   UNL     1      34.702 -20.129 -20.951  0.00  0.00    -0.077 C 
ATOM      7  H   UNL     1      36.402 -21.237 -21.037  0.00  0.00    -0.080 HD
ENDROOT
BRANCH   2   9
ATOM      8  O   UNL     1      35.238 -16.936 -21.017  0.00  0.00    -0.291 OA
ATOM      9  C   UNL     1      35.202 -17.259 -22.201  0.00  0.00    +0.172 C 
BRANCH   9  11
ATOM     10  F   UNL     1      32.912 -13.832 -25.968  0.00  0.00    -0.204 F 
ATOM     11  C   UNL     1      34.590 -16.344 -23.206  0.00  0.00    +0.035 C 
ATOM     12  C   UNL     1      34.086 -15.136 -22.781  0.00  0.00    +0.005 C 
ATOM     13  C   UNL     1      34.553 -16.741 -24.525  0.00  0.00    +0.005 C 
ATOM     14  C   UNL     1      33.514 -14.279 -23.722  0.00  0.00    +0.030 C 
ATOM     15  C   UNL     1      33.981 -15.885 -25.466  0.00  0.00    +0.030 C 
ATOM     16  C   UNL     1      33.461 -14.654 -25.065  0.00  0.00    +0.140 C 
ENDBRANCH   9  11
ENDBRANCH   2   9
BRANCH   1  17
ATOM     17  C   UNL     1      35.949 -20.971 -19.071  0.00  0.00    -0.052 C 
BRANCH  17  18
ATOM     18  C   UNL     1      35.627 -22.458 -19.052  0.00  0.00    +0.091 C 
BRANCH  18  21
ATOM     19  O   UNL     1      36.198 -23.186 -16.438  0.00  0.00    -0.267 OA
ATOM     20  O   UNL     1      32.880 -22.344 -19.622  0.00  0.00    -0.246 OA
ATOM     21  N   UNL     1      34.601 -22.756 -18.091  0.00  0.00    -0.251 N 
ATOM     22  N   UNL     1      32.299 -22.969 -17.512  0.00  0.00    -0.306 N 
ATOM     23  C   UNL     1      35.021 -23.118 -16.787  0.00  0.00    +0.265 A 
ATOM     24  C   UNL     1      33.237 -22.667 -18.486  0.00  0.00    +0.330 A 
ATOM     25  C   UNL     1      33.957 -23.424 -15.810  0.00  0.00    +0.072 A 
ATOM     26  C   UNL     1      32.626 -23.339 -16.205  0.00  0.00    +0.065 A 
ATOM     27  C   UNL     1      34.277 -23.795 -14.501  0.00  0.00    +0.006 C 
ATOM     28  C   UNL     1      31.604 -23.625 -15.295  0.00  0.00    +0.017 C 
ATOM     29  C   UNL     1      33.256 -24.081 -13.592  0.00  0.00    +0.000 C 
ATOM     30  C   UNL     1      31.922 -23.995 -13.989  0.00  0.00    +0.001 C 
ATOM     31  H   UNL     1      31.346 -22.918 -17.756  0.00  0.00    +0.170 HD
ENDBRANCH  18  21
ENDBRANCH  17  18
ENDBRANCH   1  17
TORSDOF 5
ENDMDL
MODEL 3
REMARK VINA RESULT:     -10.8      4.810     10.440
REMARK  Name = 3822
REMARK  5 active torsions:
REMARK  status: ('A' for Active; 'I' for Inactive)
REMARK    1  A    between atoms: N_1  and  C_17
REMARK    2  A    between atoms: C_2  and  C_9
REMARK    3  A    between atoms: C_9  and  C_11
REMARK    4  A    between atoms: C_17  and  C_18
REMARK    5  A    between atoms: C_18  and  N_21
REMARK                            x       y       z     vdW  Elec       q    Type
REMARK                         _______ _______ _______ _____ _____    ______ ____
ROOT
ATOM      1  N   UNL     1      34.388 -15.536 -21.654  0.00  0.00    +0.388 N 
ATOM      2  C   UNL     1      35.764 -18.025 -22.386  0.00  0.00    +0.058 C 
ATOM      3  C   UNL     1      35.436 -16.937 -23.408  0.00  0.00    -0.015 C 
ATOM      4  C   UNL     1      35.760 -17.475 -20.961  0.00  0.00    -0.015 C 
ATOM      5  C   UNL     1      34.229 -16.085 -23.007  0.00  0.00    -0.077 C 
ATOM      6  C   UNL     1      34.530 -16.612 -20.665  0.00  0.00    -0.077 C 
ATOM      7  H   UNL     1      35.240 -14.975 -21.637  0.00  0.00    -0.080 HD
ENDROOT
BRANCH   2   9
ATOM      8  O   UNL     1      34.217 -19.407 -23.549  0.00  0.00    -0.291 OA
ATOM      9  C   UNL     1      34.813 -19.181 -22.500  0.00  0.00    +0.172 C 
BRANCH   9  11
ATOM     10  F   UNL     1      34.009 -22.476 -18.064  0.00  0.00    -0.204 F 
ATOM     11  C   UNL     1      34.598 -20.060 -21.315  0.00  0.00    +0.035 C 
ATOM     12  C   UNL     1      33.317 -20.229 -20.840  0.00  0.00    +0.005 C 
ATOM     13  C   UNL     1      35.690 -20.673 -20.740  0.00  0.00    +0.005 C 
ATOM     14  C   UNL     1      33.116 -21.053 -19.732  0.00  0.00    +0.030 C 
ATOM     15  C   UNL     1      35.489 -21.496 -19.632  0.00  0.00    +0.030 C 
ATOM     16  C   UNL     1      34.202 -21.686 -19.128  0.00  0.00    +0.140 C 
ENDBRANCH   9  11
ENDBRANCH   2   9
BRANCH   1  17
ATOM     17  C   UNL     1      33.254 -14.676 -21.314  0.00  0.00    -0.052 C 
BRANCH  17  18
ATOM     18  C   UNL     1      32.621 -14.113 -22.578  0.00  0.00    +0.091 C 
BRANCH  18  21
ATOM     19  O   UNL     1      31.322 -12.282 -20.951  0.00  0.00    -0.267 OA
ATOM     20  O   UNL     1      34.395 -12.941 -24.413  0.00  0.00    -0.246 OA
ATOM     21  N   UNL     1      32.839 -12.696 -22.682  0.00  0.00    -0.251 N 
ATOM     22  N   UNL     1      33.922 -10.832 -23.697  0.00  0.00    -0.306 N 
ATOM     23  C   UNL     1      32.113 -11.864 -21.795  0.00  0.00    +0.265 A 
ATOM     24  C   UNL     1      33.761 -12.208 -23.649  0.00  0.00    +0.330 A 
ATOM     25  C   UNL     1      32.344 -10.410 -21.913  0.00  0.00    +0.072 A 
ATOM     26  C   UNL     1      33.244  -9.940 -22.864  0.00  0.00    +0.065 A 
ATOM     27  C   UNL     1      31.668  -9.511 -21.082  0.00  0.00    +0.006 C 
ATOM     28  C   UNL     1      33.476  -8.567 -22.992  0.00  0.00    +0.017 C 
ATOM     29  C   UNL     1      31.900  -8.140 -21.211  0.00  0.00    +0.000 C 
ATOM     30  C   UNL     1      32.803  -7.670 -22.164  0.00  0.00    +0.001 C 
ATOM     31  H   UNL     1      34.553 -10.463 -24.357  0.00  0.00    +0.170 HD
ENDBRANCH  18  21
ENDBRANCH  17  18
ENDBRANCH   1  17
TORSDOF 5
ENDMDL
MODEL 4
REMARK VINA RESULT:     -10.8      4.248      9.378
REMARK  Name = 3822
REMARK  5 active torsions:
REMARK  status: ('A' for Active; 'I' for Inactive)
REMARK    1  A    between atoms: N_1  and  C_17
REMARK    2  A    between atoms: C_2  and  C_9
REMARK    3  A    between atoms: C_9  and  C_11
REMARK    4  A    between atoms: C_17  and  C_18
REMARK    5  A    between atoms: C_18  and  N_21
REMARK                            x       y       z     vdW  Elec       q    Type
REMARK                         _______ _______ _______ _____ _____    ______ ____
ROOT
ATOM      1  N   UNL     1      35.722 -17.244 -23.008  0.00  0.00    +0.388 N 
ATOM      2  C   UNL     1      35.502 -19.945 -21.877  0.00  0.00    +0.058 C 
ATOM      3  C   UNL     1      35.042 -19.609 -23.295  0.00  0.00    -0.015 C 
ATOM      4  C   UNL     1      36.493 -18.909 -21.349  0.00  0.00    -0.015 C 
ATOM      5  C   UNL     1      34.650 -18.138 -23.463  0.00  0.00    -0.077 C 
ATOM      6  C   UNL     1      36.028 -17.471 -21.591  0.00  0.00    -0.077 C 
ATOM      7  H   UNL     1      36.561 -17.452 -23.551  0.00  0.00    -0.080 HD
ENDROOT
BRANCH   2   9
ATOM      8  O   UNL     1      33.335 -19.369 -21.083  0.00  0.00    -0.291 OA
ATOM      9  C   UNL     1      34.334 -20.070 -20.942  0.00  0.00    +0.172 C 
BRANCH   9  11
ATOM     10  F   UNL     1      34.574 -23.787 -16.782  0.00  0.00    -0.204 F 
ATOM     11  C   UNL     1      34.398 -21.063 -19.832  0.00  0.00    +0.035 C 
ATOM     12  C   UNL     1      35.633 -21.462 -19.372  0.00  0.00    +0.005 C 
ATOM     13  C   UNL     1      33.219 -21.542 -19.306  0.00  0.00    +0.005 C 
ATOM     14  C   UNL     1      35.693 -22.391 -18.333  0.00  0.00    +0.030 C 
ATOM     15  C   UNL     1      33.279 -22.471 -18.266  0.00  0.00    +0.030 C 
ATOM     16  C   UNL     1      34.515 -22.895 -17.780  0.00  0.00    +0.140 C 
ENDBRANCH   9  11
ENDBRANCH   2   9
BRANCH   1  17
ATOM     17  C   UNL     1      35.352 -15.846 -23.234  0.00  0.00    -0.052 C 
BRANCH  17  18
ATOM     18  C   UNL     1      33.851 -15.725 -23.452  0.00  0.00    +0.091 C 
BRANCH  18  21
ATOM     19  O   UNL     1      32.905 -15.447 -20.861  0.00  0.00    -0.267 OA
ATOM     20  O   UNL     1      33.751 -13.356 -24.956  0.00  0.00    -0.246 OA
ATOM     21  N   UNL     1      33.350 -14.479 -22.942  0.00  0.00    -0.251 N 
ATOM     22  N   UNL     1      32.846 -12.168 -23.238  0.00  0.00    -0.306 N 
ATOM     23  C   UNL     1      32.892 -14.466 -21.601  0.00  0.00    +0.265 A 
ATOM     24  C   UNL     1      33.344 -13.337 -23.791  0.00  0.00    +0.330 A 
ATOM     25  C   UNL     1      32.378 -13.180 -21.090  0.00  0.00    +0.072 A 
ATOM     26  C   UNL     1      32.371 -12.069 -21.927  0.00  0.00    +0.065 A 
ATOM     27  C   UNL     1      31.901 -13.073 -19.780  0.00  0.00    +0.006 C 
ATOM     28  C   UNL     1      31.887 -10.842 -21.463  0.00  0.00    +0.017 C 
ATOM     29  C   UNL     1      31.418 -11.848 -19.316  0.00  0.00    +0.000 C 
ATOM     30  C   UNL     1      31.412 -10.735 -20.156  0.00  0.00    +0.001 C 
ATOM     31  H   UNL     1      32.827 -11.361 -23.801  0.00  0.00    +0.170 HD
ENDBRANCH  18  21
ENDBRANCH  17  18
ENDBRANCH   1  17
TORSDOF 5
ENDMDL
MODEL 5
REMARK VINA RESULT:     -10.8      1.107      2.326
REMARK  Name = 3822
REMARK  5 active torsions:
REMARK  status: ('A' for Active; 'I' for Inactive)
REMARK    1  A    between atoms: N_1  and  C_17
REMARK    2  A    between atoms: C_2  and  C_9
REMARK    3  A    between atoms: C_9  and  C_11
REMARK    4  A    between atoms: C_17  and  C_18
REMARK    5  A    between atoms: C_18  and  N_21
REMARK                            x       y       z     vdW  Elec       q    Type
REMARK                         _______ _______ _______ _____ _____    ______ ____
ROOT
ATOM      1  N   UNL     1      36.173 -20.547 -20.459  0.00  0.00    +0.388 N 
ATOM      2  C   UNL     1      35.850 -18.576 -22.613  0.00  0.00    +0.058 C 
ATOM      3  C   UNL     1      37.191 -18.827 -21.924  0.00  0.00    -0.015 C 
ATOM      4  C   UNL     1      34.893 -19.752 -22.421  0.00  0.00    -0.015 C 
ATOM      5  C   UNL     1      37.039 -19.361 -20.497  0.00  0.00    -0.077 C 
ATOM      6  C   UNL     1      34.833 -20.233 -20.969  0.00  0.00    -0.077 C 
ATOM      7  H   UNL     1      36.583 -21.260 -21.063  0.00  0.00    -0.080 HD
ENDROOT
BRANCH   2   9
ATOM      8  O   UNL     1      35.188 -17.037 -20.925  0.00  0.00    -0.291 OA
ATOM      9  C   UNL     1      35.217 -17.306 -22.123  0.00  0.00    +0.172 C 
BRANCH   9  11
ATOM     10  F   UNL     1      32.975 -13.785 -25.832  0.00  0.00    -0.204 F 
ATOM     11  C   UNL     1      34.619 -16.366 -23.113  0.00  0.00    +0.035 C 
ATOM     12  C   UNL     1      34.572 -16.742 -24.437  0.00  0.00    +0.005 C 
ATOM     13  C   UNL     1      34.134 -15.157 -22.667  0.00  0.00    +0.005 C 
ATOM     14  C   UNL     1      34.012 -15.862 -25.364  0.00  0.00    +0.030 C 
ATOM     15  C   UNL     1      33.573 -14.277 -23.593  0.00  0.00    +0.030 C 
ATOM     16  C   UNL     1      33.513 -14.629 -24.942  0.00  0.00    +0.140 C 
ENDBRANCH   9  11
ENDBRANCH   2   9
BRANCH   1  17
ATOM     17  C   UNL     1      36.090 -21.077 -19.097  0.00  0.00    -0.052 C 
BRANCH  17  18
ATOM     18  C   UNL     1      35.247 -22.343 -19.073  0.00  0.00    +0.091 C 
BRANCH  18  21
ATOM     19  O   UNL     1      37.240 -22.450 -17.149  0.00  0.00    -0.267 OA
ATOM     20  O   UNL     1      32.722 -23.136 -18.134  0.00  0.00    -0.246 OA
ATOM     21  N   UNL     1      34.998 -22.776 -17.726  0.00  0.00    -0.251 N 
ATOM     22  N   UNL     1      33.508 -23.566 -16.042  0.00  0.00    -0.306 N 
ATOM     23  C   UNL     1      36.101 -22.789 -16.836  0.00  0.00    +0.265 A 
ATOM     24  C   UNL     1      33.679 -23.157 -17.355  0.00  0.00    +0.330 A 
ATOM     25  C   UNL     1      35.832 -23.238 -15.456  0.00  0.00    +0.072 A 
ATOM     26  C   UNL     1      34.540 -23.614 -15.102  0.00  0.00    +0.065 A 
ATOM     27  C   UNL     1      36.860 -23.287 -14.509  0.00  0.00    +0.006 C 
ATOM     28  C   UNL     1      34.266 -24.042 -13.800  0.00  0.00    +0.017 C 
ATOM     29  C   UNL     1      36.586 -23.716 -13.209  0.00  0.00    +0.000 C 
ATOM     30  C   UNL     1      35.290 -24.092 -12.856  0.00  0.00    +0.001 C 
ATOM     31  H   UNL     1      32.606 -23.838 -15.755  0.00  0.00    +0.170 HD
ENDBRANCH  18  21
ENDBRANCH  17  18
ENDBRANCH   1  17
TORSDOF 5
ENDMDL
MODEL 6
REMARK VINA RESULT:     -10.4      4.224      9.252
REMARK  Name = 3822
REMARK  5 active torsions:
REMARK  status: ('A' for Active; 'I' for Inactive)
REMARK    1  A    between atoms: N_1  and  C_17
REMARK    2  A    between atoms: C_2  and  C_9
REMARK    3  A    between atoms: C_9  and  C_11
REMARK    4  A    between atoms: C_17  and  C_18
REMARK    5  A    between atoms: C_18  and  N_21
REMARK                            x       y       z     vdW  Elec       q    Type
REMARK                         _______ _______ _______ _____ _____    ______ ____
ROOT
ATOM      1  N   UNL     1      35.685 -17.176 -22.901  0.00  0.00    +0.388 N 
ATOM      2  C   UNL     1      35.502 -19.961 -21.986  0.00  0.00    +0.058 C 
ATOM      3  C   UNL     1      35.008 -19.515 -23.362  0.00  0.00    -0.015 C 
ATOM      4  C   UNL     1      36.501 -18.965 -21.400  0.00  0.00    -0.015 C 
ATOM      5  C   UNL     1      34.606 -18.038 -23.402  0.00  0.00    -0.077 C 
ATOM      6  C   UNL     1      36.025 -17.514 -21.514  0.00  0.00    -0.077 C 
ATOM      7  H   UNL     1      36.512 -17.335 -23.478  0.00  0.00    -0.080 HD
ENDROOT
BRANCH   2   9
ATOM      8  O   UNL     1      33.288 -19.586 -21.205  0.00  0.00    -0.291 OA
ATOM      9  C   UNL     1      34.357 -20.168 -21.038  0.00  0.00    +0.172 C 
BRANCH   9  11
ATOM     10  F   UNL     1      35.013 -23.637 -16.712  0.00  0.00    -0.204 F 
ATOM     11  C   UNL     1      34.532 -21.093 -19.883  0.00  0.00    +0.035 C 
ATOM     12  C   UNL     1      33.414 -21.664 -19.318  0.00  0.00    +0.005 C 
ATOM     13  C   UNL     1      35.806 -21.345 -19.425  0.00  0.00    +0.005 C 
ATOM     14  C   UNL     1      33.578 -22.531 -18.237  0.00  0.00    +0.030 C 
ATOM     15  C   UNL     1      35.970 -22.212 -18.344  0.00  0.00    +0.030 C 
ATOM     16  C   UNL     1      34.856 -22.805 -17.750  0.00  0.00    +0.140 C 
ENDBRANCH   9  11
ENDBRANCH   2   9
BRANCH   1  17
ATOM     17  C   UNL     1      35.304 -15.767 -23.005  0.00  0.00    -0.052 C 
BRANCH  17  18
ATOM     18  C   UNL     1      33.800 -15.639 -23.194  0.00  0.00    +0.091 C 
BRANCH  18  21
ATOM     19  O   UNL     1      33.311 -13.009 -23.921  0.00  0.00    -0.267 OA
ATOM     20  O   UNL     1      33.086 -16.234 -20.544  0.00  0.00    -0.246 OA
ATOM     21  N   UNL     1      33.241 -14.677 -22.284  0.00  0.00    -0.251 N 
ATOM     22  N   UNL     1      32.381 -14.108 -20.136  0.00  0.00    -0.306 N 
ATOM     23  C   UNL     1      33.040 -13.363 -22.776  0.00  0.00    +0.265 A 
ATOM     24  C   UNL     1      32.915 -15.085 -20.962  0.00  0.00    +0.330 A 
ATOM     25  C   UNL     1      32.467 -12.384 -21.832  0.00  0.00    +0.072 A 
ATOM     26  C   UNL     1      32.155 -12.789 -20.537  0.00  0.00    +0.065 A 
ATOM     27  C   UNL     1      32.238 -11.063 -22.226  0.00  0.00    +0.006 C 
ATOM     28  C   UNL     1      31.612 -11.877 -19.628  0.00  0.00    +0.017 C 
ATOM     29  C   UNL     1      31.696 -10.151 -21.318  0.00  0.00    +0.000 C 
ATOM     30  C   UNL     1      31.383 -10.559 -20.021  0.00  0.00    +0.001 C 
ATOM     31  H   UNL     1      32.146 -14.359 -19.214  0.00  0.00    +0.170 HD
ENDBRANCH  18  21
ENDBRANCH  17  18
ENDBRANCH   1  17
TORSDOF 5
ENDMDL
MODEL 7
REMARK VINA RESULT:     -10.4      1.680      2.384
REMARK  Name = 3822
REMARK  5 active torsions:
REMARK  status: ('A' for Active; 'I' for Inactive)
REMARK    1  A    between atoms: N_1  and  C_17
REMARK    2  A    between atoms: C_2  and  C_9
REMARK    3  A    between atoms: C_9  and  C_11
REMARK    4  A    between atoms: C_17  and  C_18
REMARK    5  A    between atoms: C_18  and  N_21
REMARK                            x       y       z     vdW  Elec       q    Type
REMARK                         _______ _______ _______ _____ _____    ______ ____
ROOT
ATOM      1  N   UNL     1      34.665 -19.492 -20.762  0.00  0.00    +0.388 N 
ATOM      2  C   UNL     1      35.742 -17.643 -22.774  0.00  0.00    +0.058 C 
ATOM      3  C   UNL     1      35.207 -17.166 -21.424  0.00  0.00    -0.015 C 
ATOM      4  C   UNL     1      36.104 -19.127 -22.741  0.00  0.00    -0.015 C 
ATOM      5  C   UNL     1      34.162 -18.113 -20.828  0.00  0.00    -0.077 C 
ATOM      6  C   UNL     1      35.012 -19.987 -22.099  0.00  0.00    -0.077 C 
ATOM      7  H   UNL     1      35.512 -19.494 -20.193  0.00  0.00    -0.080 HD
ENDROOT
BRANCH   2   9
ATOM      8  O   UNL     1      34.278 -18.294 -24.532  0.00  0.00    -0.291 OA
ATOM      9  C   UNL     1      34.757 -17.373 -23.875  0.00  0.00    +0.172 C 
BRANCH   9  11
ATOM     10  F   UNL     1      33.281 -12.099 -24.962  0.00  0.00    -0.204 F 
ATOM     11  C   UNL     1      34.363 -15.966 -24.164  0.00  0.00    +0.035 C 
ATOM     12  C   UNL     1      34.602 -15.002 -23.211  0.00  0.00    +0.005 C 
ATOM     13  C   UNL     1      33.775 -15.680 -25.377  0.00  0.00    +0.005 C 
ATOM     14  C   UNL     1      34.233 -13.684 -23.482  0.00  0.00    +0.030 C 
ATOM     15  C   UNL     1      33.406 -14.363 -25.649  0.00  0.00    +0.030 C 
ATOM     16  C   UNL     1      33.635 -13.365 -24.701  0.00  0.00    +0.140 C 
ENDBRANCH   9  11
ENDBRANCH   2   9
BRANCH   1  17
ATOM     17  C   UNL     1      33.675 -20.368 -20.133  0.00  0.00    -0.052 C 
BRANCH  17  18
ATOM     18  C   UNL     1      34.167 -21.807 -20.135  0.00  0.00    +0.091 C 
BRANCH  18  21
ATOM     19  O   UNL     1      32.673 -23.052 -18.159  0.00  0.00    -0.267 OA
ATOM     20  O   UNL     1      36.842 -21.348 -19.414  0.00  0.00    -0.246 OA
ATOM     21  N   UNL     1      34.722 -22.170 -18.860  0.00  0.00    -0.251 N 
ATOM     22  N   UNL     1      36.562 -22.264 -17.349  0.00  0.00    -0.306 N 
ATOM     23  C   UNL     1      33.855 -22.800 -17.933  0.00  0.00    +0.265 A 
ATOM     24  C   UNL     1      36.092 -21.890 -18.598  0.00  0.00    +0.330 A 
ATOM     25  C   UNL     1      34.436 -23.165 -16.627  0.00  0.00    +0.072 A 
ATOM     26  C   UNL     1      35.776 -22.885 -16.375  0.00  0.00    +0.065 A 
ATOM     27  C   UNL     1      33.655 -23.787 -15.648  0.00  0.00    +0.006 C 
ATOM     28  C   UNL     1      36.345 -23.222 -15.144  0.00  0.00    +0.017 C 
ATOM     29  C   UNL     1      34.224 -24.124 -14.418  0.00  0.00    +0.000 C 
ATOM     30  C   UNL     1      35.567 -23.842 -14.167  0.00  0.00    +0.001 C 
ATOM     31  H   UNL     1      37.507 -22.083 -17.137  0.00  0.00    +0.170 HD
ENDBRANCH  18  21
ENDBRANCH  17  18
ENDBRANCH   1  17
TORSDOF 5
ENDMDL
MODEL 8
REMARK VINA RESULT:     -10.3      6.857     10.969
REMARK  Name = 3822
REMARK  5 active torsions:
REMARK  status: ('A' for Active; 'I' for Inactive)
REMARK    1  A    between atoms: N_1  and  C_17
REMARK    2  A    between atoms: C_2  and  C_9
REMARK    3  A    between atoms: C_9  and  C_11
REMARK    4  A    between atoms: C_17  and  C_18
REMARK    5  A    between atoms: C_18  and  N_21
REMARK                            x       y       z     vdW  Elec       q    Type
REMARK                         _______ _______ _______ _____ _____    ______ ____
ROOT
ATOM      1  N   UNL     1      32.909 -10.828 -22.276  0.00  0.00    +0.388 N 
ATOM      2  C   UNL     1      32.510  -7.938 -21.943  0.00  0.00    +0.058 C 
ATOM      3  C   UNL     1      31.832  -8.969 -21.041  0.00  0.00    -0.015 C 
ATOM      4  C   UNL     1      33.733  -8.525 -22.646  0.00  0.00    -0.015 C 
ATOM      5  C   UNL     1      31.644 -10.327 -21.724  0.00  0.00    -0.077 C 
ATOM      6  C   UNL     1      33.454  -9.896 -23.269  0.00  0.00    -0.077 C 
ATOM      7  H   UNL     1      33.580 -10.906 -21.511  0.00  0.00    -0.080 HD
ENDROOT
BRANCH   2   9
ATOM      8  O   UNL     1      30.549  -8.016 -23.287  0.00  0.00    -0.291 OA
ATOM      9  C   UNL     1      31.547  -7.383 -22.953  0.00  0.00    +0.172 C 
BRANCH   9  11
ATOM     10  F   UNL     1      32.555  -2.368 -25.191  0.00  0.00    -0.204 F 
ATOM     11  C   UNL     1      31.817  -6.044 -23.550  0.00  0.00    +0.035 C 
ATOM     12  C   UNL     1      32.637  -5.965 -24.653  0.00  0.00    +0.005 C 
ATOM     13  C   UNL     1      31.234  -4.936 -22.977  0.00  0.00    +0.005 C 
ATOM     14  C   UNL     1      32.889  -4.712 -25.212  0.00  0.00    +0.030 C 
ATOM     15  C   UNL     1      31.485  -3.683 -23.536  0.00  0.00    +0.030 C 
ATOM     16  C   UNL     1      32.313  -3.570 -24.654  0.00  0.00    +0.140 C 
ENDBRANCH   9  11
ENDBRANCH   2   9
BRANCH   1  17
ATOM     17  C   UNL     1      32.719 -12.153 -22.869  0.00  0.00    -0.052 C 
BRANCH  17  18
ATOM     18  C   UNL     1      33.840 -12.459 -23.849  0.00  0.00    +0.091 C 
BRANCH  18  21
ATOM     19  O   UNL     1      34.898 -14.166 -21.938  0.00  0.00    -0.267 OA
ATOM     20  O   UNL     1      33.045 -13.755 -26.211  0.00  0.00    -0.246 OA
ATOM     21  N   UNL     1      33.972 -13.874 -24.065  0.00  0.00    -0.251 N 
ATOM     22  N   UNL     1      33.693 -15.797 -25.444  0.00  0.00    -0.306 N 
ATOM     23  C   UNL     1      34.530 -14.639 -23.011  0.00  0.00    +0.265 A 
ATOM     24  C   UNL     1      33.537 -14.428 -25.301  0.00  0.00    +0.330 A 
ATOM     25  C   UNL     1      34.662 -16.091 -23.246  0.00  0.00    +0.072 A 
ATOM     26  C   UNL     1      34.238 -16.625 -24.459  0.00  0.00    +0.065 A 
ATOM     27  C   UNL     1      35.205 -16.925 -22.264  0.00  0.00    +0.006 C 
ATOM     28  C   UNL     1      34.355 -17.997 -24.700  0.00  0.00    +0.017 C 
ATOM     29  C   UNL     1      35.322 -18.295 -22.506  0.00  0.00    +0.000 C 
ATOM     30  C   UNL     1      34.897 -18.830 -23.722  0.00  0.00    +0.001 C 
ATOM     31  H   UNL     1      33.403 -16.211 -26.289  0.00  0.00    +0.170 HD
ENDBRANCH  18  21
ENDBRANCH  17  18
ENDBRANCH   1  17
TORSDOF 5
ENDMDL
MODEL 9
REMARK VINA RESULT:     -10.3      7.161     11.212
REMARK  Name = 3822
REMARK  5 active torsions:
REMARK  status: ('A' for Active; 'I' for Inactive)
REMARK    1  A    between atoms: N_1  and  C_17
REMARK    2  A    between atoms: C_2  and  C_9
REMARK    3  A    between atoms: C_9  and  C_11
REMARK    4  A    between atoms: C_17  and  C_18
REMARK    5  A    between atoms: C_18  and  N_21
REMARK                            x       y       z     vdW  Elec       q    Type
REMARK                         _______ _______ _______ _____ _____    ______ ____
ROOT
ATOM      1  N   UNL     1      31.751  -9.547 -21.051  0.00  0.00    +0.388 N 
ATOM      2  C   UNL     1      31.690  -6.809 -22.111  0.00  0.00    +0.058 C 
ATOM      3  C   UNL     1      30.982  -7.973 -22.804  0.00  0.00    -0.015 C 
ATOM      4  C   UNL     1      31.969  -7.118 -20.641  0.00  0.00    -0.015 C 
ATOM      5  C   UNL     1      31.624  -9.329 -22.498  0.00  0.00    -0.077 C 
ATOM      6  C   UNL     1      32.581  -8.506 -20.435  0.00  0.00    -0.077 C 
ATOM      7  H   UNL     1      30.818  -9.495 -20.639  0.00  0.00    -0.080 HD
ENDROOT
BRANCH   2   9
ATOM      8  O   UNL     1      34.045  -6.889 -22.431  0.00  0.00    -0.291 OA
ATOM      9  C   UNL     1      32.965  -6.451 -22.818  0.00  0.00    +0.172 C 
BRANCH   9  11
ATOM     10  F   UNL     1      32.748  -3.080 -27.264  0.00  0.00    -0.204 F 
ATOM     11  C   UNL     1      32.906  -5.551 -24.005  0.00  0.00    +0.035 C 
ATOM     12  C   UNL     1      32.095  -4.440 -23.954  0.00  0.00    +0.005 C 
ATOM     13  C   UNL     1      33.669  -5.864 -25.109  0.00  0.00    +0.005 C 
ATOM     14  C   UNL     1      32.041  -3.598 -25.065  0.00  0.00    +0.030 C 
ATOM     15  C   UNL     1      33.614  -5.022 -26.220  0.00  0.00    +0.030 C 
ATOM     16  C   UNL     1      32.801  -3.889 -26.198  0.00  0.00    +0.140 C 
ENDBRANCH   9  11
ENDBRANCH   2   9
BRANCH   1  17
ATOM     17  C   UNL     1      32.309 -10.873 -20.781  0.00  0.00    -0.052 C 
BRANCH  17  18
ATOM     18  C   UNL     1      31.666 -11.912 -21.687  0.00  0.00    +0.091 C 
BRANCH  18  21
ATOM     19  O   UNL     1      32.079 -14.111 -20.051  0.00  0.00    -0.267 OA
ATOM     20  O   UNL     1      33.204 -11.941 -24.036  0.00  0.00    -0.246 OA
ATOM     21  N   UNL     1      32.593 -12.959 -22.019  0.00  0.00    -0.251 N 
ATOM     22  N   UNL     1      34.201 -13.915 -23.495  0.00  0.00    -0.306 N 
ATOM     23  C   UNL     1      32.716 -14.029 -21.099  0.00  0.00    +0.265 A 
ATOM     24  C   UNL     1      33.323 -12.874 -23.237  0.00  0.00    +0.330 A 
ATOM     25  C   UNL     1      33.673 -15.097 -21.451  0.00  0.00    +0.072 A 
ATOM     26  C   UNL     1      34.387 -15.005 -22.641  0.00  0.00    +0.065 A 
ATOM     27  C   UNL     1      33.864 -16.191 -20.602  0.00  0.00    +0.006 C 
ATOM     28  C   UNL     1      35.298 -16.006 -22.992  0.00  0.00    +0.017 C 
ATOM     29  C   UNL     1      34.775 -17.190 -20.952  0.00  0.00    +0.000 C 
ATOM     30  C   UNL     1      35.489 -17.097 -22.146  0.00  0.00    +0.001 C 
ATOM     31  H   UNL     1      34.722 -13.885 -24.330  0.00  0.00    +0.170 HD
ENDBRANCH  18  21
ENDBRANCH  17  18
ENDBRANCH   1  17
TORSDOF 5
ENDMDL
