MODEL 1
REMARK VINA RESULT:     -11.8      0.000      0.000
REMARK  Name = 24883488
REMARK  8 active torsions:
REMARK  status: ('A' for Active; 'I' for Inactive)
REMARK    1  A    between atoms: N_2  and  C_11
REMARK    2  A    between atoms: C_3  and  C_19
REMARK    3  A    between atoms: C_19  and  C_20
REMARK    4  A    between atoms: C_20  and  C_23
REMARK    5  A    between atoms: N_22  and  C_25
REMARK    6  A    between atoms: C_27  and  O_31
REMARK    7  A    between atoms: O_31  and  C_32
REMARK    8  A    between atoms: C_32  and  C_34
REMARK                            x       y       z     vdW  Elec       q    Type
REMARK                         _______ _______ _______ _____ _____    ______ ____
ROOT
ATOM      1  O   UNL     1      33.107 -21.123 -20.052  0.00  0.00    -0.275 OA
ATOM      2  N   UNL     1      35.293 -20.339 -20.435  0.00  0.00    -0.284 N 
ATOM      3  C   UNL     1      34.314 -21.138 -19.832  0.00  0.00    +0.227 C 
ATOM      4  H   UNL     1      36.214 -20.473 -20.113  0.00  0.00    +0.155 HD
ENDROOT
BRANCH   2  11
ATOM      5  O   UNL     1      34.607 -15.278 -20.567  0.00  0.00    -0.282 OA
ATOM      6  O   UNL     1      34.654 -16.782 -25.687  0.00  0.00    -0.270 OA
ATOM      7  O   UNL     1      34.304 -13.469 -22.484  0.00  0.00    -0.266 OA
ATOM      8  N   UNL     1      34.477 -15.129 -24.098  0.00  0.00    -0.246 N 
ATOM      9  C   UNL     1      34.802 -17.076 -22.092  0.00  0.00    +0.049 C 
ATOM     10  C   UNL     1      34.812 -17.451 -23.435  0.00  0.00    +0.057 C 
ATOM     11  C   UNL     1      35.131 -19.378 -21.433  0.00  0.00    +0.050 C 
ATOM     12  C   UNL     1      34.961 -18.037 -21.087  0.00  0.00    +0.018 C 
ATOM     13  C   UNL     1      34.983 -18.798 -23.775  0.00  0.00    +0.006 C 
ATOM     14  C   UNL     1      35.143 -19.758 -22.774  0.00  0.00    +0.015 C 
ATOM     15  C   UNL     1      34.623 -15.665 -21.725  0.00  0.00    +0.249 C 
ATOM     16  C   UNL     1      34.644 -16.447 -24.506  0.00  0.00    +0.252 C 
ATOM     17  C   UNL     1      34.451 -14.639 -22.805  0.00  0.00    +0.291 C 
ATOM     18  H   UNL     1      34.366 -14.464 -24.816  0.00  0.00    +0.158 HD
ENDBRANCH   2  11
BRANCH   3  19
ATOM     19  C   UNL     1      34.894 -22.068 -18.780  0.00  0.00    +0.095 C 
BRANCH  19  20
ATOM     20  C   UNL     1      36.388 -21.823 -18.587  0.00  0.00    +0.095 C 
BRANCH  20  23
ATOM     21  O   UNL     1      37.649 -21.333 -16.616  0.00  0.00    -0.275 OA
ATOM     22  N   UNL     1      36.099 -23.099 -16.564  0.00  0.00    -0.284 N 
ATOM     23  C   UNL     1      36.804 -22.051 -17.143  0.00  0.00    +0.227 C 
ATOM     24  H   UNL     1      35.439 -23.549 -17.140  0.00  0.00    +0.155 HD
BRANCH  22  25
ATOM     25  C   UNL     1      36.215 -23.595 -15.246  0.00  0.00    +0.053 C 
ATOM     26  C   UNL     1      37.464 -23.969 -14.748  0.00  0.00    +0.052 C 
ATOM     27  C   UNL     1      37.579 -24.460 -13.447  0.00  0.00    +0.140 C 
ATOM     28  C   UNL     1      35.082 -23.713 -14.442  0.00  0.00    +0.015 C 
ATOM     29  C   UNL     1      36.444 -24.576 -12.644  0.00  0.00    +0.037 C 
ATOM     30  C   UNL     1      35.195 -24.203 -13.141  0.00  0.00    +0.004 C 
BRANCH  27  31
ATOM     31  O   UNL     1      38.797 -24.824 -12.962  0.00  0.00    -0.472 OA
BRANCH  31  32
ATOM     32  C   UNL     1      39.279 -26.117 -13.323  0.00  0.00    +0.243 C 
BRANCH  32  34
ATOM     33  F   UNL     1      40.340 -25.887 -15.392  0.00  0.00    -0.230 F 
ATOM     34  C   UNL     1      40.593 -25.960 -14.055  0.00  0.00    +0.240 C 
ENDBRANCH  32  34
ENDBRANCH  31  32
ENDBRANCH  27  31
ENDBRANCH  22  25
ENDBRANCH  20  23
ENDBRANCH  19  20
ENDBRANCH   3  19
TORSDOF 8
ENDMDL
MODEL 2
REMARK VINA RESULT:     -11.6      5.089     11.596
REMARK  Name = 24883488
REMARK  8 active torsions:
REMARK  status: ('A' for Active; 'I' for Inactive)
REMARK    1  A    between atoms: N_2  and  C_11
REMARK    2  A    between atoms: C_3  and  C_19
REMARK    3  A    between atoms: C_19  and  C_20
REMARK    4  A    between atoms: C_20  and  C_23
REMARK    5  A    between atoms: N_22  and  C_25
REMARK    6  A    between atoms: C_27  and  O_31
REMARK    7  A    between atoms: O_31  and  C_32
REMARK    8  A    between atoms: C_32  and  C_34
REMARK                            x       y       z     vdW  Elec       q    Type
REMARK                         _______ _______ _______ _____ _____    ______ ____
ROOT
ATOM      1  O   UNL     1      34.600 -15.999 -21.495  0.00  0.00    -0.275 OA
ATOM      2  N   UNL     1      35.526 -17.806 -22.687  0.00  0.00    -0.284 N 
ATOM      3  C   UNL     1      35.037 -16.504 -22.525  0.00  0.00    +0.227 C 
ATOM      4  H   UNL     1      35.812 -18.046 -23.598  0.00  0.00    +0.155 HD
ENDROOT
BRANCH   2  11
ATOM      5  O   UNL     1      32.359 -21.007 -20.274  0.00  0.00    -0.282 OA
ATOM      6  O   UNL     1      37.194 -22.142 -18.321  0.00  0.00    -0.270 OA
ATOM      7  O   UNL     1      32.637 -22.906 -18.443  0.00  0.00    -0.266 OA
ATOM      8  N   UNL     1      34.927 -22.526 -18.375  0.00  0.00    -0.246 N 
ATOM      9  C   UNL     1      34.669 -20.505 -20.317  0.00  0.00    +0.049 C 
ATOM     10  C   UNL     1      35.926 -20.815 -19.796  0.00  0.00    +0.057 C 
ATOM     11  C   UNL     1      35.658 -18.806 -21.724  0.00  0.00    +0.050 C 
ATOM     12  C   UNL     1      34.532 -19.500 -21.281  0.00  0.00    +0.018 C 
ATOM     13  C   UNL     1      37.052 -20.114 -20.244  0.00  0.00    +0.006 C 
ATOM     14  C   UNL     1      36.916 -19.113 -21.207  0.00  0.00    +0.015 C 
ATOM     15  C   UNL     1      33.482 -21.234 -19.852  0.00  0.00    +0.249 C 
ATOM     16  C   UNL     1      36.086 -21.872 -18.776  0.00  0.00    +0.252 C 
ATOM     17  C   UNL     1      33.635 -22.308 -18.818  0.00  0.00    +0.291 C 
ATOM     18  H   UNL     1      35.039 -23.230 -17.696  0.00  0.00    +0.158 HD
ENDBRANCH   2  11
BRANCH   3  19
ATOM     19  C   UNL     1      35.053 -15.714 -23.823  0.00  0.00    +0.095 C 
BRANCH  19  20
ATOM     20  C   UNL     1      33.690 -15.089 -24.109  0.00  0.00    +0.095 C 
BRANCH  20  23
ATOM     21  O   UNL     1      34.187 -12.771 -23.805  0.00  0.00    -0.275 OA
ATOM     22  N   UNL     1      32.610 -13.790 -22.392  0.00  0.00    -0.284 N 
ATOM     23  C   UNL     1      33.544 -13.743 -23.420  0.00  0.00    +0.227 C 
ATOM     24  H   UNL     1      32.174 -14.660 -22.242  0.00  0.00    +0.155 HD
BRANCH  22  25
ATOM     25  C   UNL     1      32.212 -12.738 -21.536  0.00  0.00    +0.053 C 
ATOM     26  C   UNL     1      32.111 -11.437 -22.029  0.00  0.00    +0.052 C 
ATOM     27  C   UNL     1      31.719 -10.398 -21.184  0.00  0.00    +0.140 C 
ATOM     28  C   UNL     1      31.921 -13.000 -20.197  0.00  0.00    +0.015 C 
ATOM     29  C   UNL     1      31.428 -10.662 -19.845  0.00  0.00    +0.037 C 
ATOM     30  C   UNL     1      31.529 -11.963 -19.352  0.00  0.00    +0.004 C 
BRANCH  27  31
ATOM     31  O   UNL     1      31.621  -9.129 -21.664  0.00  0.00    -0.472 OA
BRANCH  31  32
ATOM     32  C   UNL     1      32.321  -8.110 -20.953  0.00  0.00    +0.243 C 
BRANCH  32  34
ATOM     33  F   UNL     1      34.036  -8.412 -22.510  0.00  0.00    -0.230 F 
ATOM     34  C   UNL     1      33.302  -7.445 -21.893  0.00  0.00    +0.240 C 
ENDBRANCH  32  34
ENDBRANCH  31  32
ENDBRANCH  27  31
ENDBRANCH  22  25
ENDBRANCH  20  23
ENDBRANCH  19  20
ENDBRANCH   3  19
TORSDOF 8
ENDMDL
MODEL 3
REMARK VINA RESULT:     -11.6      2.179      3.052
REMARK  Name = 24883488
REMARK  8 active torsions:
REMARK  status: ('A' for Active; 'I' for Inactive)
REMARK    1  A    between atoms: N_2  and  C_11
REMARK    2  A    between atoms: C_3  and  C_19
REMARK    3  A    between atoms: C_19  and  C_20
REMARK    4  A    between atoms: C_20  and  C_23
REMARK    5  A    between atoms: N_22  and  C_25
REMARK    6  A    between atoms: C_27  and  O_31
REMARK    7  A    between atoms: O_31  and  C_32
REMARK    8  A    between atoms: C_32  and  C_34
REMARK                            x       y       z     vdW  Elec       q    Type
REMARK                         _______ _______ _______ _____ _____    ______ ____
ROOT
ATOM      1  O   UNL     1      32.963 -21.108 -20.066  0.00  0.00    -0.275 OA
ATOM      2  N   UNL     1      35.182 -20.425 -20.454  0.00  0.00    -0.284 N 
ATOM      3  C   UNL     1      34.169 -21.187 -19.859  0.00  0.00    +0.227 C 
ATOM      4  H   UNL     1      36.098 -20.611 -20.144  0.00  0.00    +0.155 HD
ENDROOT
BRANCH   2  11
ATOM      5  O   UNL     1      34.550 -15.356 -20.471  0.00  0.00    -0.282 OA
ATOM      6  O   UNL     1      34.734 -16.723 -25.626  0.00  0.00    -0.270 OA
ATOM      7  O   UNL     1      34.321 -13.493 -22.346  0.00  0.00    -0.266 OA
ATOM      8  N   UNL     1      34.526 -15.111 -23.999  0.00  0.00    -0.246 N 
ATOM      9  C   UNL     1      34.772 -17.114 -22.037  0.00  0.00    +0.049 C 
ATOM     10  C   UNL     1      34.818 -17.454 -23.389  0.00  0.00    +0.057 C 
ATOM     11  C   UNL     1      35.059 -19.436 -21.430  0.00  0.00    +0.050 C 
ATOM     12  C   UNL     1      34.892 -18.103 -21.054  0.00  0.00    +0.018 C 
ATOM     13  C   UNL     1      34.986 -18.793 -23.760  0.00  0.00    +0.006 C 
ATOM     14  C   UNL     1      35.107 -19.780 -22.780  0.00  0.00    +0.015 C 
ATOM     15  C   UNL     1      34.596 -15.711 -21.638  0.00  0.00    +0.249 C 
ATOM     16  C   UNL     1      34.691 -16.420 -24.437  0.00  0.00    +0.252 C 
ATOM     17  C   UNL     1      34.466 -14.656 -22.694  0.00  0.00    +0.291 C 
ATOM     18  H   UNL     1      34.442 -14.426 -24.701  0.00  0.00    +0.158 HD
ENDBRANCH   2  11
BRANCH   3  19
ATOM     19  C   UNL     1      34.712 -22.168 -18.832  0.00  0.00    +0.095 C 
BRANCH  19  20
ATOM     20  C   UNL     1      36.180 -21.886 -18.519  0.00  0.00    +0.095 C 
BRANCH  20  23
ATOM     21  O   UNL     1      37.383 -21.602 -16.473  0.00  0.00    -0.275 OA
ATOM     22  N   UNL     1      35.704 -23.243 -16.586  0.00  0.00    -0.284 N 
ATOM     23  C   UNL     1      36.512 -22.223 -17.075  0.00  0.00    +0.227 C 
ATOM     24  H   UNL     1      35.040 -23.609 -17.214  0.00  0.00    +0.155 HD
BRANCH  22  25
ATOM     25  C   UNL     1      35.724 -23.818 -15.295  0.00  0.00    +0.053 C 
ATOM     26  C   UNL     1      34.528 -24.035 -14.610  0.00  0.00    +0.052 C 
ATOM     27  C   UNL     1      34.547 -24.602 -13.335  0.00  0.00    +0.140 C 
ATOM     28  C   UNL     1      36.938 -24.167 -14.705  0.00  0.00    +0.015 C 
ATOM     29  C   UNL     1      35.763 -24.952 -12.746  0.00  0.00    +0.037 C 
ATOM     30  C   UNL     1      36.959 -24.735 -13.431  0.00  0.00    +0.004 C 
BRANCH  27  31
ATOM     31  O   UNL     1      33.381 -24.814 -12.666  0.00  0.00    -0.472 OA
BRANCH  31  32
ATOM     32  C   UNL     1      32.212 -25.033 -13.454  0.00  0.00    +0.243 C 
BRANCH  32  34
ATOM     33  F   UNL     1      31.560 -22.833 -13.891  0.00  0.00    -0.230 F 
ATOM     34  C   UNL     1      31.216 -23.932 -13.164  0.00  0.00    +0.240 C 
ENDBRANCH  32  34
ENDBRANCH  31  32
ENDBRANCH  27  31
ENDBRANCH  22  25
ENDBRANCH  20  23
ENDBRANCH  19  20
ENDBRANCH   3  19
TORSDOF 8
ENDMDL
MODEL 4
REMARK VINA RESULT:     -11.6      4.188      9.528
REMARK  Name = 24883488
REMARK  8 active torsions:
REMARK  status: ('A' for Active; 'I' for Inactive)
REMARK    1  A    between atoms: N_2  and  C_11
REMARK    2  A    between atoms: C_3  and  C_19
REMARK    3  A    between atoms: C_19  and  C_20
REMARK    4  A    between atoms: C_20  and  C_23
REMARK    5  A    between atoms: N_22  and  C_25
REMARK    6  A    between atoms: C_27  and  O_31
REMARK    7  A    between atoms: O_31  and  C_32
REMARK    8  A    between atoms: C_32  and  C_34
REMARK                            x       y       z     vdW  Elec       q    Type
REMARK                         _______ _______ _______ _____ _____    ______ ____
ROOT
ATOM      1  O   UNL     1      35.923 -25.556 -14.989  0.00  0.00    -0.275 OA
ATOM      2  N   UNL     1      34.768 -23.666 -14.190  0.00  0.00    -0.284 N 
ATOM      3  C   UNL     1      35.898 -24.409 -14.552  0.00  0.00    +0.227 C 
ATOM      4  H   UNL     1      34.943 -22.766 -13.832  0.00  0.00    +0.155 HD
ENDROOT
BRANCH   2  11
ATOM      5  O   UNL     1      30.743 -22.280 -17.015  0.00  0.00    -0.282 OA
ATOM      6  O   UNL     1      28.881 -26.077 -13.759  0.00  0.00    -0.270 OA
ATOM      7  O   UNL     1      28.196 -23.010 -17.148  0.00  0.00    -0.266 OA
ATOM      8  N   UNL     1      28.533 -24.551 -15.445  0.00  0.00    -0.246 N 
ATOM      9  C   UNL     1      31.241 -23.802 -15.275  0.00  0.00    +0.049 C 
ATOM     10  C   UNL     1      30.737 -24.793 -14.431  0.00  0.00    +0.057 C 
ATOM     11  C   UNL     1      33.426 -24.040 -14.270  0.00  0.00    +0.050 C 
ATOM     12  C   UNL     1      32.585 -23.423 -15.196  0.00  0.00    +0.018 C 
ATOM     13  C   UNL     1      31.586 -25.408 -13.504  0.00  0.00    +0.006 C 
ATOM     14  C   UNL     1      32.928 -25.031 -13.425  0.00  0.00    +0.015 C 
ATOM     15  C   UNL     1      30.358 -23.151 -16.251  0.00  0.00    +0.249 C 
ATOM     16  C   UNL     1      29.320 -25.203 -14.502  0.00  0.00    +0.252 C 
ATOM     17  C   UNL     1      28.918 -23.561 -16.330  0.00  0.00    +0.291 C 
ATOM     18  H   UNL     1      27.589 -24.828 -15.488  0.00  0.00    +0.158 HD
ENDBRANCH   2  11
BRANCH   3  19
ATOM     19  C   UNL     1      37.192 -23.648 -14.311  0.00  0.00    +0.095 C 
BRANCH  19  20
ATOM     20  C   UNL     1      37.927 -23.378 -15.621  0.00  0.00    +0.095 C 
BRANCH  20  23
ATOM     21  O   UNL     1      37.417 -21.119 -16.216  0.00  0.00    -0.275 OA
ATOM     22  N   UNL     1      36.418 -22.867 -17.428  0.00  0.00    -0.284 N 
ATOM     23  C   UNL     1      37.223 -22.310 -16.442  0.00  0.00    +0.227 C 
ATOM     24  H   UNL     1      36.404 -23.851 -17.472  0.00  0.00    +0.155 HD
BRANCH  22  25
ATOM     25  C   UNL     1      35.617 -22.190 -18.375  0.00  0.00    +0.053 C 
ATOM     26  C   UNL     1      36.209 -21.343 -19.312  0.00  0.00    +0.052 C 
ATOM     27  C   UNL     1      35.419 -20.674 -20.247  0.00  0.00    +0.140 C 
ATOM     28  C   UNL     1      34.234 -22.369 -18.373  0.00  0.00    +0.015 C 
ATOM     29  C   UNL     1      34.035 -20.854 -20.245  0.00  0.00    +0.037 C 
ATOM     30  C   UNL     1      33.442 -21.701 -19.308  0.00  0.00    +0.004 C 
BRANCH  27  31
ATOM     31  O   UNL     1      35.996 -19.848 -21.161  0.00  0.00    -0.472 OA
BRANCH  31  32
ATOM     32  C   UNL     1      35.288 -18.655 -21.495  0.00  0.00    +0.243 C 
BRANCH  32  34
ATOM     33  F   UNL     1      34.518 -19.706 -23.434  0.00  0.00    -0.230 F 
ATOM     34  C   UNL     1      35.146 -18.578 -22.998  0.00  0.00    +0.240 C 
ENDBRANCH  32  34
ENDBRANCH  31  32
ENDBRANCH  27  31
ENDBRANCH  22  25
ENDBRANCH  20  23
ENDBRANCH  19  20
ENDBRANCH   3  19
TORSDOF 8
ENDMDL
MODEL 5
REMARK VINA RESULT:     -11.5      4.107     10.673
REMARK  Name = 24883488
REMARK  8 active torsions:
REMARK  status: ('A' for Active; 'I' for Inactive)
REMARK    1  A    between atoms: N_2  and  C_11
REMARK    2  A    between atoms: C_3  and  C_19
REMARK    3  A    between atoms: C_19  and  C_20
REMARK    4  A    between atoms: C_20  and  C_23
REMARK    5  A    between atoms: N_22  and  C_25
REMARK    6  A    between atoms: C_27  and  O_31
REMARK    7  A    between atoms: O_31  and  C_32
REMARK    8  A    between atoms: C_32  and  C_34
REMARK                            x       y       z     vdW  Elec       q    Type
REMARK                         _______ _______ _______ _____ _____    ______ ____
ROOT
ATOM      1  O   UNL     1      36.709 -21.901 -16.437  0.00  0.00    -0.275 OA
ATOM      2  N   UNL     1      34.941 -22.866 -17.656  0.00  0.00    -0.284 N 
ATOM      3  C   UNL     1      36.167 -22.210 -17.494  0.00  0.00    +0.227 C 
ATOM      4  H   UNL     1      34.650 -23.009 -18.585  0.00  0.00    +0.155 HD
ENDROOT
BRANCH   2  11
ATOM      5  O   UNL     1      29.895 -22.804 -16.860  0.00  0.00    -0.282 OA
ATOM      6  O   UNL     1      31.905 -25.421 -12.665  0.00  0.00    -0.270 OA
ATOM      7  O   UNL     1      28.276 -23.721 -14.969  0.00  0.00    -0.266 OA
ATOM      8  N   UNL     1      30.094 -24.576 -13.806  0.00  0.00    -0.246 N 
ATOM      9  C   UNL     1      31.842 -23.616 -15.792  0.00  0.00    +0.049 C 
ATOM     10  C   UNL     1      32.351 -24.303 -14.689  0.00  0.00    +0.057 C 
ATOM     11  C   UNL     1      34.078 -23.342 -16.668  0.00  0.00    +0.050 C 
ATOM     12  C   UNL     1      32.704 -23.134 -16.783  0.00  0.00    +0.018 C 
ATOM     13  C   UNL     1      33.731 -24.508 -14.578  0.00  0.00    +0.006 C 
ATOM     14  C   UNL     1      34.591 -24.029 -15.568  0.00  0.00    +0.015 C 
ATOM     15  C   UNL     1      30.396 -23.396 -15.916  0.00  0.00    +0.249 C 
ATOM     16  C   UNL     1      31.453 -24.816 -13.634  0.00  0.00    +0.252 C 
ATOM     17  C   UNL     1      29.477 -23.913 -14.850  0.00  0.00    +0.291 C 
ATOM     18  H   UNL     1      29.501 -24.920 -13.100  0.00  0.00    +0.158 HD
ENDBRANCH   2  11
BRANCH   3  19
ATOM     19  C   UNL     1      36.809 -21.848 -18.823  0.00  0.00    +0.095 C 
BRANCH  19  20
ATOM     20  C   UNL     1      35.761 -21.406 -19.842  0.00  0.00    +0.095 C 
BRANCH  20  23
ATOM     21  O   UNL     1      37.167 -19.503 -20.180  0.00  0.00    -0.275 OA
ATOM     22  N   UNL     1      35.043 -19.540 -21.185  0.00  0.00    -0.284 N 
ATOM     23  C   UNL     1      36.083 -20.032 -20.407  0.00  0.00    +0.227 C 
ATOM     24  H   UNL     1      34.252 -20.121 -21.271  0.00  0.00    +0.155 HD
BRANCH  22  25
ATOM     25  C   UNL     1      34.984 -18.303 -21.867  0.00  0.00    +0.053 C 
ATOM     26  C   UNL     1      34.762 -17.124 -21.156  0.00  0.00    +0.052 C 
ATOM     27  C   UNL     1      34.703 -15.903 -21.830  0.00  0.00    +0.140 C 
ATOM     28  C   UNL     1      35.146 -18.263 -23.252  0.00  0.00    +0.015 C 
ATOM     29  C   UNL     1      34.866 -15.863 -23.215  0.00  0.00    +0.037 C 
ATOM     30  C   UNL     1      35.088 -17.043 -23.926  0.00  0.00    +0.004 C 
BRANCH  27  31
ATOM     31  O   UNL     1      34.486 -14.752 -21.137  0.00  0.00    -0.472 OA
BRANCH  31  32
ATOM     32  C   UNL     1      33.376 -13.952 -21.539  0.00  0.00    +0.243 C 
BRANCH  32  34
ATOM     33  F   UNL     1      32.663 -15.022 -19.588  0.00  0.00    -0.230 F 
ATOM     34  C   UNL     1      32.253 -14.143 -20.544  0.00  0.00    +0.240 C 
ENDBRANCH  32  34
ENDBRANCH  31  32
ENDBRANCH  27  31
ENDBRANCH  22  25
ENDBRANCH  20  23
ENDBRANCH  19  20
ENDBRANCH   3  19
TORSDOF 8
ENDMDL
MODEL 6
REMARK VINA RESULT:     -11.4      2.289      2.985
REMARK  Name = 24883488
REMARK  8 active torsions:
REMARK  status: ('A' for Active; 'I' for Inactive)
REMARK    1  A    between atoms: N_2  and  C_11
REMARK    2  A    between atoms: C_3  and  C_19
REMARK    3  A    between atoms: C_19  and  C_20
REMARK    4  A    between atoms: C_20  and  C_23
REMARK    5  A    between atoms: N_22  and  C_25
REMARK    6  A    between atoms: C_27  and  O_31
REMARK    7  A    between atoms: O_31  and  C_32
REMARK    8  A    between atoms: C_32  and  C_34
REMARK                            x       y       z     vdW  Elec       q    Type
REMARK                         _______ _______ _______ _____ _____    ______ ____
ROOT
ATOM      1  O   UNL     1      37.424 -20.119 -19.774  0.00  0.00    -0.275 OA
ATOM      2  N   UNL     1      35.208 -20.380 -20.523  0.00  0.00    -0.284 N 
ATOM      3  C   UNL     1      36.328 -20.668 -19.734  0.00  0.00    +0.227 C 
ATOM      4  H   UNL     1      34.417 -20.946 -20.368  0.00  0.00    +0.155 HD
ENDROOT
BRANCH   2  11
ATOM      5  O   UNL     1      34.559 -15.313 -20.549  0.00  0.00    -0.282 OA
ATOM      6  O   UNL     1      34.683 -16.699 -25.701  0.00  0.00    -0.270 OA
ATOM      7  O   UNL     1      34.300 -13.458 -22.428  0.00  0.00    -0.266 OA
ATOM      8  N   UNL     1      34.490 -15.081 -24.077  0.00  0.00    -0.246 N 
ATOM      9  C   UNL     1      34.767 -17.076 -22.111  0.00  0.00    +0.049 C 
ATOM     10  C   UNL     1      34.797 -17.420 -23.463  0.00  0.00    +0.057 C 
ATOM     11  C   UNL     1      35.070 -19.395 -21.500  0.00  0.00    +0.050 C 
ATOM     12  C   UNL     1      34.902 -18.061 -21.127  0.00  0.00    +0.018 C 
ATOM     13  C   UNL     1      34.965 -18.760 -23.831  0.00  0.00    +0.006 C 
ATOM     14  C   UNL     1      35.102 -19.744 -22.850  0.00  0.00    +0.015 C 
ATOM     15  C   UNL     1      34.591 -15.673 -21.715  0.00  0.00    +0.249 C 
ATOM     16  C   UNL     1      34.654 -16.391 -24.513  0.00  0.00    +0.252 C 
ATOM     17  C   UNL     1      34.445 -14.621 -22.774  0.00  0.00    +0.291 C 
ATOM     18  H   UNL     1      34.395 -14.399 -24.781  0.00  0.00    +0.158 HD
ENDBRANCH   2  11
BRANCH   3  19
ATOM     19  C   UNL     1      36.080 -21.824 -18.778  0.00  0.00    +0.095 C 
BRANCH  19  20
ATOM     20  C   UNL     1      34.953 -22.724 -19.279  0.00  0.00    +0.095 C 
BRANCH  20  23
ATOM     21  O   UNL     1      32.704 -22.337 -18.567  0.00  0.00    -0.275 OA
ATOM     22  N   UNL     1      34.190 -23.415 -17.100  0.00  0.00    -0.284 N 
ATOM     23  C   UNL     1      33.810 -22.786 -18.279  0.00  0.00    +0.227 C 
ATOM     24  H   UNL     1      35.122 -23.732 -17.059  0.00  0.00    +0.155 HD
BRANCH  22  25
ATOM     25  C   UNL     1      33.400 -23.654 -15.953  0.00  0.00    +0.053 C 
ATOM     26  C   UNL     1      34.006 -24.030 -14.754  0.00  0.00    +0.052 C 
ATOM     27  C   UNL     1      33.226 -24.266 -13.622  0.00  0.00    +0.140 C 
ATOM     28  C   UNL     1      32.014 -23.514 -16.020  0.00  0.00    +0.015 C 
ATOM     29  C   UNL     1      31.839 -24.126 -13.689  0.00  0.00    +0.037 C 
ATOM     30  C   UNL     1      31.233 -23.750 -14.888  0.00  0.00    +0.004 C 
BRANCH  27  31
ATOM     31  O   UNL     1      33.816 -24.633 -12.452  0.00  0.00    -0.472 OA
BRANCH  31  32
ATOM     32  C   UNL     1      35.239 -24.556 -12.392  0.00  0.00    +0.243 C 
BRANCH  32  34
ATOM     33  F   UNL     1      37.051 -24.939 -10.968  0.00  0.00    -0.230 F 
ATOM     34  C   UNL     1      35.690 -24.938 -10.999  0.00  0.00    +0.240 C 
ENDBRANCH  32  34
ENDBRANCH  31  32
ENDBRANCH  27  31
ENDBRANCH  22  25
ENDBRANCH  20  23
ENDBRANCH  19  20
ENDBRANCH   3  19
TORSDOF 8
ENDMDL
MODEL 7
REMARK VINA RESULT:     -11.4      1.210      2.395
REMARK  Name = 24883488
REMARK  8 active torsions:
REMARK  status: ('A' for Active; 'I' for Inactive)
REMARK    1  A    between atoms: N_2  and  C_11
REMARK    2  A    between atoms: C_3  and  C_19
REMARK    3  A    between atoms: C_19  and  C_20
REMARK    4  A    between atoms: C_20  and  C_23
REMARK    5  A    between atoms: N_22  and  C_25
REMARK    6  A    between atoms: C_27  and  O_31
REMARK    7  A    between atoms: O_31  and  C_32
REMARK    8  A    between atoms: C_32  and  C_34
REMARK                            x       y       z     vdW  Elec       q    Type
REMARK                         _______ _______ _______ _____ _____    ______ ____
ROOT
ATOM      1  O   UNL     1      33.893 -20.278 -20.894  0.00  0.00    -0.275 OA
ATOM      2  N   UNL     1      35.700 -18.769 -20.890  0.00  0.00    -0.284 N 
ATOM      3  C   UNL     1      35.066 -19.997 -20.666  0.00  0.00    +0.227 C 
ATOM      4  H   UNL     1      36.646 -18.719 -20.620  0.00  0.00    +0.155 HD
ENDROOT
BRANCH   2  11
ATOM      5  O   UNL     1      34.730 -17.075 -25.611  0.00  0.00    -0.282 OA
ATOM      6  O   UNL     1      33.139 -13.127 -22.392  0.00  0.00    -0.270 OA
ATOM      7  O   UNL     1      33.704 -14.856 -26.641  0.00  0.00    -0.266 OA
ATOM      8  N   UNL     1      33.419 -13.981 -24.509  0.00  0.00    -0.246 N 
ATOM      9  C   UNL     1      34.504 -16.320 -23.381  0.00  0.00    +0.049 C 
ATOM     10  C   UNL     1      34.082 -15.278 -22.555  0.00  0.00    +0.057 C 
ATOM     11  C   UNL     1      35.164 -17.607 -21.445  0.00  0.00    +0.050 C 
ATOM     12  C   UNL     1      35.046 -17.486 -22.829  0.00  0.00    +0.018 C 
ATOM     13  C   UNL     1      34.204 -15.405 -21.166  0.00  0.00    +0.006 C 
ATOM     14  C   UNL     1      34.743 -16.569 -20.614  0.00  0.00    +0.015 C 
ATOM     15  C   UNL     1      34.380 -16.195 -24.839  0.00  0.00    +0.249 C 
ATOM     16  C   UNL     1      33.510 -14.041 -23.123  0.00  0.00    +0.252 C 
ATOM     17  C   UNL     1      33.801 -14.943 -25.426  0.00  0.00    +0.291 C 
ATOM     18  H   UNL     1      33.037 -13.154 -24.883  0.00  0.00    +0.158 HD
ENDBRANCH   2  11
BRANCH   3  19
ATOM     19  C   UNL     1      35.996 -21.022 -20.038  0.00  0.00    +0.095 C 
BRANCH  19  20
ATOM     20  C   UNL     1      35.227 -22.000 -19.154  0.00  0.00    +0.095 C 
BRANCH  20  23
ATOM     21  O   UNL     1      37.010 -21.675 -17.595  0.00  0.00    -0.275 OA
ATOM     22  N   UNL     1      35.216 -23.068 -16.994  0.00  0.00    -0.284 N 
ATOM     23  C   UNL     1      35.940 -22.228 -17.831  0.00  0.00    +0.227 C 
ATOM     24  H   UNL     1      34.359 -23.401 -17.350  0.00  0.00    +0.155 HD
BRANCH  22  25
ATOM     25  C   UNL     1      35.561 -23.503 -15.695  0.00  0.00    +0.053 C 
ATOM     26  C   UNL     1      36.898 -23.733 -15.368  0.00  0.00    +0.052 C 
ATOM     27  C   UNL     1      37.239 -24.162 -14.085  0.00  0.00    +0.140 C 
ATOM     28  C   UNL     1      34.566 -23.702 -14.738  0.00  0.00    +0.015 C 
ATOM     29  C   UNL     1      36.243 -24.360 -13.129  0.00  0.00    +0.037 C 
ATOM     30  C   UNL     1      34.906 -24.130 -13.455  0.00  0.00    +0.004 C 
BRANCH  27  31
ATOM     31  O   UNL     1      38.543 -24.387 -13.766  0.00  0.00    -0.472 OA
BRANCH  31  32
ATOM     32  C   UNL     1      38.974 -25.746 -13.721  0.00  0.00    +0.243 C 
BRANCH  32  34
ATOM     33  F   UNL     1      41.059 -26.800 -13.694  0.00  0.00    -0.230 F 
ATOM     34  C   UNL     1      40.346 -25.843 -14.351  0.00  0.00    +0.240 C 
ENDBRANCH  32  34
ENDBRANCH  31  32
ENDBRANCH  27  31
ENDBRANCH  22  25
ENDBRANCH  20  23
ENDBRANCH  19  20
ENDBRANCH   3  19
TORSDOF 8
ENDMDL
MODEL 8
REMARK VINA RESULT:     -11.4      3.608      4.765
REMARK  Name = 24883488
REMARK  8 active torsions:
REMARK  status: ('A' for Active; 'I' for Inactive)
REMARK    1  A    between atoms: N_2  and  C_11
REMARK    2  A    between atoms: C_3  and  C_19
REMARK    3  A    between atoms: C_19  and  C_20
REMARK    4  A    between atoms: C_20  and  C_23
REMARK    5  A    between atoms: N_22  and  C_25
REMARK    6  A    between atoms: C_27  and  O_31
REMARK    7  A    between atoms: O_31  and  C_32
REMARK    8  A    between atoms: C_32  and  C_34
REMARK                            x       y       z     vdW  Elec       q    Type
REMARK                         _______ _______ _______ _____ _____    ______ ____
ROOT
ATOM      1  O   UNL     1      37.918 -19.195 -21.212  0.00  0.00    -0.275 OA
ATOM      2  N   UNL     1      35.570 -19.166 -21.038  0.00  0.00    -0.284 N 
ATOM      3  C   UNL     1      36.869 -19.561 -20.692  0.00  0.00    +0.227 C 
ATOM      4  H   UNL     1      34.843 -19.586 -20.524  0.00  0.00    +0.155 HD
ENDROOT
BRANCH   2  11
ATOM      5  O   UNL     1      34.430 -14.188 -21.162  0.00  0.00    -0.282 OA
ATOM      6  O   UNL     1      33.834 -15.849 -26.198  0.00  0.00    -0.270 OA
ATOM      7  O   UNL     1      33.683 -12.474 -23.043  0.00  0.00    -0.266 OA
ATOM      8  N   UNL     1      33.755 -14.165 -24.633  0.00  0.00    -0.246 N 
ATOM      9  C   UNL     1      34.549 -16.011 -22.663  0.00  0.00    +0.049 C 
ATOM     10  C   UNL     1      34.389 -16.428 -23.984  0.00  0.00    +0.057 C 
ATOM     11  C   UNL     1      35.175 -18.255 -22.017  0.00  0.00    +0.050 C 
ATOM     12  C   UNL     1      34.942 -16.923 -21.676  0.00  0.00    +0.018 C 
ATOM     13  C   UNL     1      34.624 -17.767 -24.320  0.00  0.00    +0.006 C 
ATOM     14  C   UNL     1      35.017 -18.676 -23.337  0.00  0.00    +0.015 C 
ATOM     15  C   UNL     1      34.304 -14.609 -22.301  0.00  0.00    +0.249 C 
ATOM     16  C   UNL     1      33.973 -15.478 -25.036  0.00  0.00    +0.252 C 
ATOM     17  C   UNL     1      33.882 -13.638 -23.361  0.00  0.00    +0.291 C 
ATOM     18  H   UNL     1      33.479 -13.536 -25.338  0.00  0.00    +0.158 HD
ENDBRANCH   2  11
BRANCH   3  19
ATOM     19  C   UNL     1      36.882 -20.581 -19.566  0.00  0.00    +0.095 C 
BRANCH  19  20
ATOM     20  C   UNL     1      36.056 -21.814 -19.925  0.00  0.00    +0.095 C 
BRANCH  20  23
ATOM     21  O   UNL     1      33.801 -21.261 -19.359  0.00  0.00    -0.275 OA
ATOM     22  N   UNL     1      34.962 -22.804 -18.021  0.00  0.00    -0.284 N 
ATOM     23  C   UNL     1      34.803 -21.909 -19.071  0.00  0.00    +0.227 C 
ATOM     24  H   UNL     1      35.837 -23.252 -17.962  0.00  0.00    +0.155 HD
BRANCH  22  25
ATOM     25  C   UNL     1      34.018 -23.150 -17.028  0.00  0.00    +0.053 C 
ATOM     26  C   UNL     1      32.654 -22.988 -17.275  0.00  0.00    +0.052 C 
ATOM     27  C   UNL     1      31.722 -23.328 -16.294  0.00  0.00    +0.140 C 
ATOM     28  C   UNL     1      34.449 -23.652 -15.800  0.00  0.00    +0.015 C 
ATOM     29  C   UNL     1      32.154 -23.831 -15.066  0.00  0.00    +0.037 C 
ATOM     30  C   UNL     1      33.518 -23.993 -14.819  0.00  0.00    +0.004 C 
BRANCH  27  31
ATOM     31  O   UNL     1      30.392 -23.171 -16.535  0.00  0.00    -0.472 OA
BRANCH  31  32
ATOM     32  C   UNL     1      29.543 -23.005 -15.400  0.00  0.00    +0.243 C 
BRANCH  32  34
ATOM     33  F   UNL     1      28.679 -24.863 -16.521  0.00  0.00    -0.230 F 
ATOM     34  C   UNL     1      28.465 -24.064 -15.438  0.00  0.00    +0.240 C 
ENDBRANCH  32  34
ENDBRANCH  31  32
ENDBRANCH  27  31
ENDBRANCH  22  25
ENDBRANCH  20  23
ENDBRANCH  19  20
ENDBRANCH   3  19
TORSDOF 8
ENDMDL
MODEL 9
REMARK VINA RESULT:     -11.3      3.321      4.936
REMARK  Name = 24883488
REMARK  8 active torsions:
REMARK  status: ('A' for Active; 'I' for Inactive)
REMARK    1  A    between atoms: N_2  and  C_11
REMARK    2  A    between atoms: C_3  and  C_19
REMARK    3  A    between atoms: C_19  and  C_20
REMARK    4  A    between atoms: C_20  and  C_23
REMARK    5  A    between atoms: N_22  and  C_25
REMARK    6  A    between atoms: C_27  and  O_31
REMARK    7  A    between atoms: O_31  and  C_32
REMARK    8  A    between atoms: C_32  and  C_34
REMARK                            x       y       z     vdW  Elec       q    Type
REMARK                         _______ _______ _______ _____ _____    ______ ____
ROOT
ATOM      1  O   UNL     1      34.129 -20.280 -20.741  0.00  0.00    -0.275 OA
ATOM      2  N   UNL     1      35.866 -18.697 -20.880  0.00  0.00    -0.284 N 
ATOM      3  C   UNL     1      35.298 -19.942 -20.586  0.00  0.00    +0.227 C 
ATOM      4  H   UNL     1      36.821 -18.598 -20.665  0.00  0.00    +0.155 HD
ENDROOT
BRANCH   2  11
ATOM      5  O   UNL     1      34.812 -17.078 -25.610  0.00  0.00    -0.282 OA
ATOM      6  O   UNL     1      32.912 -13.257 -22.406  0.00  0.00    -0.270 OA
ATOM      7  O   UNL     1      33.635 -14.940 -26.649  0.00  0.00    -0.266 OA
ATOM      8  N   UNL     1      33.270 -14.087 -24.521  0.00  0.00    -0.246 N 
ATOM      9  C   UNL     1      34.513 -16.341 -23.383  0.00  0.00    +0.049 C 
ATOM     10  C   UNL     1      34.011 -15.333 -22.560  0.00  0.00    +0.057 C 
ATOM     11  C   UNL     1      35.250 -17.577 -21.440  0.00  0.00    +0.050 C 
ATOM     12  C   UNL     1      35.135 -17.465 -22.826  0.00  0.00    +0.018 C 
ATOM     13  C   UNL     1      34.130 -15.451 -21.170  0.00  0.00    +0.006 C 
ATOM     14  C   UNL     1      34.748 -16.573 -20.614  0.00  0.00    +0.015 C 
ATOM     15  C   UNL     1      34.393 -16.226 -24.842  0.00  0.00    +0.249 C 
ATOM     16  C   UNL     1      33.354 -14.141 -23.134  0.00  0.00    +0.252 C 
ATOM     17  C   UNL     1      33.728 -15.020 -25.433  0.00  0.00    +0.291 C 
ATOM     18  H   UNL     1      32.831 -13.291 -24.898  0.00  0.00    +0.158 HD
ENDBRANCH   2  11
BRANCH   3  19
ATOM     19  C   UNL     1      36.305 -20.906 -19.979  0.00  0.00    +0.095 C 
BRANCH  19  20
ATOM     20  C   UNL     1      35.666 -22.261 -19.684  0.00  0.00    +0.095 C 
BRANCH  20  23
ATOM     21  O   UNL     1      36.203 -21.984 -17.371  0.00  0.00    -0.275 OA
ATOM     22  N   UNL     1      34.236 -23.132 -17.952  0.00  0.00    -0.284 N 
ATOM     23  C   UNL     1      35.419 -22.444 -18.196  0.00  0.00    +0.227 C 
ATOM     24  H   UNL     1      33.722 -23.406 -18.746  0.00  0.00    +0.155 HD
BRANCH  22  25
ATOM     25  C   UNL     1      33.683 -23.485 -16.700  0.00  0.00    +0.053 C 
ATOM     26  C   UNL     1      32.330 -23.259 -16.446  0.00  0.00    +0.052 C 
ATOM     27  C   UNL     1      31.785 -23.607 -15.210  0.00  0.00    +0.140 C 
ATOM     28  C   UNL     1      34.491 -24.058 -15.717  0.00  0.00    +0.015 C 
ATOM     29  C   UNL     1      32.593 -24.181 -14.228  0.00  0.00    +0.037 C 
ATOM     30  C   UNL     1      33.946 -24.406 -14.481  0.00  0.00    +0.004 C 
BRANCH  27  31
ATOM     31  O   UNL     1      30.465 -23.387 -14.962  0.00  0.00    -0.472 OA
BRANCH  31  32
ATOM     32  C   UNL     1      29.611 -23.218 -16.092  0.00  0.00    +0.243 C 
BRANCH  32  34
ATOM     33  F   UNL     1      28.572 -24.892 -14.837  0.00  0.00    -0.230 F 
ATOM     34  C   UNL     1      28.534 -24.278 -16.052  0.00  0.00    +0.240 C 
ENDBRANCH  32  34
ENDBRANCH  31  32
ENDBRANCH  27  31
ENDBRANCH  22  25
ENDBRANCH  20  23
ENDBRANCH  19  20
ENDBRANCH   3  19
TORSDOF 8
ENDMDL
