MODEL 1
REMARK VINA RESULT:     -12.3      0.000      0.000
REMARK  Name = 68488178
REMARK  9 active torsions:
REMARK  status: ('A' for Active; 'I' for Inactive)
REMARK    1  A    between atoms: N_1  and  C_10
REMARK    2  A    between atoms: N_2  and  C_29
REMARK    3  A    between atoms: C_10  and  C_11
REMARK    4  A    between atoms: C_16  and  O_17
REMARK    5  A    between atoms: O_17  and  C_18
REMARK    6  A    between atoms: C_23  and  C_26
REMARK    7  A    between atoms: C_29  and  C_30
REMARK    8  A    between atoms: C_35  and  C_37
REMARK    9  A    between atoms: C_37  and  O_38
REMARK                            x       y       z     vdW  Elec       q    Type
REMARK                         _______ _______ _______ _____ _____    ______ ____
ROOT
ATOM      1  N   UNL     1      33.190 -23.769 -16.853  0.00  0.00    +0.388 N 
ATOM      2  N   UNL     1      34.238 -25.107 -14.626  0.00  0.00    +0.388 N 
ATOM      3  C   UNL     1      34.333 -23.241 -16.072  0.00  0.00    -0.081 C 
ATOM      4  C   UNL     1      33.093 -24.169 -14.528  0.00  0.00    -0.081 C 
ATOM      5  C   UNL     1      33.713 -22.803 -14.757  0.00  0.00    -0.046 C 
ATOM      6  C   UNL     1      32.282 -24.339 -15.826  0.00  0.00    -0.098 C 
ATOM      7  C   UNL     1      35.144 -24.466 -15.612  0.00  0.00    -0.098 C 
ATOM      8  H   UNL     1      33.485 -24.464 -17.541  0.00  0.00    -0.079 HD
ATOM      9  H   UNL     1      33.944 -26.041 -14.916  0.00  0.00    -0.079 HD
ENDROOT
BRANCH   1  10
ATOM     10  C   UNL     1      32.535 -22.742 -17.654  0.00  0.00    -0.050 C 
BRANCH  10  11
ATOM     11  C   UNL     1      33.495 -22.071 -18.600  0.00  0.00    -0.043 C 
ATOM     12  C   UNL     1      33.033 -21.106 -19.495  0.00  0.00    -0.003 C 
ATOM     13  C   UNL     1      34.847 -22.414 -18.581  0.00  0.00    -0.003 C 
ATOM     14  C   UNL     1      33.922 -20.484 -20.371  0.00  0.00    +0.037 C 
ATOM     15  C   UNL     1      35.737 -21.792 -19.457  0.00  0.00    +0.037 C 
ATOM     16  C   UNL     1      35.274 -20.827 -20.352  0.00  0.00    +0.145 C 
BRANCH  16  17
ATOM     17  O   UNL     1      36.142 -20.221 -21.208  0.00  0.00    -0.453 OA
BRANCH  17  18
ATOM     18  C   UNL     1      35.646 -19.221 -22.028  0.00  0.00    +0.145 C 
ATOM     19  C   UNL     1      35.114 -19.543 -23.276  0.00  0.00    +0.038 C 
ATOM     20  C   UNL     1      35.678 -17.892 -21.605  0.00  0.00    +0.038 C 
ATOM     21  C   UNL     1      34.617 -18.536 -24.103  0.00  0.00    +0.008 C 
ATOM     22  C   UNL     1      35.181 -16.885 -22.431  0.00  0.00    +0.008 C 
ATOM     23  C   UNL     1      34.649 -17.206 -23.681  0.00  0.00    +0.054 C 
BRANCH  23  26
ATOM     24  O   UNL     1      33.722 -15.039 -23.893  0.00  0.00    -0.431 OA
ATOM     25  N   UNL     1      34.010 -16.146 -25.844  0.00  0.00    -0.206 NA
ATOM     26  C   UNL     1      34.136 -16.165 -24.536  0.00  0.00    +0.230 C 
ATOM     27  C   UNL     1      33.292 -14.234 -24.904  0.00  0.00    +0.202 C 
ATOM     28  C   UNL     1      33.469 -14.909 -26.085  0.00  0.00    +0.143 C 
ENDBRANCH  23  26
ENDBRANCH  17  18
ENDBRANCH  16  17
ENDBRANCH  10  11
ENDBRANCH   1  10
BRANCH   2  29
ATOM     29  C   UNL     1      34.893 -25.330 -13.342  0.00  0.00    -0.050 C 
BRANCH  29  30
ATOM     30  C   UNL     1      36.375 -25.543 -13.498  0.00  0.00    -0.043 C 
ATOM     31  C   UNL     1      36.851 -26.658 -14.188  0.00  0.00    -0.006 C 
ATOM     32  C   UNL     1      37.273 -24.625 -12.952  0.00  0.00    -0.006 C 
ATOM     33  C   UNL     1      38.223 -26.855 -14.332  0.00  0.00    +0.006 C 
ATOM     34  C   UNL     1      38.645 -24.822 -13.096  0.00  0.00    +0.006 C 
ATOM     35  C   UNL     1      39.122 -25.937 -13.787  0.00  0.00    +0.075 C 
BRANCH  35  37
ATOM     36  O   UNL     1      41.155 -27.194 -13.700  0.00  0.00    -0.245 OA
ATOM     37  C   UNL     1      40.553 -26.142 -13.938  0.00  0.00    +0.338 C 
BRANCH  37  38
ATOM     38  O   UNL     1      41.195 -25.027 -14.383  0.00  0.00    -0.477 OA
ATOM     39  H   UNL     1      41.922 -25.107 -14.968  0.00  0.00    +0.295 HD
ENDBRANCH  37  38
ENDBRANCH  35  37
ENDBRANCH  29  30
ENDBRANCH   2  29
TORSDOF 9
ENDMDL
MODEL 2
REMARK VINA RESULT:     -11.8      1.380      1.941
REMARK  Name = 68488178
REMARK  9 active torsions:
REMARK  status: ('A' for Active; 'I' for Inactive)
REMARK    1  A    between atoms: N_1  and  C_10
REMARK    2  A    between atoms: N_2  and  C_29
REMARK    3  A    between atoms: C_10  and  C_11
REMARK    4  A    between atoms: C_16  and  O_17
REMARK    5  A    between atoms: O_17  and  C_18
REMARK    6  A    between atoms: C_23  and  C_26
REMARK    7  A    between atoms: C_29  and  C_30
REMARK    8  A    between atoms: C_35  and  C_37
REMARK    9  A    between atoms: C_37  and  O_38
REMARK                            x       y       z     vdW  Elec       q    Type
REMARK                         _______ _______ _______ _____ _____    ______ ____
ROOT
ATOM      1  N   UNL     1      33.416 -22.762 -16.827  0.00  0.00    +0.388 N 
ATOM      2  N   UNL     1      34.640 -23.487 -14.413  0.00  0.00    +0.388 N 
ATOM      3  C   UNL     1      32.956 -23.914 -16.014  0.00  0.00    -0.081 C 
ATOM      4  C   UNL     1      35.124 -23.969 -15.730  0.00  0.00    -0.081 C 
ATOM      5  C   UNL     1      34.055 -24.948 -16.181  0.00  0.00    -0.046 C 
ATOM      6  C   UNL     1      34.895 -22.815 -16.724  0.00  0.00    -0.098 C 
ATOM      7  C   UNL     1      33.161 -23.513 -14.542  0.00  0.00    -0.098 C 
ATOM      8  H   UNL     1      33.032 -21.879 -16.488  0.00  0.00    -0.079 HD
ATOM      9  H   UNL     1      34.996 -22.556 -14.193  0.00  0.00    -0.079 HD
ENDROOT
BRANCH   1  10
ATOM     10  C   UNL     1      32.959 -22.834 -18.210  0.00  0.00    -0.050 C 
BRANCH  10  11
ATOM     11  C   UNL     1      33.755 -21.927 -19.111  0.00  0.00    -0.043 C 
ATOM     12  C   UNL     1      33.104 -20.956 -19.872  0.00  0.00    -0.003 C 
ATOM     13  C   UNL     1      35.142 -22.059 -19.185  0.00  0.00    -0.003 C 
ATOM     14  C   UNL     1      33.841 -20.116 -20.708  0.00  0.00    +0.037 C 
ATOM     15  C   UNL     1      35.878 -21.219 -20.020  0.00  0.00    +0.037 C 
ATOM     16  C   UNL     1      35.228 -20.247 -20.782  0.00  0.00    +0.145 C 
BRANCH  16  17
ATOM     17  O   UNL     1      35.947 -19.428 -21.597  0.00  0.00    -0.453 OA
BRANCH  17  18
ATOM     18  C   UNL     1      35.438 -18.165 -21.851  0.00  0.00    +0.145 C 
ATOM     19  C   UNL     1      35.304 -17.719 -23.166  0.00  0.00    +0.038 C 
ATOM     20  C   UNL     1      35.061 -17.339 -20.792  0.00  0.00    +0.038 C 
ATOM     21  C   UNL     1      34.796 -16.446 -23.422  0.00  0.00    +0.008 C 
ATOM     22  C   UNL     1      34.552 -16.066 -21.048  0.00  0.00    +0.008 C 
ATOM     23  C   UNL     1      34.419 -15.619 -22.364  0.00  0.00    +0.054 C 
BRANCH  23  26
ATOM     24  O   UNL     1      32.895 -13.899 -21.795  0.00  0.00    -0.431 OA
ATOM     25  N   UNL     1      34.237 -13.438 -23.556  0.00  0.00    -0.206 NA
ATOM     26  C   UNL     1      33.893 -14.302 -22.628  0.00  0.00    +0.230 C 
ATOM     27  C   UNL     1      32.583 -12.654 -22.250  0.00  0.00    +0.202 C 
ATOM     28  C   UNL     1      33.401 -12.378 -23.317  0.00  0.00    +0.143 C 
ENDBRANCH  23  26
ENDBRANCH  17  18
ENDBRANCH  16  17
ENDBRANCH  10  11
ENDBRANCH   1  10
BRANCH   2  29
ATOM     29  C   UNL     1      35.109 -24.312 -13.306  0.00  0.00    -0.050 C 
BRANCH  29  30
ATOM     30  C   UNL     1      36.471 -24.893 -13.578  0.00  0.00    -0.043 C 
ATOM     31  C   UNL     1      37.597 -24.070 -13.557  0.00  0.00    -0.006 C 
ATOM     32  C   UNL     1      36.606 -26.255 -13.851  0.00  0.00    -0.006 C 
ATOM     33  C   UNL     1      38.858 -24.609 -13.810  0.00  0.00    +0.006 C 
ATOM     34  C   UNL     1      37.867 -26.793 -14.105  0.00  0.00    +0.006 C 
ATOM     35  C   UNL     1      38.994 -25.971 -14.083  0.00  0.00    +0.075 C 
BRANCH  35  37
ATOM     36  O   UNL     1      41.061 -27.023 -13.498  0.00  0.00    -0.245 OA
ATOM     37  C   UNL     1      40.309 -26.532 -14.346  0.00  0.00    +0.338 C 
BRANCH  37  38
ATOM     38  O   UNL     1      40.649 -26.466 -15.662  0.00  0.00    -0.477 OA
ATOM     39  H   UNL     1      41.417 -26.906 -15.970  0.00  0.00    +0.295 HD
ENDBRANCH  37  38
ENDBRANCH  35  37
ENDBRANCH  29  30
ENDBRANCH   2  29
TORSDOF 9
ENDMDL
MODEL 3
REMARK VINA RESULT:     -11.8      4.329      6.720
REMARK  Name = 68488178
REMARK  9 active torsions:
REMARK  status: ('A' for Active; 'I' for Inactive)
REMARK    1  A    between atoms: N_1  and  C_10
REMARK    2  A    between atoms: N_2  and  C_29
REMARK    3  A    between atoms: C_10  and  C_11
REMARK    4  A    between atoms: C_16  and  O_17
REMARK    5  A    between atoms: O_17  and  C_18
REMARK    6  A    between atoms: C_23  and  C_26
REMARK    7  A    between atoms: C_29  and  C_30
REMARK    8  A    between atoms: C_35  and  C_37
REMARK    9  A    between atoms: C_37  and  O_38
REMARK                            x       y       z     vdW  Elec       q    Type
REMARK                         _______ _______ _______ _____ _____    ______ ____
ROOT
ATOM      1  N   UNL     1      34.560 -22.315 -17.923  0.00  0.00    +0.388 N 
ATOM      2  N   UNL     1      32.781 -23.052 -15.887  0.00  0.00    +0.388 N 
ATOM      3  C   UNL     1      33.463 -23.290 -18.136  0.00  0.00    -0.081 C 
ATOM      4  C   UNL     1      34.090 -23.723 -16.085  0.00  0.00    -0.081 C 
ATOM      5  C   UNL     1      33.906 -24.520 -17.364  0.00  0.00    -0.046 C 
ATOM      6  C   UNL     1      35.066 -22.633 -16.564  0.00  0.00    -0.098 C 
ATOM      7  C   UNL     1      32.286 -22.814 -17.266  0.00  0.00    -0.098 C 
ATOM      8  H   UNL     1      34.234 -21.351 -18.002  0.00  0.00    -0.079 HD
ATOM      9  H   UNL     1      32.873 -22.188 -15.350  0.00  0.00    -0.079 HD
ENDROOT
BRANCH   1  10
ATOM     10  C   UNL     1      35.605 -22.415 -18.935  0.00  0.00    -0.050 C 
BRANCH  10  11
ATOM     11  C   UNL     1      35.649 -21.196 -19.817  0.00  0.00    -0.043 C 
ATOM     12  C   UNL     1      34.510 -20.803 -20.521  0.00  0.00    -0.003 C 
ATOM     13  C   UNL     1      36.829 -20.460 -19.932  0.00  0.00    -0.003 C 
ATOM     14  C   UNL     1      34.550 -19.673 -21.339  0.00  0.00    +0.037 C 
ATOM     15  C   UNL     1      36.869 -19.331 -20.750  0.00  0.00    +0.037 C 
ATOM     16  C   UNL     1      35.730 -18.938 -21.453  0.00  0.00    +0.145 C 
BRANCH  16  17
ATOM     17  O   UNL     1      35.770 -17.836 -22.252  0.00  0.00    -0.453 OA
BRANCH  17  18
ATOM     18  C   UNL     1      34.954 -16.769 -21.918  0.00  0.00    +0.145 C 
ATOM     19  C   UNL     1      34.505 -15.897 -22.910  0.00  0.00    +0.038 C 
ATOM     20  C   UNL     1      34.581 -16.564 -20.590  0.00  0.00    +0.038 C 
ATOM     21  C   UNL     1      33.685 -14.820 -22.574  0.00  0.00    +0.008 C 
ATOM     22  C   UNL     1      33.761 -15.488 -20.253  0.00  0.00    +0.008 C 
ATOM     23  C   UNL     1      33.312 -14.615 -21.245  0.00  0.00    +0.054 C 
BRANCH  23  26
ATOM     24  O   UNL     1      32.177 -12.651 -21.920  0.00  0.00    -0.431 OA
ATOM     25  N   UNL     1      31.932 -13.190 -19.737  0.00  0.00    -0.206 NA
ATOM     26  C   UNL     1      32.465 -13.501 -20.897  0.00  0.00    +0.230 C 
ATOM     27  C   UNL     1      31.382 -11.710 -21.338  0.00  0.00    +0.202 C 
ATOM     28  C   UNL     1      31.235 -12.042 -20.014  0.00  0.00    +0.143 C 
ENDBRANCH  23  26
ENDBRANCH  17  18
ENDBRANCH  16  17
ENDBRANCH  10  11
ENDBRANCH   1  10
BRANCH   2  29
ATOM     29  C   UNL     1      31.852 -23.856 -15.101  0.00  0.00    -0.050 C 
BRANCH  29  30
ATOM     30  C   UNL     1      30.420 -23.475 -15.365  0.00  0.00    -0.043 C 
ATOM     31  C   UNL     1      29.791 -23.897 -16.538  0.00  0.00    -0.006 C 
ATOM     32  C   UNL     1      29.721 -22.699 -14.440  0.00  0.00    -0.006 C 
ATOM     33  C   UNL     1      28.465 -23.543 -16.782  0.00  0.00    +0.006 C 
ATOM     34  C   UNL     1      28.395 -22.346 -14.685  0.00  0.00    +0.006 C 
ATOM     35  C   UNL     1      27.766 -22.769 -15.857  0.00  0.00    +0.075 C 
BRANCH  35  37
ATOM     36  O   UNL     1      25.924 -22.055 -17.206  0.00  0.00    -0.245 OA
ATOM     37  C   UNL     1      26.383 -22.401 -16.112  0.00  0.00    +0.338 C 
BRANCH  37  38
ATOM     38  O   UNL     1      25.610 -22.475 -14.995  0.00  0.00    -0.477 OA
ATOM     39  H   UNL     1      24.800 -22.947 -15.016  0.00  0.00    +0.295 HD
ENDBRANCH  37  38
ENDBRANCH  35  37
ENDBRANCH  29  30
ENDBRANCH   2  29
TORSDOF 9
ENDMDL
MODEL 4
REMARK VINA RESULT:     -11.8      4.996      8.119
REMARK  Name = 68488178
REMARK  9 active torsions:
REMARK  status: ('A' for Active; 'I' for Inactive)
REMARK    1  A    between atoms: N_1  and  C_10
REMARK    2  A    between atoms: N_2  and  C_29
REMARK    3  A    between atoms: C_10  and  C_11
REMARK    4  A    between atoms: C_16  and  O_17
REMARK    5  A    between atoms: O_17  and  C_18
REMARK    6  A    between atoms: C_23  and  C_26
REMARK    7  A    between atoms: C_29  and  C_30
REMARK    8  A    between atoms: C_35  and  C_37
REMARK    9  A    between atoms: C_37  and  O_38
REMARK                            x       y       z     vdW  Elec       q    Type
REMARK                         _______ _______ _______ _____ _____    ______ ____
ROOT
ATOM      1  N   UNL     1      34.964 -17.564 -21.251  0.00  0.00    +0.388 N 
ATOM      2  N   UNL     1      35.649 -20.091 -20.254  0.00  0.00    +0.388 N 
ATOM      3  C   UNL     1      34.392 -18.819 -21.797  0.00  0.00    -0.081 C 
ATOM      4  C   UNL     1      36.441 -19.406 -21.304  0.00  0.00    -0.081 C 
ATOM      5  C   UNL     1      35.552 -19.464 -22.534  0.00  0.00    -0.046 C 
ATOM      6  C   UNL     1      36.383 -17.902 -20.978  0.00  0.00    -0.098 C 
ATOM      7  C   UNL     1      34.240 -19.779 -20.604  0.00  0.00    -0.098 C 
ATOM      8  H   UNL     1      34.469 -17.252 -20.414  0.00  0.00    -0.079 HD
ATOM      9  H   UNL     1      35.898 -19.770 -19.317  0.00  0.00    -0.079 HD
ENDROOT
BRANCH   1  10
ATOM     10  C   UNL     1      34.834 -16.441 -22.172  0.00  0.00    -0.050 C 
BRANCH  10  11
ATOM     11  C   UNL     1      33.901 -15.385 -21.642  0.00  0.00    -0.043 C 
ATOM     12  C   UNL     1      33.346 -15.521 -20.369  0.00  0.00    -0.003 C 
ATOM     13  C   UNL     1      33.591 -14.272 -22.423  0.00  0.00    -0.003 C 
ATOM     14  C   UNL     1      32.481 -14.543 -19.877  0.00  0.00    +0.037 C 
ATOM     15  C   UNL     1      32.726 -13.294 -21.931  0.00  0.00    +0.037 C 
ATOM     16  C   UNL     1      32.171 -13.430 -20.658  0.00  0.00    +0.145 C 
BRANCH  16  17
ATOM     17  O   UNL     1      31.327 -12.476 -20.179  0.00  0.00    -0.453 OA
BRANCH  17  18
ATOM     18  C   UNL     1      31.493 -11.179 -20.637  0.00  0.00    +0.145 C 
ATOM     19  C   UNL     1      31.926 -10.182 -19.765  0.00  0.00    +0.038 C 
ATOM     20  C   UNL     1      31.226 -10.872 -21.972  0.00  0.00    +0.038 C 
ATOM     21  C   UNL     1      32.091  -8.876 -20.225  0.00  0.00    +0.008 C 
ATOM     22  C   UNL     1      31.391  -9.566 -22.432  0.00  0.00    +0.008 C 
ATOM     23  C   UNL     1      31.824  -8.567 -21.559  0.00  0.00    +0.054 C 
BRANCH  23  26
ATOM     24  O   UNL     1      32.728  -7.092 -23.174  0.00  0.00    -0.431 OA
ATOM     25  N   UNL     1      31.542  -6.091 -21.529  0.00  0.00    -0.206 NA
ATOM     26  C   UNL     1      31.993  -7.216 -22.035  0.00  0.00    +0.230 C 
ATOM     27  C   UNL     1      32.737  -5.749 -23.403  0.00  0.00    +0.202 C 
ATOM     28  C   UNL     1      32.015  -5.146 -22.403  0.00  0.00    +0.143 C 
ENDBRANCH  23  26
ENDBRANCH  17  18
ENDBRANCH  16  17
ENDBRANCH  10  11
ENDBRANCH   1  10
BRANCH   2  29
ATOM     29  C   UNL     1      35.898 -21.527 -20.209  0.00  0.00    -0.050 C 
BRANCH  29  30
ATOM     30  C   UNL     1      35.675 -22.093 -18.832  0.00  0.00    -0.043 C 
ATOM     31  C   UNL     1      36.691 -22.026 -17.878  0.00  0.00    -0.006 C 
ATOM     32  C   UNL     1      34.453 -22.683 -18.510  0.00  0.00    -0.006 C 
ATOM     33  C   UNL     1      36.484 -22.551 -16.603  0.00  0.00    +0.006 C 
ATOM     34  C   UNL     1      34.247 -23.208 -17.234  0.00  0.00    +0.006 C 
ATOM     35  C   UNL     1      35.262 -23.141 -16.279  0.00  0.00    +0.075 C 
BRANCH  35  37
ATOM     36  O   UNL     1      35.718 -24.582 -14.425  0.00  0.00    -0.245 OA
ATOM     37  C   UNL     1      35.047 -23.687 -14.950  0.00  0.00    +0.338 C 
BRANCH  37  38
ATOM     38  O   UNL     1      33.999 -23.099 -14.309  0.00  0.00    -0.477 OA
ATOM     39  H   UNL     1      33.163 -23.047 -14.729  0.00  0.00    +0.295 HD
ENDBRANCH  37  38
ENDBRANCH  35  37
ENDBRANCH  29  30
ENDBRANCH   2  29
TORSDOF 9
ENDMDL
MODEL 5
REMARK VINA RESULT:     -11.8      4.353     12.977
REMARK  Name = 68488178
REMARK  9 active torsions:
REMARK  status: ('A' for Active; 'I' for Inactive)
REMARK    1  A    between atoms: N_1  and  C_10
REMARK    2  A    between atoms: N_2  and  C_29
REMARK    3  A    between atoms: C_10  and  C_11
REMARK    4  A    between atoms: C_16  and  O_17
REMARK    5  A    between atoms: O_17  and  C_18
REMARK    6  A    between atoms: C_23  and  C_26
REMARK    7  A    between atoms: C_29  and  C_30
REMARK    8  A    between atoms: C_35  and  C_37
REMARK    9  A    between atoms: C_37  and  O_38
REMARK                            x       y       z     vdW  Elec       q    Type
REMARK                         _______ _______ _______ _____ _____    ______ ____
ROOT
ATOM      1  N   UNL     1      33.381 -14.966 -22.734  0.00  0.00    +0.388 N 
ATOM      2  N   UNL     1      31.852 -13.245 -21.137  0.00  0.00    +0.388 N 
ATOM      3  C   UNL     1      33.619 -14.806 -21.279  0.00  0.00    -0.081 C 
ATOM      4  C   UNL     1      33.044 -12.786 -21.890  0.00  0.00    -0.081 C 
ATOM      5  C   UNL     1      34.212 -13.415 -21.152  0.00  0.00    -0.046 C 
ATOM      6  C   UNL     1      33.065 -13.594 -23.201  0.00  0.00    -0.098 C 
ATOM      7  C   UNL     1      32.237 -14.589 -20.636  0.00  0.00    -0.098 C 
ATOM      8  H   UNL     1      32.627 -15.627 -22.926  0.00  0.00    -0.079 HD
ATOM      9  H   UNL     1      31.017 -13.273 -21.724  0.00  0.00    -0.079 HD
ENDROOT
BRANCH   1  10
ATOM     10  C   UNL     1      34.529 -15.533 -23.431  0.00  0.00    -0.050 C 
BRANCH  10  11
ATOM     11  C   UNL     1      34.936 -16.863 -22.855  0.00  0.00    -0.043 C 
ATOM     12  C   UNL     1      35.304 -16.957 -21.512  0.00  0.00    -0.003 C 
ATOM     13  C   UNL     1      34.945 -18.000 -23.662  0.00  0.00    -0.003 C 
ATOM     14  C   UNL     1      35.681 -18.189 -20.977  0.00  0.00    +0.037 C 
ATOM     15  C   UNL     1      35.322 -19.232 -23.127  0.00  0.00    +0.037 C 
ATOM     16  C   UNL     1      35.690 -19.326 -21.784  0.00  0.00    +0.145 C 
BRANCH  16  17
ATOM     17  O   UNL     1      36.059 -20.528 -21.263  0.00  0.00    -0.453 OA
BRANCH  17  18
ATOM     18  C   UNL     1      35.243 -21.088 -20.294  0.00  0.00    +0.145 C 
ATOM     19  C   UNL     1      35.795 -21.888 -19.294  0.00  0.00    +0.038 C 
ATOM     20  C   UNL     1      33.868 -20.852 -20.320  0.00  0.00    +0.038 C 
ATOM     21  C   UNL     1      34.972 -22.454 -18.321  0.00  0.00    +0.008 C 
ATOM     22  C   UNL     1      33.045 -21.418 -19.347  0.00  0.00    +0.008 C 
ATOM     23  C   UNL     1      33.597 -22.219 -18.346  0.00  0.00    +0.054 C 
BRANCH  23  26
ATOM     24  O   UNL     1      33.397 -23.478 -16.351  0.00  0.00    -0.431 OA
ATOM     25  N   UNL     1      31.436 -22.782 -17.239  0.00  0.00    -0.206 NA
ATOM     26  C   UNL     1      32.746 -22.805 -17.339  0.00  0.00    +0.230 C 
ATOM     27  C   UNL     1      32.388 -23.923 -15.551  0.00  0.00    +0.202 C 
ATOM     28  C   UNL     1      31.201 -23.498 -16.094  0.00  0.00    +0.143 C 
ENDBRANCH  23  26
ENDBRANCH  17  18
ENDBRANCH  16  17
ENDBRANCH  10  11
ENDBRANCH   1  10
BRANCH   2  29
ATOM     29  C   UNL     1      31.488 -12.339 -20.054  0.00  0.00    -0.050 C 
BRANCH  29  30
ATOM     30  C   UNL     1      31.649 -10.896 -20.452  0.00  0.00    -0.043 C 
ATOM     31  C   UNL     1      31.372 -10.499 -21.760  0.00  0.00    -0.006 C 
ATOM     32  C   UNL     1      32.076  -9.957 -19.513  0.00  0.00    -0.006 C 
ATOM     33  C   UNL     1      31.521  -9.163 -22.129  0.00  0.00    +0.006 C 
ATOM     34  C   UNL     1      32.226  -8.621 -19.883  0.00  0.00    +0.006 C 
ATOM     35  C   UNL     1      31.948  -8.223 -21.191  0.00  0.00    +0.075 C 
BRANCH  35  37
ATOM     36  O   UNL     1      32.698  -6.426 -22.580  0.00  0.00    -0.245 OA
ATOM     37  C   UNL     1      32.103  -6.830 -21.576  0.00  0.00    +0.338 C 
BRANCH  37  38
ATOM     38  O   UNL     1      31.509  -5.978 -20.696  0.00  0.00    -0.477 OA
ATOM     39  H   UNL     1      32.035  -5.436 -20.140  0.00  0.00    +0.295 HD
ENDBRANCH  37  38
ENDBRANCH  35  37
ENDBRANCH  29  30
ENDBRANCH   2  29
TORSDOF 9
ENDMDL
MODEL 6
REMARK VINA RESULT:     -11.6      3.837      7.054
REMARK  Name = 68488178
REMARK  9 active torsions:
REMARK  status: ('A' for Active; 'I' for Inactive)
REMARK    1  A    between atoms: N_1  and  C_10
REMARK    2  A    between atoms: N_2  and  C_29
REMARK    3  A    between atoms: C_10  and  C_11
REMARK    4  A    between atoms: C_16  and  O_17
REMARK    5  A    between atoms: O_17  and  C_18
REMARK    6  A    between atoms: C_23  and  C_26
REMARK    7  A    between atoms: C_29  and  C_30
REMARK    8  A    between atoms: C_35  and  C_37
REMARK    9  A    between atoms: C_37  and  O_38
REMARK                            x       y       z     vdW  Elec       q    Type
REMARK                         _______ _______ _______ _____ _____    ______ ____
ROOT
ATOM      1  N   UNL     1      33.393 -24.198 -15.013  0.00  0.00    +0.388 N 
ATOM      2  N   UNL     1      30.673 -24.865 -14.958  0.00  0.00    +0.388 N 
ATOM      3  C   UNL     1      32.593 -24.180 -13.764  0.00  0.00    -0.081 C 
ATOM      4  C   UNL     1      31.152 -23.495 -15.261  0.00  0.00    -0.081 C 
ATOM      5  C   UNL     1      31.674 -22.983 -13.930  0.00  0.00    -0.046 C 
ATOM      6  C   UNL     1      32.469 -23.660 -16.042  0.00  0.00    -0.098 C 
ATOM      7  C   UNL     1      31.583 -25.336 -13.883  0.00  0.00    -0.098 C 
ATOM      8  H   UNL     1      33.726 -25.136 -15.239  0.00  0.00    -0.079 HD
ATOM      9  H   UNL     1      30.696 -25.469 -15.781  0.00  0.00    -0.079 HD
ENDROOT
BRANCH   1  10
ATOM     10  C   UNL     1      34.615 -23.410 -14.907  0.00  0.00    -0.050 C 
BRANCH  10  11
ATOM     11  C   UNL     1      35.123 -22.977 -16.257  0.00  0.00    -0.043 C 
ATOM     12  C   UNL     1      34.330 -23.158 -17.390  0.00  0.00    -0.003 C 
ATOM     13  C   UNL     1      36.385 -22.394 -16.374  0.00  0.00    -0.003 C 
ATOM     14  C   UNL     1      34.799 -22.758 -18.641  0.00  0.00    +0.037 C 
ATOM     15  C   UNL     1      36.854 -21.993 -17.625  0.00  0.00    +0.037 C 
ATOM     16  C   UNL     1      36.061 -22.175 -18.758  0.00  0.00    +0.145 C 
BRANCH  16  17
ATOM     17  O   UNL     1      36.520 -21.785 -19.979  0.00  0.00    -0.453 OA
BRANCH  17  18
ATOM     18  C   UNL     1      36.139 -20.535 -20.440  0.00  0.00    +0.145 C 
ATOM     19  C   UNL     1      34.787 -20.235 -20.605  0.00  0.00    +0.038 C 
ATOM     20  C   UNL     1      37.108 -19.578 -20.741  0.00  0.00    +0.038 C 
ATOM     21  C   UNL     1      34.404 -18.978 -21.072  0.00  0.00    +0.008 C 
ATOM     22  C   UNL     1      36.725 -18.321 -21.209  0.00  0.00    +0.008 C 
ATOM     23  C   UNL     1      35.372 -18.020 -21.374  0.00  0.00    +0.054 C 
BRANCH  23  26
ATOM     24  O   UNL     1      34.206 -15.995 -21.002  0.00  0.00    -0.431 OA
ATOM     25  N   UNL     1      35.251 -16.138 -23.003  0.00  0.00    -0.206 NA
ATOM     26  C   UNL     1      34.976 -16.721 -21.858  0.00  0.00    +0.230 C 
ATOM     27  C   UNL     1      33.975 -14.838 -21.685  0.00  0.00    +0.202 C 
ATOM     28  C   UNL     1      34.612 -14.930 -22.897  0.00  0.00    +0.143 C 
ENDBRANCH  23  26
ENDBRANCH  17  18
ENDBRANCH  16  17
ENDBRANCH  10  11
ENDBRANCH   1  10
BRANCH   2  29
ATOM     29  C   UNL     1      29.274 -24.893 -14.544  0.00  0.00    -0.050 C 
BRANCH  29  30
ATOM     30  C   UNL     1      28.410 -24.038 -15.433  0.00  0.00    -0.043 C 
ATOM     31  C   UNL     1      27.703 -22.963 -14.892  0.00  0.00    -0.006 C 
ATOM     32  C   UNL     1      28.315 -24.321 -16.795  0.00  0.00    -0.006 C 
ATOM     33  C   UNL     1      26.903 -22.173 -15.715  0.00  0.00    +0.006 C 
ATOM     34  C   UNL     1      27.514 -23.531 -17.618  0.00  0.00    +0.006 C 
ATOM     35  C   UNL     1      26.808 -22.455 -17.078  0.00  0.00    +0.075 C 
BRANCH  35  37
ATOM     36  O   UNL     1      25.602 -21.927 -19.076  0.00  0.00    -0.245 OA
ATOM     37  C   UNL     1      25.973 -21.630 -17.936  0.00  0.00    +0.338 C 
BRANCH  37  38
ATOM     38  O   UNL     1      25.622 -20.454 -17.345  0.00  0.00    -0.477 OA
ATOM     39  H   UNL     1      25.008 -20.450 -16.637  0.00  0.00    +0.295 HD
ENDBRANCH  37  38
ENDBRANCH  35  37
ENDBRANCH  29  30
ENDBRANCH   2  29
TORSDOF 9
ENDMDL
MODEL 7
REMARK VINA RESULT:     -11.2      4.062     12.568
REMARK  Name = 68488178
REMARK  9 active torsions:
REMARK  status: ('A' for Active; 'I' for Inactive)
REMARK    1  A    between atoms: N_1  and  C_10
REMARK    2  A    between atoms: N_2  and  C_29
REMARK    3  A    between atoms: C_10  and  C_11
REMARK    4  A    between atoms: C_16  and  O_17
REMARK    5  A    between atoms: O_17  and  C_18
REMARK    6  A    between atoms: C_23  and  C_26
REMARK    7  A    between atoms: C_29  and  C_30
REMARK    8  A    between atoms: C_35  and  C_37
REMARK    9  A    between atoms: C_37  and  O_38
REMARK                            x       y       z     vdW  Elec       q    Type
REMARK                         _______ _______ _______ _____ _____    ______ ____
ROOT
ATOM      1  N   UNL     1      34.032 -16.171 -21.892  0.00  0.00    +0.388 N 
ATOM      2  N   UNL     1      32.273 -14.368 -20.665  0.00  0.00    +0.388 N 
ATOM      3  C   UNL     1      34.056 -15.901 -20.434  0.00  0.00    -0.081 C 
ATOM      4  C   UNL     1      33.559 -13.942 -21.270  0.00  0.00    -0.081 C 
ATOM      5  C   UNL     1      34.612 -14.493 -20.326  0.00  0.00    -0.046 C 
ATOM      6  C   UNL     1      33.776 -14.841 -22.501  0.00  0.00    -0.098 C 
ATOM      7  C   UNL     1      32.593 -15.664 -20.016  0.00  0.00    -0.098 C 
ATOM      8  H   UNL     1      33.320 -16.858 -22.142  0.00  0.00    -0.079 HD
ATOM      9  H   UNL     1      31.532 -14.454 -21.362  0.00  0.00    -0.079 HD
ENDROOT
BRANCH   1  10
ATOM     10  C   UNL     1      35.274 -16.764 -22.373  0.00  0.00    -0.050 C 
BRANCH  10  11
ATOM     11  C   UNL     1      35.555 -18.089 -21.715  0.00  0.00    -0.043 C 
ATOM     12  C   UNL     1      36.847 -18.395 -21.286  0.00  0.00    -0.003 C 
ATOM     13  C   UNL     1      34.523 -19.011 -21.534  0.00  0.00    -0.003 C 
ATOM     14  C   UNL     1      37.107 -19.622 -20.676  0.00  0.00    +0.037 C 
ATOM     15  C   UNL     1      34.783 -20.238 -20.925  0.00  0.00    +0.037 C 
ATOM     16  C   UNL     1      36.075 -20.544 -20.496  0.00  0.00    +0.145 C 
BRANCH  16  17
ATOM     17  O   UNL     1      36.329 -21.742 -19.901  0.00  0.00    -0.453 OA
BRANCH  17  18
ATOM     18  C   UNL     1      35.453 -22.171 -18.918  0.00  0.00    +0.145 C 
ATOM     19  C   UNL     1      34.109 -22.380 -19.225  0.00  0.00    +0.038 C 
ATOM     20  C   UNL     1      35.916 -22.394 -17.621  0.00  0.00    +0.038 C 
ATOM     21  C   UNL     1      33.226 -22.809 -18.235  0.00  0.00    +0.008 C 
ATOM     22  C   UNL     1      35.033 -22.823 -16.631  0.00  0.00    +0.008 C 
ATOM     23  C   UNL     1      33.687 -23.032 -16.937  0.00  0.00    +0.054 C 
BRANCH  23  26
ATOM     24  O   UNL     1      31.484 -23.072 -16.072  0.00  0.00    -0.431 OA
ATOM     25  N   UNL     1      33.008 -24.212 -14.850  0.00  0.00    -0.206 NA
ATOM     26  C   UNL     1      32.774 -23.476 -15.913  0.00  0.00    +0.230 C 
ATOM     27  C   UNL     1      30.846 -23.612 -14.997  0.00  0.00    +0.202 C 
ATOM     28  C   UNL     1      31.774 -24.303 -14.258  0.00  0.00    +0.143 C 
ENDBRANCH  23  26
ENDBRANCH  17  18
ENDBRANCH  16  17
ENDBRANCH  10  11
ENDBRANCH   1  10
BRANCH   2  29
ATOM     29  C   UNL     1      31.749 -13.393 -19.716  0.00  0.00    -0.050 C 
BRANCH  29  30
ATOM     30  C   UNL     1      31.799 -11.993 -20.265  0.00  0.00    -0.043 C 
ATOM     31  C   UNL     1      31.927 -10.908 -19.397  0.00  0.00    -0.006 C 
ATOM     32  C   UNL     1      31.715 -11.779 -21.641  0.00  0.00    -0.006 C 
ATOM     33  C   UNL     1      31.972  -9.611 -19.906  0.00  0.00    +0.006 C 
ATOM     34  C   UNL     1      31.760 -10.482 -22.150  0.00  0.00    +0.006 C 
ATOM     35  C   UNL     1      31.890  -9.396 -21.283  0.00  0.00    +0.075 C 
BRANCH  35  37
ATOM     36  O   UNL     1      32.855  -7.236 -21.634  0.00  0.00    -0.245 OA
ATOM     37  C   UNL     1      31.938  -8.044 -21.813  0.00  0.00    +0.338 C 
BRANCH  37  38
ATOM     38  O   UNL     1      30.838  -7.737 -22.554  0.00  0.00    -0.477 OA
ATOM     39  H   UNL     1      30.368  -8.415 -22.999  0.00  0.00    +0.295 HD
ENDBRANCH  37  38
ENDBRANCH  35  37
ENDBRANCH  29  30
ENDBRANCH   2  29
TORSDOF 9
ENDMDL
MODEL 8
REMARK VINA RESULT:     -11.1      6.641     16.385
REMARK  Name = 68488178
REMARK  9 active torsions:
REMARK  status: ('A' for Active; 'I' for Inactive)
REMARK    1  A    between atoms: N_1  and  C_10
REMARK    2  A    between atoms: N_2  and  C_29
REMARK    3  A    between atoms: C_10  and  C_11
REMARK    4  A    between atoms: C_16  and  O_17
REMARK    5  A    between atoms: O_17  and  C_18
REMARK    6  A    between atoms: C_23  and  C_26
REMARK    7  A    between atoms: C_29  and  C_30
REMARK    8  A    between atoms: C_35  and  C_37
REMARK    9  A    between atoms: C_37  and  O_38
REMARK                            x       y       z     vdW  Elec       q    Type
REMARK                         _______ _______ _______ _____ _____    ______ ____
ROOT
ATOM      1  N   UNL     1      32.151  -9.789 -22.725  0.00  0.00    +0.388 N 
ATOM      2  N   UNL     1      32.489  -7.122 -23.514  0.00  0.00    +0.388 N 
ATOM      3  C   UNL     1      31.148  -8.737 -22.430  0.00  0.00    -0.081 C 
ATOM      4  C   UNL     1      33.040  -7.654 -22.244  0.00  0.00    -0.081 C 
ATOM      5  C   UNL     1      31.816  -7.875 -21.374  0.00  0.00    -0.046 C 
ATOM      6  C   UNL     1      33.456  -9.109 -22.529  0.00  0.00    -0.098 C 
ATOM      7  C   UNL     1      31.162  -7.778 -23.634  0.00  0.00    -0.098 C 
ATOM      8  H   UNL     1      32.044 -10.164 -23.668  0.00  0.00    -0.079 HD
ATOM      9  H   UNL     1      33.097  -7.324 -24.309  0.00  0.00    -0.079 HD
ENDROOT
BRANCH   1  10
ATOM     10  C   UNL     1      32.007 -10.958 -21.865  0.00  0.00    -0.050 C 
BRANCH  10  11
ATOM     11  C   UNL     1      32.709 -12.162 -22.434  0.00  0.00    -0.043 C 
ATOM     12  C   UNL     1      33.581 -12.016 -23.513  0.00  0.00    -0.003 C 
ATOM     13  C   UNL     1      32.487 -13.425 -21.882  0.00  0.00    -0.003 C 
ATOM     14  C   UNL     1      34.232 -13.131 -24.041  0.00  0.00    +0.037 C 
ATOM     15  C   UNL     1      33.138 -14.540 -22.410  0.00  0.00    +0.037 C 
ATOM     16  C   UNL     1      34.010 -14.393 -23.489  0.00  0.00    +0.145 C 
BRANCH  16  17
ATOM     17  O   UNL     1      34.644 -15.482 -24.004  0.00  0.00    -0.453 OA
BRANCH  17  18
ATOM     18  C   UNL     1      34.799 -16.586 -23.182  0.00  0.00    +0.145 C 
ATOM     19  C   UNL     1      34.817 -17.868 -23.732  0.00  0.00    +0.038 C 
ATOM     20  C   UNL     1      34.936 -16.416 -21.804  0.00  0.00    +0.038 C 
ATOM     21  C   UNL     1      34.969 -18.979 -22.904  0.00  0.00    +0.008 C 
ATOM     22  C   UNL     1      35.089 -17.527 -20.976  0.00  0.00    +0.008 C 
ATOM     23  C   UNL     1      35.106 -18.810 -21.526  0.00  0.00    +0.054 C 
BRANCH  23  26
ATOM     24  O   UNL     1      36.527 -20.170 -20.209  0.00  0.00    -0.431 OA
ATOM     25  N   UNL     1      34.365 -20.831 -20.270  0.00  0.00    -0.206 NA
ATOM     26  C   UNL     1      35.263 -19.960 -20.669  0.00  0.00    +0.230 C 
ATOM     27  C   UNL     1      36.405 -21.290 -19.443  0.00  0.00    +0.202 C 
ATOM     28  C   UNL     1      35.091 -21.687 -19.483  0.00  0.00    +0.143 C 
ENDBRANCH  23  26
ENDBRANCH  17  18
ENDBRANCH  16  17
ENDBRANCH  10  11
ENDBRANCH   1  10
BRANCH   2  29
ATOM     29  C   UNL     1      32.384  -5.667 -23.515  0.00  0.00    -0.050 C 
BRANCH  29  30
ATOM     30  C   UNL     1      33.085  -5.056 -24.699  0.00  0.00    -0.043 C 
ATOM     31  C   UNL     1      34.321  -5.554 -25.111  0.00  0.00    -0.006 C 
ATOM     32  C   UNL     1      32.500  -3.990 -25.382  0.00  0.00    -0.006 C 
ATOM     33  C   UNL     1      34.971  -4.987 -26.206  0.00  0.00    +0.006 C 
ATOM     34  C   UNL     1      33.150  -3.422 -26.477  0.00  0.00    +0.006 C 
ATOM     35  C   UNL     1      34.386  -3.922 -26.891  0.00  0.00    +0.075 C 
BRANCH  35  37
ATOM     36  O   UNL     1      35.185  -2.121 -28.247  0.00  0.00    -0.245 OA
ATOM     37  C   UNL     1      35.063  -3.331 -28.033  0.00  0.00    +0.338 C 
BRANCH  37  38
ATOM     38  O   UNL     1      35.571  -4.269 -28.879  0.00  0.00    -0.477 OA
ATOM     39  H   UNL     1      34.993  -4.810 -29.381  0.00  0.00    +0.295 HD
ENDBRANCH  37  38
ENDBRANCH  35  37
ENDBRANCH  29  30
ENDBRANCH   2  29
TORSDOF 9
ENDMDL
MODEL 9
REMARK VINA RESULT:     -11.0      3.741      6.580
REMARK  Name = 68488178
REMARK  9 active torsions:
REMARK  status: ('A' for Active; 'I' for Inactive)
REMARK    1  A    between atoms: N_1  and  C_10
REMARK    2  A    between atoms: N_2  and  C_29
REMARK    3  A    between atoms: C_10  and  C_11
REMARK    4  A    between atoms: C_16  and  O_17
REMARK    5  A    between atoms: O_17  and  C_18
REMARK    6  A    between atoms: C_23  and  C_26
REMARK    7  A    between atoms: C_29  and  C_30
REMARK    8  A    between atoms: C_35  and  C_37
REMARK    9  A    between atoms: C_37  and  O_38
REMARK                            x       y       z     vdW  Elec       q    Type
REMARK                         _______ _______ _______ _____ _____    ______ ____
ROOT
ATOM      1  N   UNL     1      35.652 -19.456 -20.398  0.00  0.00    +0.388 N 
ATOM      2  N   UNL     1      34.414 -21.588 -19.067  0.00  0.00    +0.388 N 
ATOM      3  C   UNL     1      34.629 -20.313 -21.044  0.00  0.00    -0.081 C 
ATOM      4  C   UNL     1      35.707 -21.735 -19.778  0.00  0.00    -0.081 C 
ATOM      5  C   UNL     1      35.333 -21.642 -21.247  0.00  0.00    -0.046 C 
ATOM      6  C   UNL     1      36.458 -20.404 -19.588  0.00  0.00    -0.098 C 
ATOM      7  C   UNL     1      33.621 -20.688 -19.942  0.00  0.00    -0.098 C 
ATOM      8  H   UNL     1      35.230 -18.720 -19.830  0.00  0.00    -0.079 HD
ATOM      9  H   UNL     1      34.536 -21.210 -18.127  0.00  0.00    -0.079 HD
ENDROOT
BRANCH   1  10
ATOM     10  C   UNL     1      36.466 -18.729 -21.364  0.00  0.00    -0.050 C 
BRANCH  10  11
ATOM     11  C   UNL     1      35.655 -17.726 -22.140  0.00  0.00    -0.043 C 
ATOM     12  C   UNL     1      35.125 -16.609 -21.494  0.00  0.00    -0.003 C 
ATOM     13  C   UNL     1      35.433 -17.914 -23.505  0.00  0.00    -0.003 C 
ATOM     14  C   UNL     1      34.372 -15.679 -22.213  0.00  0.00    +0.037 C 
ATOM     15  C   UNL     1      34.681 -16.985 -24.223  0.00  0.00    +0.037 C 
ATOM     16  C   UNL     1      34.150 -15.868 -23.577  0.00  0.00    +0.145 C 
BRANCH  16  17
ATOM     17  O   UNL     1      33.416 -14.961 -24.278  0.00  0.00    -0.453 OA
BRANCH  17  18
ATOM     18  C   UNL     1      33.262 -13.697 -23.734  0.00  0.00    +0.145 C 
ATOM     19  C   UNL     1      32.414 -13.507 -22.643  0.00  0.00    +0.038 C 
ATOM     20  C   UNL     1      33.954 -12.615 -24.276  0.00  0.00    +0.038 C 
ATOM     21  C   UNL     1      32.257 -12.234 -22.096  0.00  0.00    +0.008 C 
ATOM     22  C   UNL     1      33.797 -11.342 -23.730  0.00  0.00    +0.008 C 
ATOM     23  C   UNL     1      32.948 -11.150 -22.638  0.00  0.00    +0.054 C 
BRANCH  23  26
ATOM     24  O   UNL     1      32.052  -9.782 -20.927  0.00  0.00    -0.431 OA
ATOM     25  N   UNL     1      33.241  -8.679 -22.504  0.00  0.00    -0.206 NA
ATOM     26  C   UNL     1      32.785  -9.834 -22.073  0.00  0.00    +0.230 C 
ATOM     27  C   UNL     1      32.050  -8.457 -20.610  0.00  0.00    +0.202 C 
ATOM     28  C   UNL     1      32.773  -7.792 -21.569  0.00  0.00    +0.143 C 
ENDBRANCH  23  26
ENDBRANCH  17  18
ENDBRANCH  16  17
ENDBRANCH  10  11
ENDBRANCH   1  10
BRANCH   2  29
ATOM     29  C   UNL     1      33.746 -22.866 -18.846  0.00  0.00    -0.050 C 
BRANCH  29  30
ATOM     30  C   UNL     1      33.583 -23.167 -17.380  0.00  0.00    -0.043 C 
ATOM     31  C   UNL     1      34.707 -23.262 -16.558  0.00  0.00    -0.006 C 
ATOM     32  C   UNL     1      32.308 -23.352 -16.843  0.00  0.00    -0.006 C 
ATOM     33  C   UNL     1      34.555 -23.541 -15.201  0.00  0.00    +0.006 C 
ATOM     34  C   UNL     1      32.157 -23.631 -15.486  0.00  0.00    +0.006 C 
ATOM     35  C   UNL     1      33.280 -23.725 -14.663  0.00  0.00    +0.075 C 
BRANCH  35  37
ATOM     36  O   UNL     1      33.775 -24.850 -12.611  0.00  0.00    -0.245 OA
ATOM     37  C   UNL     1      33.123 -24.016 -13.248  0.00  0.00    +0.338 C 
BRANCH  37  38
ATOM     38  O   UNL     1      32.155 -23.256 -12.665  0.00  0.00    -0.477 OA
ATOM     39  H   UNL     1      32.326 -22.358 -12.457  0.00  0.00    +0.295 HD
ENDBRANCH  37  38
ENDBRANCH  35  37
ENDBRANCH  29  30
ENDBRANCH   2  29
TORSDOF 9
ENDMDL
