MODEL 1
REMARK VINA RESULT:     -11.8      0.000      0.000
REMARK  Name = 4566
REMARK  6 active torsions:
REMARK  status: ('A' for Active; 'I' for Inactive)
REMARK    1  A    between atoms: N_4  and  C_14
REMARK    2  A    between atoms: C_6  and  O_26
REMARK    3  A    between atoms: C_15  and  S_20
REMARK    4  A    between atoms: S_20  and  N_23
REMARK    5  A    between atoms: O_26  and  C_27
REMARK    6  A    between atoms: C_27  and  C_28
REMARK                            x       y       z     vdW  Elec       q    Type
REMARK                         _______ _______ _______ _____ _____    ______ ____
ROOT
ATOM      1  N   UNL     1      32.732 -23.777 -15.622  0.00  0.00    -0.293 NA
ATOM      2  N   UNL     1      29.375 -22.755 -16.725  0.00  0.00    -0.266 NA
ATOM      3  N   UNL     1      30.971 -24.212 -13.991  0.00  0.00    -0.316 NA
ATOM      4  N   UNL     1      33.201 -24.762 -13.551  0.00  0.00    -0.238 N 
ATOM      5  N   UNL     1      28.756 -23.532 -14.730  0.00  0.00    -0.296 N 
ATOM      6  C   UNL     1      31.849 -23.250 -16.499  0.00  0.00    +0.288 C 
ATOM      7  C   UNL     1      30.521 -23.200 -16.128  0.00  0.00    +0.215 C 
ATOM      8  C   UNL     1      30.110 -23.679 -14.891  0.00  0.00    +0.196 C 
ATOM      9  C   UNL     1      32.245 -24.219 -14.438  0.00  0.00    +0.207 C 
ATOM     10  C   UNL     1      28.345 -22.974 -15.848  0.00  0.00    +0.164 C 
ATOM     11  H   UNL     1      29.303 -22.350 -17.619  0.00  0.00    +0.126 HD
ATOM     12  H   UNL     1      32.819 -25.076 -12.699  0.00  0.00    +0.166 HD
ATOM     13  H   UNL     1      28.213 -23.788 -13.950  0.00  0.00    +0.150 HD
ENDROOT
BRANCH   4  14
ATOM     14  C   UNL     1      34.593 -24.942 -13.646  0.00  0.00    +0.059 C 
ATOM     15  C   UNL     1      37.357 -25.301 -13.832  0.00  0.00    +0.122 C 
ATOM     16  C   UNL     1      35.131 -25.730 -14.665  0.00  0.00    +0.017 C 
ATOM     17  C   UNL     1      35.444 -24.334 -12.719  0.00  0.00    +0.017 C 
ATOM     18  C   UNL     1      36.511 -25.910 -14.759  0.00  0.00    +0.021 C 
ATOM     19  C   UNL     1      36.824 -24.513 -12.813  0.00  0.00    +0.021 C 
BRANCH  15  20
ATOM     20  S   UNL     1      39.085 -25.526 -13.949  0.00  0.00    +0.057 S 
ATOM     21  O   UNL     1      39.709 -24.912 -12.785  0.00  0.00    -0.153 OA
ATOM     22  O   UNL     1      39.349 -26.925 -14.257  0.00  0.00    -0.153 OA
BRANCH  20  23
ATOM     23  N   UNL     1      39.444 -24.584 -15.329  0.00  0.00    -0.203 NA
ATOM     24  H   UNL     1      40.135 -25.069 -15.901  0.00  0.00    +0.144 HD
ATOM     25  H   UNL     1      39.818 -23.682 -15.036  0.00  0.00    +0.144 HD
ENDBRANCH  20  23
ENDBRANCH  15  20
ENDBRANCH   4  14
BRANCH   6  26
ATOM     26  O   UNL     1      32.310 -22.791 -17.708  0.00  0.00    -0.453 OA
BRANCH  26  27
ATOM     27  C   UNL     1      33.668 -23.044 -18.017  0.00  0.00    +0.208 C 
BRANCH  27  28
ATOM     28  C   UNL     1      34.029 -22.267 -19.282  0.00  0.00    +0.044 C 
ATOM     29  C   UNL     1      33.011 -21.149 -19.542  0.00  0.00    +0.004 C 
ATOM     30  C   UNL     1      35.451 -21.698 -19.180  0.00  0.00    +0.004 C 
ATOM     31  C   UNL     1      33.380 -20.323 -20.771  0.00  0.00    +0.000 C 
ATOM     32  C   UNL     1      35.817 -20.871 -20.411  0.00  0.00    +0.000 C 
ATOM     33  C   UNL     1      34.797 -19.766 -20.670  0.00  0.00    +0.000 C 
ENDBRANCH  27  28
ENDBRANCH  26  27
ENDBRANCH   6  26
TORSDOF 6
ENDMDL
MODEL 2
REMARK VINA RESULT:     -11.7      1.064      1.136
REMARK  Name = 4566
REMARK  6 active torsions:
REMARK  status: ('A' for Active; 'I' for Inactive)
REMARK    1  A    between atoms: N_4  and  C_14
REMARK    2  A    between atoms: C_6  and  O_26
REMARK    3  A    between atoms: C_15  and  S_20
REMARK    4  A    between atoms: S_20  and  N_23
REMARK    5  A    between atoms: O_26  and  C_27
REMARK    6  A    between atoms: C_27  and  C_28
REMARK                            x       y       z     vdW  Elec       q    Type
REMARK                         _______ _______ _______ _____ _____    ______ ____
ROOT
ATOM      1  N   UNL     1      33.814 -24.102 -15.525  0.00  0.00    -0.293 NA
ATOM      2  N   UNL     1      30.411 -23.085 -16.482  0.00  0.00    -0.266 NA
ATOM      3  N   UNL     1      32.175 -24.290 -13.728  0.00  0.00    -0.316 NA
ATOM      4  N   UNL     1      34.417 -24.869 -13.397  0.00  0.00    -0.238 N 
ATOM      5  N   UNL     1      29.929 -23.614 -14.371  0.00  0.00    -0.296 N 
ATOM      6  C   UNL     1      32.880 -23.644 -16.388  0.00  0.00    +0.288 C 
ATOM      7  C   UNL     1      31.587 -23.504 -15.926  0.00  0.00    +0.215 C 
ATOM      8  C   UNL     1      31.262 -23.828 -14.616  0.00  0.00    +0.196 C 
ATOM      9  C   UNL     1      33.409 -24.393 -14.266  0.00  0.00    +0.207 C 
ATOM     10  C   UNL     1      29.447 -23.169 -15.511  0.00  0.00    +0.164 C 
ATOM     11  H   UNL     1      30.280 -22.780 -17.408  0.00  0.00    +0.126 HD
ATOM     12  H   UNL     1      34.093 -25.073 -12.489  0.00  0.00    +0.166 HD
ATOM     13  H   UNL     1      29.442 -23.763 -13.528  0.00  0.00    +0.150 HD
ENDROOT
BRANCH   4  14
ATOM     14  C   UNL     1      35.790 -25.110 -13.575  0.00  0.00    +0.059 C 
ATOM     15  C   UNL     1      38.521 -25.588 -13.926  0.00  0.00    +0.122 C 
ATOM     16  C   UNL     1      36.221 -26.115 -14.444  0.00  0.00    +0.017 C 
ATOM     17  C   UNL     1      36.732 -24.345 -12.881  0.00  0.00    +0.017 C 
ATOM     18  C   UNL     1      37.584 -26.354 -14.620  0.00  0.00    +0.021 C 
ATOM     19  C   UNL     1      38.096 -24.585 -13.058  0.00  0.00    +0.021 C 
BRANCH  15  20
ATOM     20  S   UNL     1      40.227 -25.888 -14.146  0.00  0.00    +0.057 S 
ATOM     21  O   UNL     1      40.952 -24.660 -13.851  0.00  0.00    -0.153 OA
ATOM     22  O   UNL     1      40.573 -27.119 -13.448  0.00  0.00    -0.153 OA
BRANCH  20  23
ATOM     23  N   UNL     1      40.293 -26.177 -15.829  0.00  0.00    -0.203 NA
ATOM     24  H   UNL     1      41.264 -26.159 -16.139  0.00  0.00    +0.144 HD
ATOM     25  H   UNL     1      39.767 -25.453 -16.318  0.00  0.00    +0.144 HD
ENDBRANCH  20  23
ENDBRANCH  15  20
ENDBRANCH   4  14
BRANCH   6  26
ATOM     26  O   UNL     1      33.257 -23.338 -17.672  0.00  0.00    -0.453 OA
BRANCH  26  27
ATOM     27  C   UNL     1      34.593 -22.912 -17.866  0.00  0.00    +0.208 C 
BRANCH  27  28
ATOM     28  C   UNL     1      34.679 -22.184 -19.206  0.00  0.00    +0.044 C 
ATOM     29  C   UNL     1      33.448 -21.293 -19.420  0.00  0.00    +0.004 C 
ATOM     30  C   UNL     1      35.971 -21.362 -19.294  0.00  0.00    +0.004 C 
ATOM     31  C   UNL     1      33.536 -20.514 -20.730  0.00  0.00    +0.000 C 
ATOM     32  C   UNL     1      36.055 -20.582 -20.605  0.00  0.00    +0.000 C 
ATOM     33  C   UNL     1      34.825 -19.704 -20.817  0.00  0.00    +0.000 C 
ENDBRANCH  27  28
ENDBRANCH  26  27
ENDBRANCH   6  26
TORSDOF 6
ENDMDL
MODEL 3
REMARK VINA RESULT:     -11.1      3.104      6.852
REMARK  Name = 4566
REMARK  6 active torsions:
REMARK  status: ('A' for Active; 'I' for Inactive)
REMARK    1  A    between atoms: N_4  and  C_14
REMARK    2  A    between atoms: C_6  and  O_26
REMARK    3  A    between atoms: C_15  and  S_20
REMARK    4  A    between atoms: S_20  and  N_23
REMARK    5  A    between atoms: O_26  and  C_27
REMARK    6  A    between atoms: C_27  and  C_28
REMARK                            x       y       z     vdW  Elec       q    Type
REMARK                         _______ _______ _______ _____ _____    ______ ____
ROOT
ATOM      1  N   UNL     1      34.621 -24.121 -14.051  0.00  0.00    -0.293 NA
ATOM      2  N   UNL     1      38.143 -24.343 -13.013  0.00  0.00    -0.266 NA
ATOM      3  N   UNL     1      34.939 -24.340 -11.642  0.00  0.00    -0.316 NA
ATOM      4  N   UNL     1      32.802 -24.180 -12.579  0.00  0.00    -0.238 N 
ATOM      5  N   UNL     1      37.271 -24.487 -10.967  0.00  0.00    -0.296 N 
ATOM      6  C   UNL     1      35.954 -24.151 -14.273  0.00  0.00    +0.288 C 
ATOM      7  C   UNL     1      36.789 -24.277 -13.182  0.00  0.00    +0.215 C 
ATOM      8  C   UNL     1      36.269 -24.368 -11.897  0.00  0.00    +0.196 C 
ATOM      9  C   UNL     1      34.202 -24.216 -12.767  0.00  0.00    +0.207 C 
ATOM     10  C   UNL     1      38.383 -24.468 -11.669  0.00  0.00    +0.164 C 
ATOM     11  H   UNL     1      38.822 -24.306 -13.725  0.00  0.00    +0.126 HD
ATOM     12  H   UNL     1      32.526 -24.250 -11.636  0.00  0.00    +0.166 HD
ATOM     13  H   UNL     1      37.177 -24.567  -9.990  0.00  0.00    +0.150 HD
ENDROOT
BRANCH   4  14
ATOM     14  C   UNL     1      31.725 -24.063 -13.475  0.00  0.00    +0.059 C 
ATOM     15  C   UNL     1      29.583 -23.830 -15.254  0.00  0.00    +0.122 C 
ATOM     16  C   UNL     1      31.599 -22.927 -14.278  0.00  0.00    +0.017 C 
ATOM     17  C   UNL     1      30.774 -25.083 -13.566  0.00  0.00    +0.017 C 
ATOM     18  C   UNL     1      30.530 -22.810 -15.166  0.00  0.00    +0.021 C 
ATOM     19  C   UNL     1      29.705 -24.966 -14.455  0.00  0.00    +0.021 C 
BRANCH  15  20
ATOM     20  S   UNL     1      28.244 -23.684 -16.366  0.00  0.00    +0.057 S 
ATOM     21  O   UNL     1      28.544 -22.616 -17.309  0.00  0.00    -0.153 OA
ATOM     22  O   UNL     1      27.908 -25.012 -16.861  0.00  0.00    -0.153 OA
BRANCH  20  23
ATOM     23  N   UNL     1      27.003 -23.162 -15.315  0.00  0.00    -0.203 NA
ATOM     24  H   UNL     1      26.789 -22.182 -15.502  0.00  0.00    +0.144 HD
ATOM     25  H   UNL     1      27.312 -23.262 -14.348  0.00  0.00    +0.144 HD
ENDBRANCH  20  23
ENDBRANCH  15  20
ENDBRANCH   4  14
BRANCH   6  26
ATOM     26  O   UNL     1      36.413 -24.059 -15.564  0.00  0.00    -0.453 OA
BRANCH  26  27
ATOM     27  C   UNL     1      36.541 -22.759 -16.109  0.00  0.00    +0.208 C 
BRANCH  27  28
ATOM     28  C   UNL     1      35.916 -22.756 -17.504  0.00  0.00    +0.044 C 
ATOM     29  C   UNL     1      34.385 -22.693 -17.412  0.00  0.00    +0.004 C 
ATOM     30  C   UNL     1      36.463 -21.591 -18.339  0.00  0.00    +0.004 C 
ATOM     31  C   UNL     1      33.739 -22.635 -18.795  0.00  0.00    +0.000 C 
ATOM     32  C   UNL     1      35.813 -21.535 -19.721  0.00  0.00    +0.000 C 
ATOM     33  C   UNL     1      34.291 -21.480 -19.625  0.00  0.00    +0.000 C 
ENDBRANCH  27  28
ENDBRANCH  26  27
ENDBRANCH   6  26
TORSDOF 6
ENDMDL
MODEL 4
REMARK VINA RESULT:     -11.0      3.101      6.797
REMARK  Name = 4566
REMARK  6 active torsions:
REMARK  status: ('A' for Active; 'I' for Inactive)
REMARK    1  A    between atoms: N_4  and  C_14
REMARK    2  A    between atoms: C_6  and  O_26
REMARK    3  A    between atoms: C_15  and  S_20
REMARK    4  A    between atoms: S_20  and  N_23
REMARK    5  A    between atoms: O_26  and  C_27
REMARK    6  A    between atoms: C_27  and  C_28
REMARK                            x       y       z     vdW  Elec       q    Type
REMARK                         _______ _______ _______ _____ _____    ______ ____
ROOT
ATOM      1  N   UNL     1      34.526 -23.786 -15.371  0.00  0.00    -0.293 NA
ATOM      2  N   UNL     1      38.192 -23.964 -15.135  0.00  0.00    -0.266 NA
ATOM      3  N   UNL     1      35.341 -25.058 -13.456  0.00  0.00    -0.316 NA
ATOM      4  N   UNL     1      33.052 -24.785 -13.851  0.00  0.00    -0.238 N 
ATOM      5  N   UNL     1      37.766 -25.170 -13.310  0.00  0.00    -0.296 N 
ATOM      6  C   UNL     1      35.785 -23.520 -15.784  0.00  0.00    +0.288 C 
ATOM      7  C   UNL     1      36.831 -24.021 -15.037  0.00  0.00    +0.215 C 
ATOM      8  C   UNL     1      36.591 -24.774 -13.896  0.00  0.00    +0.196 C 
ATOM      9  C   UNL     1      34.384 -24.529 -14.248  0.00  0.00    +0.207 C 
ATOM     10  C   UNL     1      38.708 -24.668 -14.078  0.00  0.00    +0.164 C 
ATOM     11  H   UNL     1      38.708 -23.503 -15.835  0.00  0.00    +0.126 HD
ATOM     12  H   UNL     1      32.979 -25.326 -13.031  0.00  0.00    +0.166 HD
ATOM     13  H   UNL     1      37.878 -25.711 -12.494  0.00  0.00    +0.150 HD
ENDROOT
BRANCH   4  14
ATOM     14  C   UNL     1      31.810 -24.417 -14.397  0.00  0.00    +0.059 C 
ATOM     15  C   UNL     1      29.342 -23.684 -15.484  0.00  0.00    +0.122 C 
ATOM     16  C   UNL     1      30.721 -25.288 -14.316  0.00  0.00    +0.017 C 
ATOM     17  C   UNL     1      31.659 -23.177 -15.024  0.00  0.00    +0.017 C 
ATOM     18  C   UNL     1      29.489 -24.923 -14.859  0.00  0.00    +0.021 C 
ATOM     19  C   UNL     1      30.426 -22.812 -15.566  0.00  0.00    +0.021 C 
BRANCH  15  20
ATOM     20  S   UNL     1      27.800 -23.227 -16.164  0.00  0.00    +0.057 S 
ATOM     21  O   UNL     1      26.798 -23.282 -15.109  0.00  0.00    -0.153 OA
ATOM     22  O   UNL     1      27.978 -22.002 -16.930  0.00  0.00    -0.153 OA
BRANCH  20  23
ATOM     23  N   UNL     1      27.528 -24.517 -17.251  0.00  0.00    -0.203 NA
ATOM     24  H   UNL     1      27.230 -24.145 -18.153  0.00  0.00    +0.144 HD
ATOM     25  H   UNL     1      26.801 -25.128 -16.878  0.00  0.00    +0.144 HD
ENDBRANCH  20  23
ENDBRANCH  15  20
ENDBRANCH   4  14
BRANCH   6  26
ATOM     26  O   UNL     1      35.964 -22.770 -16.921  0.00  0.00    -0.453 OA
BRANCH  26  27
ATOM     27  C   UNL     1      35.084 -23.018 -18.001  0.00  0.00    +0.208 C 
BRANCH  27  28
ATOM     28  C   UNL     1      34.849 -21.705 -18.746  0.00  0.00    +0.044 C 
ATOM     29  C   UNL     1      35.971 -21.448 -19.760  0.00  0.00    +0.004 C 
ATOM     30  C   UNL     1      33.478 -21.712 -19.436  0.00  0.00    +0.004 C 
ATOM     31  C   UNL     1      35.731 -20.167 -20.555  0.00  0.00    +0.000 C 
ATOM     32  C   UNL     1      33.243 -20.430 -20.232  0.00  0.00    +0.000 C 
ATOM     33  C   UNL     1      34.365 -20.174 -21.234  0.00  0.00    +0.000 C 
ENDBRANCH  27  28
ENDBRANCH  26  27
ENDBRANCH   6  26
TORSDOF 6
ENDMDL
MODEL 5
REMARK VINA RESULT:     -10.8      3.480      7.218
REMARK  Name = 4566
REMARK  6 active torsions:
REMARK  status: ('A' for Active; 'I' for Inactive)
REMARK    1  A    between atoms: N_4  and  C_14
REMARK    2  A    between atoms: C_6  and  O_26
REMARK    3  A    between atoms: C_15  and  S_20
REMARK    4  A    between atoms: S_20  and  N_23
REMARK    5  A    between atoms: O_26  and  C_27
REMARK    6  A    between atoms: C_27  and  C_28
REMARK                            x       y       z     vdW  Elec       q    Type
REMARK                         _______ _______ _______ _____ _____    ______ ____
ROOT
ATOM      1  N   UNL     1      33.970 -22.984 -16.190  0.00  0.00    -0.293 NA
ATOM      2  N   UNL     1      33.042 -24.912 -13.198  0.00  0.00    -0.266 NA
ATOM      3  N   UNL     1      31.761 -24.013 -16.311  0.00  0.00    -0.316 NA
ATOM      4  N   UNL     1      32.606 -22.731 -18.076  0.00  0.00    -0.238 N 
ATOM      5  N   UNL     1      31.159 -25.286 -14.329  0.00  0.00    -0.296 N 
ATOM      6  C   UNL     1      34.183 -23.487 -14.953  0.00  0.00    +0.288 C 
ATOM      7  C   UNL     1      33.187 -24.256 -14.387  0.00  0.00    +0.215 C 
ATOM      8  C   UNL     1      32.005 -24.503 -15.072  0.00  0.00    +0.196 C 
ATOM      9  C   UNL     1      32.788 -23.276 -16.784  0.00  0.00    +0.207 C 
ATOM     10  C   UNL     1      31.811 -25.514 -13.210  0.00  0.00    +0.164 C 
ATOM     11  H   UNL     1      33.700 -24.946 -12.466  0.00  0.00    +0.126 HD
ATOM     12  H   UNL     1      31.738 -22.958 -18.483  0.00  0.00    +0.166 HD
ATOM     13  H   UNL     1      30.261 -25.605 -14.578  0.00  0.00    +0.150 HD
ENDROOT
BRANCH   4  14
ATOM     14  C   UNL     1      33.421 -21.928 -18.893  0.00  0.00    +0.059 C 
ATOM     15  C   UNL     1      35.039 -20.330 -20.516  0.00  0.00    +0.122 C 
ATOM     16  C   UNL     1      34.804 -22.119 -18.909  0.00  0.00    +0.017 C 
ATOM     17  C   UNL     1      32.850 -20.934 -19.692  0.00  0.00    +0.017 C 
ATOM     18  C   UNL     1      35.613 -21.322 -19.720  0.00  0.00    +0.021 C 
ATOM     19  C   UNL     1      33.659 -20.137 -20.503  0.00  0.00    +0.021 C 
BRANCH  15  20
ATOM     20  S   UNL     1      36.051 -19.332 -21.530  0.00  0.00    +0.057 S 
ATOM     21  O   UNL     1      37.436 -19.511 -21.117  0.00  0.00    -0.153 OA
ATOM     22  O   UNL     1      35.677 -19.556 -22.920  0.00  0.00    -0.153 OA
BRANCH  20  23
ATOM     23  N   UNL     1      35.535 -17.770 -21.069  0.00  0.00    -0.203 NA
ATOM     24  H   UNL     1      36.327 -17.128 -21.095  0.00  0.00    +0.144 HD
ATOM     25  H   UNL     1      35.156 -17.803 -20.122  0.00  0.00    +0.144 HD
ENDBRANCH  20  23
ENDBRANCH  15  20
ENDBRANCH   4  14
BRANCH   6  26
ATOM     26  O   UNL     1      35.371 -23.212 -14.323  0.00  0.00    -0.453 OA
BRANCH  26  27
ATOM     27  C   UNL     1      36.559 -23.554 -15.011  0.00  0.00    +0.208 C 
BRANCH  27  28
ATOM     28  C   UNL     1      37.299 -24.617 -14.201  0.00  0.00    +0.044 C 
ATOM     29  C   UNL     1      37.254 -24.287 -12.703  0.00  0.00    +0.004 C 
ATOM     30  C   UNL     1      36.714 -26.010 -14.472  0.00  0.00    +0.004 C 
ATOM     31  C   UNL     1      37.942 -25.363 -11.867  0.00  0.00    +0.000 C 
ATOM     32  C   UNL     1      37.404 -27.083 -13.632  0.00  0.00    +0.000 C 
ATOM     33  C   UNL     1      37.363 -26.747 -12.145  0.00  0.00    +0.000 C 
ENDBRANCH  27  28
ENDBRANCH  26  27
ENDBRANCH   6  26
TORSDOF 6
ENDMDL
MODEL 6
REMARK VINA RESULT:     -10.7      2.691      5.530
REMARK  Name = 4566
REMARK  6 active torsions:
REMARK  status: ('A' for Active; 'I' for Inactive)
REMARK    1  A    between atoms: N_4  and  C_14
REMARK    2  A    between atoms: C_6  and  O_26
REMARK    3  A    between atoms: C_15  and  S_20
REMARK    4  A    between atoms: S_20  and  N_23
REMARK    5  A    between atoms: O_26  and  C_27
REMARK    6  A    between atoms: C_27  and  C_28
REMARK                            x       y       z     vdW  Elec       q    Type
REMARK                         _______ _______ _______ _____ _____    ______ ____
ROOT
ATOM      1  N   UNL     1      35.019 -22.542 -17.468  0.00  0.00    -0.293 NA
ATOM      2  N   UNL     1      33.805 -20.933 -20.545  0.00  0.00    -0.266 NA
ATOM      3  N   UNL     1      36.724 -21.280 -18.673  0.00  0.00    -0.316 NA
ATOM      4  N   UNL     1      37.220 -22.404 -16.683  0.00  0.00    -0.238 N 
ATOM      5  N   UNL     1      35.911 -20.222 -20.706  0.00  0.00    -0.296 N 
ATOM      6  C   UNL     1      34.077 -22.229 -18.386  0.00  0.00    +0.288 C 
ATOM      7  C   UNL     1      34.452 -21.441 -19.454  0.00  0.00    +0.215 C 
ATOM      8  C   UNL     1      35.758 -20.984 -19.576  0.00  0.00    +0.196 C 
ATOM      9  C   UNL     1      36.267 -22.054 -17.666  0.00  0.00    +0.207 C 
ATOM     10  C   UNL     1      34.720 -20.211 -21.265  0.00  0.00    +0.164 C 
ATOM     11  H   UNL     1      32.856 -21.063 -20.772  0.00  0.00    +0.126 HD
ATOM     12  H   UNL     1      38.118 -22.035 -16.852  0.00  0.00    +0.166 HD
ATOM     13  H   UNL     1      36.730 -19.780 -21.026  0.00  0.00    +0.150 HD
ENDROOT
BRANCH   4  14
ATOM     14  C   UNL     1      37.138 -23.175 -15.510  0.00  0.00    +0.059 C 
ATOM     15  C   UNL     1      36.978 -24.708 -13.179  0.00  0.00    +0.122 C 
ATOM     16  C   UNL     1      36.049 -23.030 -14.649  0.00  0.00    +0.017 C 
ATOM     17  C   UNL     1      38.148 -24.091 -15.200  0.00  0.00    +0.017 C 
ATOM     18  C   UNL     1      35.967 -23.795 -13.485  0.00  0.00    +0.021 C 
ATOM     19  C   UNL     1      38.067 -24.855 -14.036  0.00  0.00    +0.021 C 
BRANCH  15  20
ATOM     20  S   UNL     1      36.877 -25.664 -11.722  0.00  0.00    +0.057 S 
ATOM     21  O   UNL     1      37.078 -27.063 -12.075  0.00  0.00    -0.153 OA
ATOM     22  O   UNL     1      37.717 -25.047 -10.705  0.00  0.00    -0.153 OA
BRANCH  20  23
ATOM     23  N   UNL     1      35.239 -25.433 -11.293  0.00  0.00    -0.203 NA
ATOM     24  H   UNL     1      34.802 -24.791 -11.955  0.00  0.00    +0.144 HD
ATOM     25  H   UNL     1      35.186 -25.040 -10.353  0.00  0.00    +0.144 HD
ENDBRANCH  20  23
ENDBRANCH  15  20
ENDBRANCH   4  14
BRANCH   6  26
ATOM     26  O   UNL     1      32.802 -22.708 -18.216  0.00  0.00    -0.453 OA
BRANCH  26  27
ATOM     27  C   UNL     1      32.635 -23.787 -17.316  0.00  0.00    +0.208 C 
BRANCH  27  28
ATOM     28  C   UNL     1      31.936 -23.267 -16.061  0.00  0.00    +0.044 C 
ATOM     29  C   UNL     1      30.422 -23.505 -16.144  0.00  0.00    +0.004 C 
ATOM     30  C   UNL     1      32.524 -23.922 -14.803  0.00  0.00    +0.004 C 
ATOM     31  C   UNL     1      29.707 -23.042 -14.877  0.00  0.00    +0.000 C 
ATOM     32  C   UNL     1      31.805 -23.457 -13.538  0.00  0.00    +0.000 C 
ATOM     33  C   UNL     1      30.300 -23.688 -13.628  0.00  0.00    +0.000 C 
ENDBRANCH  27  28
ENDBRANCH  26  27
ENDBRANCH   6  26
TORSDOF 6
ENDMDL
MODEL 7
REMARK VINA RESULT:      -9.5      6.206      9.064
REMARK  Name = 4566
REMARK  6 active torsions:
REMARK  status: ('A' for Active; 'I' for Inactive)
REMARK    1  A    between atoms: N_4  and  C_14
REMARK    2  A    between atoms: C_6  and  O_26
REMARK    3  A    between atoms: C_15  and  S_20
REMARK    4  A    between atoms: S_20  and  N_23
REMARK    5  A    between atoms: O_26  and  C_27
REMARK    6  A    between atoms: C_27  and  C_28
REMARK                            x       y       z     vdW  Elec       q    Type
REMARK                         _______ _______ _______ _____ _____    ______ ____
ROOT
ATOM      1  N   UNL     1      34.545 -17.936 -20.968  0.00  0.00    -0.293 NA
ATOM      2  N   UNL     1      34.802 -14.934 -23.077  0.00  0.00    -0.266 NA
ATOM      3  N   UNL     1      35.154 -18.394 -23.286  0.00  0.00    -0.316 NA
ATOM      4  N   UNL     1      34.920 -20.120 -21.725  0.00  0.00    -0.238 N 
ATOM      5  N   UNL     1      35.320 -16.402 -24.671  0.00  0.00    -0.296 N 
ATOM      6  C   UNL     1      34.488 -16.606 -21.201  0.00  0.00    +0.288 C 
ATOM      7  C   UNL     1      34.762 -16.161 -22.478  0.00  0.00    +0.215 C 
ATOM      8  C   UNL     1      35.087 -17.056 -23.488  0.00  0.00    +0.196 C 
ATOM      9  C   UNL     1      34.870 -18.737 -22.011  0.00  0.00    +0.207 C 
ATOM     10  C   UNL     1      35.141 -15.130 -24.390  0.00  0.00    +0.164 C 
ATOM     11  H   UNL     1      34.622 -14.068 -22.645  0.00  0.00    +0.126 HD
ATOM     12  H   UNL     1      35.159 -20.678 -22.501  0.00  0.00    +0.166 HD
ATOM     13  H   UNL     1      35.567 -16.799 -25.538  0.00  0.00    +0.150 HD
ENDROOT
BRANCH   4  14
ATOM     14  C   UNL     1      34.694 -20.856 -20.548  0.00  0.00    +0.059 C 
ATOM     15  C   UNL     1      34.245 -22.321 -18.212  0.00  0.00    +0.122 C 
ATOM     16  C   UNL     1      35.772 -21.372 -19.825  0.00  0.00    +0.017 C 
ATOM     17  C   UNL     1      33.390 -21.077 -20.098  0.00  0.00    +0.017 C 
ATOM     18  C   UNL     1      35.549 -22.103 -18.659  0.00  0.00    +0.021 C 
ATOM     19  C   UNL     1      33.166 -21.808 -18.931  0.00  0.00    +0.021 C 
BRANCH  15  20
ATOM     20  S   UNL     1      33.965 -23.237 -16.751  0.00  0.00    +0.057 S 
ATOM     21  O   UNL     1      35.189 -23.232 -15.964  0.00  0.00    -0.153 OA
ATOM     22  O   UNL     1      32.718 -22.781 -16.153  0.00  0.00    -0.153 OA
BRANCH  20  23
ATOM     23  N   UNL     1      33.724 -24.803 -17.390  0.00  0.00    -0.203 NA
ATOM     24  H   UNL     1      34.043 -24.827 -18.359  0.00  0.00    +0.144 HD
ATOM     25  H   UNL     1      32.732 -25.036 -17.353  0.00  0.00    +0.144 HD
ENDBRANCH  20  23
ENDBRANCH  15  20
ENDBRANCH   4  14
BRANCH   6  26
ATOM     26  O   UNL     1      34.160 -15.766 -20.166  0.00  0.00    -0.453 OA
BRANCH  26  27
ATOM     27  C   UNL     1      32.810 -15.348 -20.079  0.00  0.00    +0.208 C 
BRANCH  27  28
ATOM     28  C   UNL     1      32.752 -13.845 -20.346  0.00  0.00    +0.044 C 
ATOM     29  C   UNL     1      32.228 -13.565 -21.761  0.00  0.00    +0.004 C 
ATOM     30  C   UNL     1      31.885 -13.141 -19.293  0.00  0.00    +0.004 C 
ATOM     31  C   UNL     1      32.110 -12.067 -22.033  0.00  0.00    +0.000 C 
ATOM     32  C   UNL     1      31.768 -11.644 -19.569  0.00  0.00    +0.000 C 
ATOM     33  C   UNL     1      31.254 -11.370 -20.980  0.00  0.00    +0.000 C 
ENDBRANCH  27  28
ENDBRANCH  26  27
ENDBRANCH   6  26
TORSDOF 6
ENDMDL
MODEL 8
REMARK VINA RESULT:      -9.5      3.536      7.448
REMARK  Name = 4566
REMARK  6 active torsions:
REMARK  status: ('A' for Active; 'I' for Inactive)
REMARK    1  A    between atoms: N_4  and  C_14
REMARK    2  A    between atoms: C_6  and  O_26
REMARK    3  A    between atoms: C_15  and  S_20
REMARK    4  A    between atoms: S_20  and  N_23
REMARK    5  A    between atoms: O_26  and  C_27
REMARK    6  A    between atoms: C_27  and  C_28
REMARK                            x       y       z     vdW  Elec       q    Type
REMARK                         _______ _______ _______ _____ _____    ______ ____
ROOT
ATOM      1  N   UNL     1      35.312 -23.799 -15.493  0.00  0.00    -0.293 NA
ATOM      2  N   UNL     1      35.634 -25.794 -12.420  0.00  0.00    -0.266 NA
ATOM      3  N   UNL     1      37.617 -24.196 -14.798  0.00  0.00    -0.316 NA
ATOM      4  N   UNL     1      37.120 -22.956 -16.718  0.00  0.00    -0.238 N 
ATOM      5  N   UNL     1      37.817 -25.515 -12.765  0.00  0.00    -0.296 N 
ATOM      6  C   UNL     1      34.830 -24.497 -14.441  0.00  0.00    +0.288 C 
ATOM      7  C   UNL     1      35.737 -25.048 -13.560  0.00  0.00    +0.215 C 
ATOM      8  C   UNL     1      37.102 -24.889 -13.754  0.00  0.00    +0.196 C 
ATOM      9  C   UNL     1      36.658 -23.693 -15.604  0.00  0.00    +0.207 C 
ATOM     10  C   UNL     1      36.907 -26.049 -11.980  0.00  0.00    +0.164 C 
ATOM     11  H   UNL     1      34.799 -26.093 -11.992  0.00  0.00    +0.126 HD
ATOM     12  H   UNL     1      38.102 -22.897 -16.775  0.00  0.00    +0.166 HD
ATOM     13  H   UNL     1      38.796 -25.556 -12.666  0.00  0.00    +0.150 HD
ENDROOT
BRANCH   4  14
ATOM     14  C   UNL     1      36.453 -22.291 -17.762  0.00  0.00    +0.059 C 
ATOM     15  C   UNL     1      35.130 -20.971 -19.839  0.00  0.00    +0.122 C 
ATOM     16  C   UNL     1      35.105 -22.553 -18.013  0.00  0.00    +0.017 C 
ATOM     17  C   UNL     1      37.138 -21.367 -18.556  0.00  0.00    +0.017 C 
ATOM     18  C   UNL     1      34.443 -21.894 -19.049  0.00  0.00    +0.021 C 
ATOM     19  C   UNL     1      36.476 -20.708 -19.592  0.00  0.00    +0.021 C 
BRANCH  15  20
ATOM     20  S   UNL     1      34.302 -20.146 -21.137  0.00  0.00    +0.057 S 
ATOM     21  O   UNL     1      34.942 -20.508 -22.394  0.00  0.00    -0.153 OA
ATOM     22  O   UNL     1      32.869 -20.346 -20.971  0.00  0.00    -0.153 OA
BRANCH  20  23
ATOM     23  N   UNL     1      34.673 -18.518 -20.777  0.00  0.00    -0.203 NA
ATOM     24  H   UNL     1      35.256 -18.479 -19.941  0.00  0.00    +0.144 HD
ATOM     25  H   UNL     1      33.809 -18.001 -20.612  0.00  0.00    +0.144 HD
ENDBRANCH  20  23
ENDBRANCH  15  20
ENDBRANCH   4  14
BRANCH   6  26
ATOM     26  O   UNL     1      33.470 -24.622 -14.297  0.00  0.00    -0.453 OA
BRANCH  26  27
ATOM     27  C   UNL     1      32.757 -23.469 -13.890  0.00  0.00    +0.208 C 
BRANCH  27  28
ATOM     28  C   UNL     1      31.276 -23.681 -14.202  0.00  0.00    +0.044 C 
ATOM     29  C   UNL     1      30.952 -23.224 -15.630  0.00  0.00    +0.004 C 
ATOM     30  C   UNL     1      30.884 -25.150 -13.994  0.00  0.00    +0.004 C 
ATOM     31  C   UNL     1      29.488 -23.475 -15.984  0.00  0.00    +0.000 C 
ATOM     32  C   UNL     1      29.419 -25.397 -14.351  0.00  0.00    +0.000 C 
ATOM     33  C   UNL     1      29.099 -24.935 -15.769  0.00  0.00    +0.000 C 
ENDBRANCH  27  28
ENDBRANCH  26  27
ENDBRANCH   6  26
TORSDOF 6
ENDMDL
MODEL 9
REMARK VINA RESULT:      -9.2      7.701     10.872
REMARK  Name = 4566
REMARK  6 active torsions:
REMARK  status: ('A' for Active; 'I' for Inactive)
REMARK    1  A    between atoms: N_4  and  C_14
REMARK    2  A    between atoms: C_6  and  O_26
REMARK    3  A    between atoms: C_15  and  S_20
REMARK    4  A    between atoms: S_20  and  N_23
REMARK    5  A    between atoms: O_26  and  C_27
REMARK    6  A    between atoms: C_27  and  C_28
REMARK                            x       y       z     vdW  Elec       q    Type
REMARK                         _______ _______ _______ _____ _____    ______ ____
ROOT
ATOM      1  N   UNL     1      34.466 -16.086 -22.978  0.00  0.00    -0.293 NA
ATOM      2  N   UNL     1      33.363 -13.138 -24.880  0.00  0.00    -0.266 NA
ATOM      3  N   UNL     1      34.398 -16.426 -25.393  0.00  0.00    -0.316 NA
ATOM      4  N   UNL     1      35.063 -18.135 -23.941  0.00  0.00    -0.238 N 
ATOM      5  N   UNL     1      33.667 -14.471 -26.640  0.00  0.00    -0.296 N 
ATOM      6  C   UNL     1      34.040 -14.810 -23.102  0.00  0.00    +0.288 C 
ATOM      7  C   UNL     1      33.790 -14.332 -24.372  0.00  0.00    +0.215 C 
ATOM      8  C   UNL     1      33.973 -15.143 -25.485  0.00  0.00    +0.196 C 
ATOM      9  C   UNL     1      34.616 -16.806 -24.116  0.00  0.00    +0.207 C 
ATOM     10  C   UNL     1      33.304 -13.270 -26.243  0.00  0.00    +0.164 C 
ATOM     11  H   UNL     1      33.138 -12.331 -24.363  0.00  0.00    +0.126 HD
ATOM     12  H   UNL     1      35.164 -18.633 -24.785  0.00  0.00    +0.166 HD
ATOM     13  H   UNL     1      33.710 -14.812 -27.563  0.00  0.00    +0.150 HD
ENDROOT
BRANCH   4  14
ATOM     14  C   UNL     1      35.392 -18.886 -22.799  0.00  0.00    +0.059 C 
ATOM     15  C   UNL     1      36.044 -20.380 -20.530  0.00  0.00    +0.122 C 
ATOM     16  C   UNL     1      36.652 -18.756 -22.213  0.00  0.00    +0.017 C 
ATOM     17  C   UNL     1      34.458 -19.766 -22.245  0.00  0.00    +0.017 C 
ATOM     18  C   UNL     1      36.979 -19.502 -21.079  0.00  0.00    +0.021 C 
ATOM     19  C   UNL     1      34.785 -20.512 -21.112  0.00  0.00    +0.021 C 
BRANCH  15  20
ATOM     20  S   UNL     1      36.453 -21.313 -19.112  0.00  0.00    +0.057 S 
ATOM     21  O   UNL     1      37.028 -22.579 -19.544  0.00  0.00    -0.153 OA
ATOM     22  O   UNL     1      37.193 -20.458 -18.194  0.00  0.00    -0.153 OA
BRANCH  20  23
ATOM     23  N   UNL     1      34.903 -21.606 -18.456  0.00  0.00    -0.203 NA
ATOM     24  H   UNL     1      34.531 -22.476 -18.838  0.00  0.00    +0.144 HD
ATOM     25  H   UNL     1      34.280 -20.835 -18.700  0.00  0.00    +0.144 HD
ENDBRANCH  20  23
ENDBRANCH  15  20
ENDBRANCH   4  14
BRANCH   6  26
ATOM     26  O   UNL     1      33.876 -14.053 -21.968  0.00  0.00    -0.453 OA
BRANCH  26  27
ATOM     27  C   UNL     1      32.807 -14.404 -21.110  0.00  0.00    +0.208 C 
BRANCH  27  28
ATOM     28  C   UNL     1      31.932 -13.170 -20.896  0.00  0.00    +0.044 C 
ATOM     29  C   UNL     1      31.961 -12.732 -19.426  0.00  0.00    +0.004 C 
ATOM     30  C   UNL     1      32.377 -12.025 -21.817  0.00  0.00    +0.004 C 
ATOM     31  C   UNL     1      31.137 -11.467 -19.197  0.00  0.00    +0.000 C 
ATOM     32  C   UNL     1      31.552 -10.761 -21.584  0.00  0.00    +0.000 C 
ATOM     33  C   UNL     1      31.577 -10.334 -20.119  0.00  0.00    +0.000 C 
ENDBRANCH  27  28
ENDBRANCH  26  27
ENDBRANCH   6  26
TORSDOF 6
ENDMDL
