MODEL 1
REMARK VINA RESULT:     -11.9      0.000      0.000
REMARK  Name = 60149
REMARK  5 active torsions:
REMARK  status: ('A' for Active; 'I' for Inactive)
REMARK    1  A    between atoms: N_2  and  C_12
REMARK    2  A    between atoms: C_3  and  C_19
REMARK    3  A    between atoms: N_18  and  C_25
REMARK    4  A    between atoms: C_25  and  C_26
REMARK    5  A    between atoms: C_26  and  N_28
REMARK                            x       y       z     vdW  Elec       q    Type
REMARK                         _______ _______ _______ _____ _____    ______ ____
ROOT
ATOM      1 CL   UNL     1      29.236 -23.219 -15.886  0.00  0.00    -0.082 Cl
ATOM      2  N   UNL     1      35.004 -24.006 -15.384  0.00  0.00    -0.265 N 
ATOM      3  C   UNL     1      34.353 -23.065 -17.280  0.00  0.00    -0.006 C 
ATOM      4  C   UNL     1      33.196 -23.317 -16.496  0.00  0.00    +0.012 C 
ATOM      5  C   UNL     1      35.448 -23.497 -16.575  0.00  0.00    +0.065 C 
ATOM      6  C   UNL     1      33.633 -23.909 -15.309  0.00  0.00    +0.055 C 
ATOM      7  C   UNL     1      31.816 -23.100 -16.679  0.00  0.00    +0.012 C 
ATOM      8  C   UNL     1      32.753 -24.296 -14.291  0.00  0.00    +0.016 C 
ATOM      9  C   UNL     1      30.926 -23.483 -15.670  0.00  0.00    +0.058 C 
ATOM     10  C   UNL     1      31.389 -24.071 -14.495  0.00  0.00    +0.013 C 
ENDROOT
BRANCH   2  12
ATOM     11  F   UNL     1      38.301 -26.111 -11.502  0.00  0.00    -0.204 F 
ATOM     12  C   UNL     1      35.840 -24.540 -14.400  0.00  0.00    +0.056 C 
ATOM     13  C   UNL     1      36.219 -23.750 -13.325  0.00  0.00    +0.017 C 
ATOM     14  C   UNL     1      36.277 -25.852 -14.514  0.00  0.00    +0.017 C 
ATOM     15  C   UNL     1      37.055 -24.282 -12.343  0.00  0.00    +0.031 C 
ATOM     16  C   UNL     1      37.113 -26.384 -13.532  0.00  0.00    +0.031 C 
ATOM     17  C   UNL     1      37.501 -25.600 -12.446  0.00  0.00    +0.140 C 
ENDBRANCH   2  12
BRANCH   3  19
ATOM     18  N   UNL     1      34.569 -20.141 -20.475  0.00  0.00    +0.388 N 
ATOM     19  C   UNL     1      34.384 -22.433 -18.654  0.00  0.00    +0.019 C 
ATOM     20  C   UNL     1      33.210 -21.469 -18.890  0.00  0.00    -0.018 C 
ATOM     21  C   UNL     1      35.712 -21.717 -18.949  0.00  0.00    -0.018 C 
ATOM     22  C   UNL     1      33.286 -20.831 -20.279  0.00  0.00    -0.077 C 
ATOM     23  C   UNL     1      35.698 -21.069 -20.335  0.00  0.00    -0.077 C 
ATOM     24  H   UNL     1      34.656 -19.428 -19.751  0.00  0.00    -0.080 HD
BRANCH  18  25
ATOM     25  C   UNL     1      34.603 -19.488 -21.784  0.00  0.00    -0.055 C 
BRANCH  25  26
ATOM     26  C   UNL     1      35.688 -18.421 -21.814  0.00  0.00    +0.077 C 
BRANCH  26  28
ATOM     27  O   UNL     1      35.106 -17.034 -24.416  0.00  0.00    -0.252 OA
ATOM     28  N   UNL     1      35.130 -17.119 -22.058  0.00  0.00    -0.243 N 
ATOM     29  N   UNL     1      34.307 -15.281 -23.087  0.00  0.00    -0.266 N 
ATOM     30  C   UNL     1      34.667 -16.257 -20.984  0.00  0.00    +0.085 C 
ATOM     31  C   UNL     1      34.225 -14.980 -21.680  0.00  0.00    +0.082 C 
ATOM     32  C   UNL     1      34.878 -16.542 -23.318  0.00  0.00    +0.311 C 
ATOM     33  H   UNL     1      33.999 -14.674 -23.799  0.00  0.00    +0.157 HD
ENDBRANCH  26  28
ENDBRANCH  25  26
ENDBRANCH  18  25
ENDBRANCH   3  19
TORSDOF 5
ENDMDL
MODEL 2
REMARK VINA RESULT:     -11.0      2.863      4.406
REMARK  Name = 60149
REMARK  5 active torsions:
REMARK  status: ('A' for Active; 'I' for Inactive)
REMARK    1  A    between atoms: N_2  and  C_12
REMARK    2  A    between atoms: C_3  and  C_19
REMARK    3  A    between atoms: N_18  and  C_25
REMARK    4  A    between atoms: C_25  and  C_26
REMARK    5  A    between atoms: C_26  and  N_28
REMARK                            x       y       z     vdW  Elec       q    Type
REMARK                         _______ _______ _______ _____ _____    ______ ____
ROOT
ATOM      1 CL   UNL     1      38.552 -23.755 -15.023  0.00  0.00    -0.082 Cl
ATOM      2  N   UNL     1      32.915 -23.411 -16.519  0.00  0.00    -0.265 N 
ATOM      3  C   UNL     1      34.325 -22.565 -18.001  0.00  0.00    -0.006 C 
ATOM      4  C   UNL     1      35.083 -23.059 -16.907  0.00  0.00    +0.012 C 
ATOM      5  C   UNL     1      32.998 -22.794 -17.738  0.00  0.00    +0.065 C 
ATOM      6  C   UNL     1      34.173 -23.587 -15.989  0.00  0.00    +0.055 C 
ATOM      7  C   UNL     1      36.459 -23.111 -16.605  0.00  0.00    +0.012 C 
ATOM      8  C   UNL     1      34.572 -24.166 -14.779  0.00  0.00    +0.016 C 
ATOM      9  C   UNL     1      36.871 -23.687 -15.398  0.00  0.00    +0.058 C 
ATOM     10  C   UNL     1      35.940 -24.206 -14.500  0.00  0.00    +0.013 C 
ENDROOT
BRANCH   2  12
ATOM     11  F   UNL     1      28.181 -24.953 -14.154  0.00  0.00    -0.204 F 
ATOM     12  C   UNL     1      31.714 -23.802 -15.920  0.00  0.00    +0.056 C 
ATOM     13  C   UNL     1      31.717 -24.840 -14.999  0.00  0.00    +0.017 C 
ATOM     14  C   UNL     1      30.539 -23.146 -16.255  0.00  0.00    +0.017 C 
ATOM     15  C   UNL     1      30.519 -25.231 -14.401  0.00  0.00    +0.031 C 
ATOM     16  C   UNL     1      29.340 -23.537 -15.657  0.00  0.00    +0.031 C 
ATOM     17  C   UNL     1      29.330 -24.579 -14.730  0.00  0.00    +0.140 C 
ENDBRANCH   2  12
BRANCH   3  19
ATOM     18  N   UNL     1      35.785 -19.573 -20.779  0.00  0.00    +0.388 N 
ATOM     19  C   UNL     1      34.874 -21.900 -19.243  0.00  0.00    +0.019 C 
ATOM     20  C   UNL     1      33.899 -20.878 -19.850  0.00  0.00    -0.018 C 
ATOM     21  C   UNL     1      36.242 -21.239 -19.008  0.00  0.00    -0.018 C 
ATOM     22  C   UNL     1      34.497 -20.209 -21.090  0.00  0.00    -0.077 C 
ATOM     23  C   UNL     1      36.755 -20.555 -20.278  0.00  0.00    -0.077 C 
ATOM     24  H   UNL     1      35.627 -18.883 -20.045  0.00  0.00    -0.080 HD
BRANCH  18  25
ATOM     25  C   UNL     1      36.315 -18.889 -21.960  0.00  0.00    -0.055 C 
BRANCH  25  26
ATOM     26  C   UNL     1      35.216 -18.693 -22.994  0.00  0.00    +0.077 C 
BRANCH  26  28
ATOM     27  O   UNL     1      34.560 -17.174 -25.504  0.00  0.00    -0.252 OA
ATOM     28  N   UNL     1      34.913 -17.299 -23.174  0.00  0.00    -0.243 N 
ATOM     29  N   UNL     1      34.350 -15.314 -24.099  0.00  0.00    -0.266 N 
ATOM     30  C   UNL     1      34.804 -16.377 -22.057  0.00  0.00    +0.085 C 
ATOM     31  C   UNL     1      34.540 -15.024 -22.700  0.00  0.00    +0.082 C 
ATOM     32  C   UNL     1      34.605 -16.663 -24.392  0.00  0.00    +0.311 C 
ATOM     33  H   UNL     1      34.074 -14.646 -24.767  0.00  0.00    +0.157 HD
ENDBRANCH  26  28
ENDBRANCH  25  26
ENDBRANCH  18  25
ENDBRANCH   3  19
TORSDOF 5
ENDMDL
MODEL 3
REMARK VINA RESULT:     -10.6      6.239      9.949
REMARK  Name = 60149
REMARK  5 active torsions:
REMARK  status: ('A' for Active; 'I' for Inactive)
REMARK    1  A    between atoms: N_2  and  C_12
REMARK    2  A    between atoms: C_3  and  C_19
REMARK    3  A    between atoms: N_18  and  C_25
REMARK    4  A    between atoms: C_25  and  C_26
REMARK    5  A    between atoms: C_26  and  N_28
REMARK                            x       y       z     vdW  Elec       q    Type
REMARK                         _______ _______ _______ _____ _____    ______ ____
ROOT
ATOM      1 CL   UNL     1      33.743 -15.041 -26.801  0.00  0.00    -0.082 Cl
ATOM      2  N   UNL     1      34.812 -17.271 -21.508  0.00  0.00    -0.265 N 
ATOM      3  C   UNL     1      33.996 -15.213 -21.504  0.00  0.00    -0.006 C 
ATOM      4  C   UNL     1      34.116 -15.634 -22.855  0.00  0.00    +0.012 C 
ATOM      5  C   UNL     1      34.430 -16.235 -20.699  0.00  0.00    +0.065 C 
ATOM      6  C   UNL     1      34.631 -16.932 -22.830  0.00  0.00    +0.055 C 
ATOM      7  C   UNL     1      33.837 -15.039 -24.102  0.00  0.00    +0.012 C 
ATOM      8  C   UNL     1      34.882 -17.667 -23.994  0.00  0.00    +0.016 C 
ATOM      9  C   UNL     1      34.084 -15.762 -25.273  0.00  0.00    +0.058 C 
ATOM     10  C   UNL     1      34.598 -17.056 -25.219  0.00  0.00    +0.013 C 
ENDROOT
BRANCH   2  12
ATOM     11  F   UNL     1      36.772 -22.077 -19.655  0.00  0.00    -0.204 F 
ATOM     12  C   UNL     1      35.309 -18.489 -21.038  0.00  0.00    +0.056 C 
ATOM     13  C   UNL     1      34.428 -19.524 -20.761  0.00  0.00    +0.017 C 
ATOM     14  C   UNL     1      36.676 -18.644 -20.856  0.00  0.00    +0.017 C 
ATOM     15  C   UNL     1      34.924 -20.741 -20.291  0.00  0.00    +0.031 C 
ATOM     16  C   UNL     1      37.172 -19.861 -20.386  0.00  0.00    +0.031 C 
ATOM     17  C   UNL     1      36.296 -20.909 -20.104  0.00  0.00    +0.140 C 
ENDBRANCH   2  12
BRANCH   3  19
ATOM     18  N   UNL     1      31.377 -11.869 -20.629  0.00  0.00    +0.388 N 
ATOM     19  C   UNL     1      33.482 -13.873 -21.027  0.00  0.00    +0.019 C 
ATOM     20  C   UNL     1      32.945 -13.000 -22.173  0.00  0.00    -0.018 C 
ATOM     21  C   UNL     1      32.416 -14.003 -19.928  0.00  0.00    -0.018 C 
ATOM     22  C   UNL     1      32.413 -11.664 -21.651  0.00  0.00    -0.077 C 
ATOM     23  C   UNL     1      31.901 -12.630 -19.487  0.00  0.00    -0.077 C 
ATOM     24  H   UNL     1      30.623 -12.412 -21.049  0.00  0.00    -0.080 HD
BRANCH  18  25
ATOM     25  C   UNL     1      30.838 -10.584 -20.182  0.00  0.00    -0.055 C 
BRANCH  25  26
ATOM     26  C   UNL     1      31.965  -9.667 -19.729  0.00  0.00    +0.077 C 
BRANCH  26  28
ATOM     27  O   UNL     1      33.129  -6.982 -19.046  0.00  0.00    -0.252 OA
ATOM     28  N   UNL     1      31.988  -8.452 -20.496  0.00  0.00    -0.243 N 
ATOM     29  N   UNL     1      32.384  -6.329 -21.166  0.00  0.00    -0.266 N 
ATOM     30  C   UNL     1      31.470  -8.378 -21.851  0.00  0.00    +0.085 C 
ATOM     31  C   UNL     1      31.636  -6.919 -22.247  0.00  0.00    +0.082 C 
ATOM     32  C   UNL     1      32.567  -7.229 -20.105  0.00  0.00    +0.311 C 
ATOM     33  H   UNL     1      32.725  -5.405 -21.172  0.00  0.00    +0.157 HD
ENDBRANCH  26  28
ENDBRANCH  25  26
ENDBRANCH  18  25
ENDBRANCH   3  19
TORSDOF 5
ENDMDL
MODEL 4
REMARK VINA RESULT:     -10.6      7.332     13.497
REMARK  Name = 60149
REMARK  5 active torsions:
REMARK  status: ('A' for Active; 'I' for Inactive)
REMARK    1  A    between atoms: N_2  and  C_12
REMARK    2  A    between atoms: C_3  and  C_19
REMARK    3  A    between atoms: N_18  and  C_25
REMARK    4  A    between atoms: C_25  and  C_26
REMARK    5  A    between atoms: C_26  and  N_28
REMARK                            x       y       z     vdW  Elec       q    Type
REMARK                         _______ _______ _______ _____ _____    ______ ____
ROOT
ATOM      1 CL   UNL     1      31.120 -11.898 -17.003  0.00  0.00    -0.082 Cl
ATOM      2  N   UNL     1      32.449  -9.903 -22.331  0.00  0.00    -0.265 N 
ATOM      3  C   UNL     1      32.629 -12.096 -22.086  0.00  0.00    -0.006 C 
ATOM      4  C   UNL     1      32.204 -11.550 -20.846  0.00  0.00    +0.012 C 
ATOM      5  C   UNL     1      32.772 -11.065 -22.979  0.00  0.00    +0.065 C 
ATOM      6  C   UNL     1      32.098 -10.169 -21.027  0.00  0.00    +0.055 C 
ATOM      7  C   UNL     1      31.898 -12.094 -19.583  0.00  0.00    +0.012 C 
ATOM      8  C   UNL     1      31.699  -9.302 -20.003  0.00  0.00    +0.016 C 
ATOM      9  C   UNL     1      31.498 -11.239 -18.550  0.00  0.00    +0.058 C 
ATOM     10  C   UNL     1      31.401  -9.865 -18.759  0.00  0.00    +0.013 C 
ENDROOT
BRANCH   2  12
ATOM     11  F   UNL     1      32.556  -4.921 -24.686  0.00  0.00    -0.204 F 
ATOM     12  C   UNL     1      32.476  -8.640 -22.928  0.00  0.00    +0.056 C 
ATOM     13  C   UNL     1      33.693  -8.002 -23.121  0.00  0.00    +0.017 C 
ATOM     14  C   UNL     1      31.285  -8.044 -23.318  0.00  0.00    +0.017 C 
ATOM     15  C   UNL     1      33.720  -6.740 -23.716  0.00  0.00    +0.031 C 
ATOM     16  C   UNL     1      31.312  -6.782 -23.913  0.00  0.00    +0.031 C 
ATOM     17  C   UNL     1      32.529  -6.131 -24.113  0.00  0.00    +0.140 C 
ENDBRANCH   2  12
BRANCH   3  19
ATOM     18  N   UNL     1      34.622 -15.833 -23.018  0.00  0.00    +0.388 N 
ATOM     19  C   UNL     1      32.884 -13.558 -22.380  0.00  0.00    +0.019 C 
ATOM     20  C   UNL     1      33.459 -13.789 -23.787  0.00  0.00    -0.018 C 
ATOM     21  C   UNL     1      33.788 -14.225 -21.332  0.00  0.00    -0.018 C 
ATOM     22  C   UNL     1      33.727 -15.274 -24.040  0.00  0.00    -0.077 C 
ATOM     23  C   UNL     1      34.045 -15.695 -21.674  0.00  0.00    -0.077 C 
ATOM     24  H   UNL     1      35.495 -15.306 -23.041  0.00  0.00    -0.080 HD
BRANCH  18  25
ATOM     25  C   UNL     1      34.914 -17.238 -23.307  0.00  0.00    -0.055 C 
BRANCH  25  26
ATOM     26  C   UNL     1      36.131 -17.698 -22.518  0.00  0.00    +0.077 C 
BRANCH  26  28
ATOM     27  O   UNL     1      37.752 -18.983 -20.338  0.00  0.00    -0.252 OA
ATOM     28  N   UNL     1      35.811 -18.813 -21.669  0.00  0.00    -0.243 N 
ATOM     29  N   UNL     1      35.911 -20.403 -20.066  0.00  0.00    -0.266 N 
ATOM     30  C   UNL     1      34.518 -19.474 -21.709  0.00  0.00    +0.085 C 
ATOM     31  C   UNL     1      34.640 -20.614 -20.710  0.00  0.00    +0.082 C 
ATOM     32  C   UNL     1      36.628 -19.352 -20.657  0.00  0.00    +0.311 C 
ATOM     33  H   UNL     1      36.237 -20.934 -19.302  0.00  0.00    +0.157 HD
ENDBRANCH  26  28
ENDBRANCH  25  26
ENDBRANCH  18  25
ENDBRANCH   3  19
TORSDOF 5
ENDMDL
MODEL 5
REMARK VINA RESULT:     -10.3     10.298     13.952
REMARK  Name = 60149
REMARK  5 active torsions:
REMARK  status: ('A' for Active; 'I' for Inactive)
REMARK    1  A    between atoms: N_2  and  C_12
REMARK    2  A    between atoms: C_3  and  C_19
REMARK    3  A    between atoms: N_18  and  C_25
REMARK    4  A    between atoms: C_25  and  C_26
REMARK    5  A    between atoms: C_26  and  N_28
REMARK                            x       y       z     vdW  Elec       q    Type
REMARK                         _______ _______ _______ _____ _____    ______ ____
ROOT
ATOM      1 CL   UNL     1      30.807 -11.227 -18.007  0.00  0.00    -0.082 Cl
ATOM      2  N   UNL     1      33.194 -12.714 -23.129  0.00  0.00    -0.265 N 
ATOM      3  C   UNL     1      32.784 -10.551 -22.885  0.00  0.00    -0.006 C 
ATOM      4  C   UNL     1      32.372 -11.212 -21.697  0.00  0.00    +0.012 C 
ATOM      5  C   UNL     1      33.284 -11.495 -23.746  0.00  0.00    +0.065 C 
ATOM      6  C   UNL     1      32.641 -12.571 -21.876  0.00  0.00    +0.055 C 
ATOM      7  C   UNL     1      31.796 -10.789 -20.483  0.00  0.00    +0.012 C 
ATOM      8  C   UNL     1      32.361 -13.531 -20.896  0.00  0.00    +0.016 C 
ATOM      9  C   UNL     1      31.510 -11.738 -19.495  0.00  0.00    +0.058 C 
ATOM     10  C   UNL     1      31.789 -13.088 -19.701  0.00  0.00    +0.013 C 
ENDROOT
BRANCH   2  12
ATOM     11  F   UNL     1      34.842 -17.456 -25.402  0.00  0.00    -0.204 F 
ATOM     12  C   UNL     1      33.612 -13.916 -23.705  0.00  0.00    +0.056 C 
ATOM     13  C   UNL     1      33.073 -14.314 -24.920  0.00  0.00    +0.017 C 
ATOM     14  C   UNL     1      34.558 -14.692 -23.052  0.00  0.00    +0.017 C 
ATOM     15  C   UNL     1      33.490 -15.515 -25.495  0.00  0.00    +0.031 C 
ATOM     16  C   UNL     1      34.974 -15.894 -23.627  0.00  0.00    +0.031 C 
ATOM     17  C   UNL     1      34.441 -16.305 -24.849  0.00  0.00    +0.140 C 
ENDBRANCH   2  12
BRANCH   3  19
ATOM     18  N   UNL     1      32.157  -6.290 -22.384  0.00  0.00    +0.388 N 
ATOM     19  C   UNL     1      32.690  -9.067 -23.162  0.00  0.00    +0.019 C 
ATOM     20  C   UNL     1      31.265  -8.519 -22.983  0.00  0.00    -0.018 C 
ATOM     21  C   UNL     1      33.675  -8.243 -22.318  0.00  0.00    -0.018 C 
ATOM     22  C   UNL     1      31.213  -7.012 -23.248  0.00  0.00    -0.077 C 
ATOM     23  C   UNL     1      33.535  -6.745 -22.606  0.00  0.00    -0.077 C 
ATOM     24  H   UNL     1      31.912  -6.488 -21.415  0.00  0.00    -0.080 HD
BRANCH  18  25
ATOM     25  C   UNL     1      32.053  -4.847 -22.609  0.00  0.00    -0.055 C 
BRANCH  25  26
ATOM     26  C   UNL     1      31.295  -4.567 -23.898  0.00  0.00    +0.077 C 
BRANCH  26  28
ATOM     27  O   UNL     1      33.149  -5.653 -25.999  0.00  0.00    -0.252 OA
ATOM     28  N   UNL     1      32.120  -3.869 -24.846  0.00  0.00    -0.243 N 
ATOM     29  N   UNL     1      33.549  -3.411 -26.537  0.00  0.00    -0.266 N 
ATOM     30  C   UNL     1      32.108  -2.422 -24.972  0.00  0.00    +0.085 C 
ATOM     31  C   UNL     1      33.158  -2.120 -26.030  0.00  0.00    +0.082 C 
ATOM     32  C   UNL     1      32.960  -4.458 -25.812  0.00  0.00    +0.311 C 
ATOM     33  H   UNL     1      34.158  -3.541 -27.300  0.00  0.00    +0.157 HD
ENDBRANCH  26  28
ENDBRANCH  25  26
ENDBRANCH  18  25
ENDBRANCH   3  19
TORSDOF 5
ENDMDL
MODEL 6
REMARK VINA RESULT:     -10.1      6.224     10.098
REMARK  Name = 60149
REMARK  5 active torsions:
REMARK  status: ('A' for Active; 'I' for Inactive)
REMARK    1  A    between atoms: N_2  and  C_12
REMARK    2  A    between atoms: C_3  and  C_19
REMARK    3  A    between atoms: N_18  and  C_25
REMARK    4  A    between atoms: C_25  and  C_26
REMARK    5  A    between atoms: C_26  and  N_28
REMARK                            x       y       z     vdW  Elec       q    Type
REMARK                         _______ _______ _______ _____ _____    ______ ____
ROOT
ATOM      1 CL   UNL     1      33.552 -14.931 -26.921  0.00  0.00    -0.082 Cl
ATOM      2  N   UNL     1      34.773 -17.113 -21.640  0.00  0.00    -0.265 N 
ATOM      3  C   UNL     1      34.001 -15.037 -21.635  0.00  0.00    -0.006 C 
ATOM      4  C   UNL     1      34.061 -15.479 -22.983  0.00  0.00    +0.012 C 
ATOM      5  C   UNL     1      34.442 -16.058 -20.832  0.00  0.00    +0.065 C 
ATOM      6  C   UNL     1      34.549 -16.787 -22.959  0.00  0.00    +0.055 C 
ATOM      7  C   UNL     1      33.748 -14.894 -24.227  0.00  0.00    +0.012 C 
ATOM      8  C   UNL     1      34.740 -17.543 -24.122  0.00  0.00    +0.016 C 
ATOM      9  C   UNL     1      33.935 -15.639 -25.397  0.00  0.00    +0.058 C 
ATOM     10  C   UNL     1      34.424 -16.943 -25.343  0.00  0.00    +0.013 C 
ENDROOT
BRANCH   2  12
ATOM     11  F   UNL     1      36.700 -21.935 -19.793  0.00  0.00    -0.204 F 
ATOM     12  C   UNL     1      35.261 -18.335 -21.172  0.00  0.00    +0.056 C 
ATOM     13  C   UNL     1      36.628 -18.507 -21.010  0.00  0.00    +0.017 C 
ATOM     14  C   UNL     1      34.371 -19.357 -20.876  0.00  0.00    +0.017 C 
ATOM     15  C   UNL     1      37.116 -19.728 -20.544  0.00  0.00    +0.031 C 
ATOM     16  C   UNL     1      34.859 -20.578 -20.410  0.00  0.00    +0.031 C 
ATOM     17  C   UNL     1      36.231 -20.764 -20.242  0.00  0.00    +0.140 C 
ENDBRANCH   2  12
BRANCH   3  19
ATOM     18  N   UNL     1      31.566 -11.514 -20.951  0.00  0.00    +0.388 N 
ATOM     19  C   UNL     1      33.534 -13.680 -21.158  0.00  0.00    +0.019 C 
ATOM     20  C   UNL     1      33.251 -12.709 -22.315  0.00  0.00    -0.018 C 
ATOM     21  C   UNL     1      32.306 -13.765 -20.237  0.00  0.00    -0.018 C 
ATOM     22  C   UNL     1      32.758 -11.356 -21.796  0.00  0.00    -0.077 C 
ATOM     23  C   UNL     1      31.847 -12.373 -19.794  0.00  0.00    -0.077 C 
ATOM     24  H   UNL     1      30.842 -11.965 -21.510  0.00  0.00    -0.080 HD
BRANCH  18  25
ATOM     25  C   UNL     1      31.074 -10.208 -20.511  0.00  0.00    -0.055 C 
BRANCH  25  26
ATOM     26  C   UNL     1      32.172  -9.162 -20.634  0.00  0.00    +0.077 C 
BRANCH  26  28
ATOM     27  O   UNL     1      31.345  -8.721 -23.490  0.00  0.00    -0.252 OA
ATOM     28  N   UNL     1      31.687  -7.972 -21.279  0.00  0.00    -0.243 N 
ATOM     29  N   UNL     1      30.872  -6.530 -22.818  0.00  0.00    -0.266 N 
ATOM     30  C   UNL     1      31.443  -6.738 -20.552  0.00  0.00    +0.085 C 
ATOM     31  C   UNL     1      31.007  -5.745 -21.617  0.00  0.00    +0.082 C 
ATOM     32  C   UNL     1      31.309  -7.850 -22.630  0.00  0.00    +0.311 C 
ATOM     33  H   UNL     1      30.517  -6.181 -23.667  0.00  0.00    +0.157 HD
ENDBRANCH  26  28
ENDBRANCH  25  26
ENDBRANCH  18  25
ENDBRANCH   3  19
TORSDOF 5
ENDMDL
MODEL 7
REMARK VINA RESULT:      -9.7      1.745      2.382
REMARK  Name = 60149
REMARK  5 active torsions:
REMARK  status: ('A' for Active; 'I' for Inactive)
REMARK    1  A    between atoms: N_2  and  C_12
REMARK    2  A    between atoms: C_3  and  C_19
REMARK    3  A    between atoms: N_18  and  C_25
REMARK    4  A    between atoms: C_25  and  C_26
REMARK    5  A    between atoms: C_26  and  N_28
REMARK                            x       y       z     vdW  Elec       q    Type
REMARK                         _______ _______ _______ _____ _____    ______ ____
ROOT
ATOM      1 CL   UNL     1      31.176 -23.972 -14.328  0.00  0.00    -0.082 Cl
ATOM      2  N   UNL     1      36.936 -24.163 -15.289  0.00  0.00    -0.265 N 
ATOM      3  C   UNL     1      35.811 -22.814 -16.637  0.00  0.00    -0.006 C 
ATOM      4  C   UNL     1      34.884 -23.415 -15.744  0.00  0.00    +0.012 C 
ATOM      5  C   UNL     1      37.062 -23.291 -16.336  0.00  0.00    +0.065 C 
ATOM      6  C   UNL     1      35.617 -24.258 -14.906  0.00  0.00    +0.055 C 
ATOM      7  C   UNL     1      33.489 -23.324 -15.564  0.00  0.00    +0.012 C 
ATOM      8  C   UNL     1      35.022 -25.018 -13.893  0.00  0.00    +0.016 C 
ATOM      9  C   UNL     1      32.882 -24.079 -14.555  0.00  0.00    +0.058 C 
ATOM     10  C   UNL     1      33.638 -24.913 -13.733  0.00  0.00    +0.013 C 
ENDROOT
BRANCH   2  12
ATOM     11  F   UNL     1      41.158 -26.857 -12.987  0.00  0.00    -0.204 F 
ATOM     12  C   UNL     1      38.007 -24.846 -14.705  0.00  0.00    +0.056 C 
ATOM     13  C   UNL     1      37.815 -25.519 -13.507  0.00  0.00    +0.017 C 
ATOM     14  C   UNL     1      39.244 -24.840 -15.334  0.00  0.00    +0.017 C 
ATOM     15  C   UNL     1      38.884 -26.200 -12.924  0.00  0.00    +0.031 C 
ATOM     16  C   UNL     1      40.313 -25.521 -14.750  0.00  0.00    +0.031 C 
ATOM     17  C   UNL     1      40.133 -26.202 -13.546  0.00  0.00    +0.140 C 
ENDBRANCH   2  12
BRANCH   3  19
ATOM     18  N   UNL     1      35.159 -21.043 -20.541  0.00  0.00    +0.388 N 
ATOM     19  C   UNL     1      35.486 -21.823 -17.732  0.00  0.00    +0.019 C 
ATOM     20  C   UNL     1      36.682 -21.547 -18.658  0.00  0.00    -0.018 C 
ATOM     21  C   UNL     1      34.267 -22.242 -18.569  0.00  0.00    -0.018 C 
ATOM     22  C   UNL     1      36.310 -20.560 -19.766  0.00  0.00    -0.077 C 
ATOM     23  C   UNL     1      33.982 -21.231 -19.682  0.00  0.00    -0.077 C 
ATOM     24  H   UNL     1      35.405 -21.949 -20.940  0.00  0.00    -0.080 HD
BRANCH  18  25
ATOM     25  C   UNL     1      34.852 -20.117 -21.632  0.00  0.00    -0.055 C 
BRANCH  25  26
ATOM     26  C   UNL     1      35.214 -18.694 -21.234  0.00  0.00    +0.077 C 
BRANCH  26  28
ATOM     27  O   UNL     1      34.792 -15.718 -21.192  0.00  0.00    -0.252 OA
ATOM     28  N   UNL     1      35.001 -17.779 -22.322  0.00  0.00    -0.243 N 
ATOM     29  N   UNL     1      34.678 -15.890 -23.523  0.00  0.00    -0.266 N 
ATOM     30  C   UNL     1      35.038 -18.201 -23.712  0.00  0.00    +0.085 C 
ATOM     31  C   UNL     1      34.704 -16.946 -24.503  0.00  0.00    +0.082 C 
ATOM     32  C   UNL     1      34.820 -16.386 -22.218  0.00  0.00    +0.311 C 
ATOM     33  H   UNL     1      34.572 -14.936 -23.744  0.00  0.00    +0.157 HD
ENDBRANCH  26  28
ENDBRANCH  25  26
ENDBRANCH  18  25
ENDBRANCH   3  19
TORSDOF 5
ENDMDL
MODEL 8
REMARK VINA RESULT:      -9.6      7.727     14.049
REMARK  Name = 60149
REMARK  5 active torsions:
REMARK  status: ('A' for Active; 'I' for Inactive)
REMARK    1  A    between atoms: N_2  and  C_12
REMARK    2  A    between atoms: C_3  and  C_19
REMARK    3  A    between atoms: N_18  and  C_25
REMARK    4  A    between atoms: C_25  and  C_26
REMARK    5  A    between atoms: C_26  and  N_28
REMARK                            x       y       z     vdW  Elec       q    Type
REMARK                         _______ _______ _______ _____ _____    ______ ____
ROOT
ATOM      1 CL   UNL     1      31.211 -11.459 -17.308  0.00  0.00    -0.082 Cl
ATOM      2  N   UNL     1      32.410  -9.072 -22.504  0.00  0.00    -0.265 N 
ATOM      3  C   UNL     1      32.493 -11.284 -22.453  0.00  0.00    -0.006 C 
ATOM      4  C   UNL     1      32.148 -10.828 -21.153  0.00  0.00    +0.012 C 
ATOM      5  C   UNL     1      32.648 -10.186 -23.262  0.00  0.00    +0.065 C 
ATOM      6  C   UNL     1      32.101  -9.434 -21.212  0.00  0.00    +0.055 C 
ATOM      7  C   UNL     1      31.869 -11.466 -19.928  0.00  0.00    +0.012 C 
ATOM      8  C   UNL     1      31.788  -8.642 -20.101  0.00  0.00    +0.016 C 
ATOM      9  C   UNL     1      31.555 -10.686 -18.809  0.00  0.00    +0.058 C 
ATOM     10  C   UNL     1      31.516  -9.296 -18.897  0.00  0.00    +0.013 C 
ENDROOT
BRANCH   2  12
ATOM     11  F   UNL     1      32.657  -3.914 -24.430  0.00  0.00    -0.204 F 
ATOM     12  C   UNL     1      32.472  -7.764 -22.993  0.00  0.00    +0.056 C 
ATOM     13  C   UNL     1      31.337  -6.968 -22.959  0.00  0.00    +0.017 C 
ATOM     14  C   UNL     1      33.670  -7.283 -23.503  0.00  0.00    +0.017 C 
ATOM     15  C   UNL     1      31.399  -5.662 -23.448  0.00  0.00    +0.031 C 
ATOM     16  C   UNL     1      33.732  -5.978 -23.992  0.00  0.00    +0.031 C 
ATOM     17  C   UNL     1      32.597  -5.167 -23.963  0.00  0.00    +0.140 C 
ENDBRANCH   2  12
BRANCH   3  19
ATOM     18  N   UNL     1      34.278 -15.063 -23.608  0.00  0.00    +0.388 N 
ATOM     19  C   UNL     1      32.664 -12.724 -22.881  0.00  0.00    +0.019 C 
ATOM     20  C   UNL     1      33.353 -12.860 -24.249  0.00  0.00    -0.018 C 
ATOM     21  C   UNL     1      33.410 -13.569 -21.837  0.00  0.00    -0.018 C 
ATOM     22  C   UNL     1      33.530 -14.329 -24.638  0.00  0.00    -0.077 C 
ATOM     23  C   UNL     1      33.587 -15.013 -22.314  0.00  0.00    -0.077 C 
ATOM     24  H   UNL     1      35.187 -14.613 -23.498  0.00  0.00    -0.080 HD
BRANCH  18  25
ATOM     25  C   UNL     1      34.490 -16.451 -24.022  0.00  0.00    -0.055 C 
BRANCH  25  26
ATOM     26  C   UNL     1      35.713 -17.029 -23.327  0.00  0.00    +0.077 C 
BRANCH  26  28
ATOM     27  O   UNL     1      34.454 -19.616 -24.195  0.00  0.00    -0.252 OA
ATOM     28  N   UNL     1      35.371 -18.191 -22.553  0.00  0.00    -0.243 N 
ATOM     29  N   UNL     1      34.658 -20.251 -21.951  0.00  0.00    -0.266 N 
ATOM     30  C   UNL     1      35.685 -18.304 -21.139  0.00  0.00    +0.085 C 
ATOM     31  C   UNL     1      35.097 -19.643 -20.721  0.00  0.00    +0.082 C 
ATOM     32  C   UNL     1      34.788 -19.377 -23.041  0.00  0.00    +0.311 C 
ATOM     33  H   UNL     1      34.309 -21.169 -22.018  0.00  0.00    +0.157 HD
ENDBRANCH  26  28
ENDBRANCH  25  26
ENDBRANCH  18  25
ENDBRANCH   3  19
TORSDOF 5
ENDMDL
MODEL 9
REMARK VINA RESULT:      -9.6     10.904     18.249
REMARK  Name = 60149
REMARK  5 active torsions:
REMARK  status: ('A' for Active; 'I' for Inactive)
REMARK    1  A    between atoms: N_2  and  C_12
REMARK    2  A    between atoms: C_3  and  C_19
REMARK    3  A    between atoms: N_18  and  C_25
REMARK    4  A    between atoms: C_25  and  C_26
REMARK    5  A    between atoms: C_26  and  N_28
REMARK                            x       y       z     vdW  Elec       q    Type
REMARK                         _______ _______ _______ _____ _____    ______ ____
ROOT
ATOM      1 CL   UNL     1      29.598  -1.786 -22.101  0.00  0.00    -0.082 Cl
ATOM      2  N   UNL     1      33.317  -5.142 -25.108  0.00  0.00    -0.265 N 
ATOM      3  C   UNL     1      32.290  -6.160 -23.431  0.00  0.00    -0.006 C 
ATOM      4  C   UNL     1      31.837  -4.815 -23.471  0.00  0.00    +0.012 C 
ATOM      5  C   UNL     1      33.197  -6.334 -24.446  0.00  0.00    +0.065 C 
ATOM      6  C   UNL     1      32.497  -4.196 -24.535  0.00  0.00    +0.055 C 
ATOM      7  C   UNL     1      30.926  -4.059 -22.705  0.00  0.00    +0.012 C 
ATOM      8  C   UNL     1      32.290  -2.853 -24.873  0.00  0.00    +0.016 C 
ATOM      9  C   UNL     1      30.711  -2.716 -23.032  0.00  0.00    +0.058 C 
ATOM     10  C   UNL     1      31.384  -2.124 -24.099  0.00  0.00    +0.013 C 
ENDROOT
BRANCH   2  12
ATOM     11  F   UNL     1      36.620  -4.336 -29.446  0.00  0.00    -0.204 F 
ATOM     12  C   UNL     1      34.154  -4.937 -26.208  0.00  0.00    +0.056 C 
ATOM     13  C   UNL     1      35.516  -5.172 -26.082  0.00  0.00    +0.017 C 
ATOM     14  C   UNL     1      33.610  -4.504 -27.409  0.00  0.00    +0.017 C 
ATOM     15  C   UNL     1      36.352  -4.966 -27.180  0.00  0.00    +0.031 C 
ATOM     16  C   UNL     1      34.446  -4.299 -28.506  0.00  0.00    +0.031 C 
ATOM     17  C   UNL     1      35.817  -4.531 -28.392  0.00  0.00    +0.140 C 
ENDBRANCH   2  12
BRANCH   3  19
ATOM     18  N   UNL     1      32.179  -9.781 -21.048  0.00  0.00    +0.388 N 
ATOM     19  C   UNL     1      31.857  -7.222 -22.446  0.00  0.00    +0.019 C 
ATOM     20  C   UNL     1      31.565  -8.573 -23.119  0.00  0.00    -0.018 C 
ATOM     21  C   UNL     1      32.864  -7.417 -21.302  0.00  0.00    -0.018 C 
ATOM     22  C   UNL     1      31.154  -9.629 -22.090  0.00  0.00    -0.077 C 
ATOM     23  C   UNL     1      32.406  -8.516 -20.339  0.00  0.00    -0.077 C 
ATOM     24  H   UNL     1      33.051 -10.049 -21.502  0.00  0.00    -0.080 HD
BRANCH  18  25
ATOM     25  C   UNL     1      31.797 -10.834 -20.106  0.00  0.00    -0.055 C 
BRANCH  25  26
ATOM     26  C   UNL     1      31.146 -11.993 -20.845  0.00  0.00    +0.077 C 
BRANCH  26  28
ATOM     27  O   UNL     1      33.218 -12.221 -23.010  0.00  0.00    -0.252 OA
ATOM     28  N   UNL     1      32.094 -13.043 -21.105  0.00  0.00    -0.243 N 
ATOM     29  N   UNL     1      33.776 -14.258 -22.002  0.00  0.00    -0.266 N 
ATOM     30  C   UNL     1      32.235 -14.196 -20.234  0.00  0.00    +0.085 C 
ATOM     31  C   UNL     1      33.286 -15.062 -20.911  0.00  0.00    +0.082 C 
ATOM     32  C   UNL     1      33.045 -13.068 -22.143  0.00  0.00    +0.311 C 
ATOM     33  H   UNL     1      34.532 -14.514 -22.579  0.00  0.00    +0.157 HD
ENDBRANCH  26  28
ENDBRANCH  25  26
ENDBRANCH  18  25
ENDBRANCH   3  19
TORSDOF 5
ENDMDL
