MODEL 1
REMARK VINA RESULT:     -11.5      0.000      0.000
REMARK  Name = 9969613
REMARK  5 active torsions:
REMARK  status: ('A' for Active; 'I' for Inactive)
REMARK    1  A    between atoms: C_3  and  O_7
REMARK    2  A    between atoms: C_4  and  O_17
REMARK    3  A    between atoms: O_7  and  C_13
REMARK    4  A    between atoms: O_17  and  C_21
REMARK    5  A    between atoms: C_18  and  N_24
REMARK                            x       y       z     vdW  Elec       q    Type
REMARK                         _______ _______ _______ _____ _____    ______ ____
ROOT
ATOM      1  N   UNL     1      34.597 -23.332 -16.643  0.00  0.00    -0.283 NA
ATOM      2  N   UNL     1      32.260 -23.421 -17.227  0.00  0.00    -0.151 NA
ATOM      3  C   UNL     1      34.221 -23.289 -15.355  0.00  0.00    +0.296 C 
ATOM      4  C   UNL     1      33.575 -23.397 -17.519  0.00  0.00    +0.260 C 
ATOM      5  C   UNL     1      32.921 -23.307 -14.916  0.00  0.00    +0.094 C 
ATOM      6  C   UNL     1      31.968 -23.375 -15.910  0.00  0.00    +0.119 C 
ENDROOT
BRANCH   3   7
ATOM      7  O   UNL     1      35.238 -23.221 -14.417  0.00  0.00    -0.427 OA
BRANCH   7  13
ATOM      8  O   UNL     1      39.800 -24.776 -14.587  0.00  0.00    -0.435 OA
ATOM      9  O   UNL     1      39.108 -27.081 -14.478  0.00  0.00    -0.435 OA
ATOM     10  C   UNL     1      38.447 -24.907 -14.518  0.00  0.00    +0.179 C 
ATOM     11  C   UNL     1      38.052 -26.224 -14.454  0.00  0.00    +0.177 C 
ATOM     12  C   UNL     1      37.533 -23.874 -14.507  0.00  0.00    +0.078 C 
ATOM     13  C   UNL     1      36.178 -24.207 -14.430  0.00  0.00    +0.151 C 
ATOM     14  C   UNL     1      36.721 -26.580 -14.379  0.00  0.00    +0.043 C 
ATOM     15  C   UNL     1      40.212 -26.157 -14.562  0.00  0.00    +0.429 C 
ATOM     16  C   UNL     1      35.774 -25.552 -14.368  0.00  0.00    +0.041 C 
ENDBRANCH   7  13
ENDBRANCH   3   7
BRANCH   4  17
ATOM     17  O   UNL     1      33.910 -23.444 -18.852  0.00  0.00    -0.383 OA
BRANCH  17  21
ATOM     18  C   UNL     1      34.625 -19.824 -20.754  0.00  0.00    +0.057 C 
ATOM     19  C   UNL     1      33.318 -20.213 -20.464  0.00  0.00    +0.018 C 
ATOM     20  C   UNL     1      35.693 -20.652 -20.405  0.00  0.00    +0.018 C 
ATOM     21  C   UNL     1      34.148 -22.242 -19.483  0.00  0.00    +0.160 C 
ATOM     22  C   UNL     1      33.078 -21.430 -19.824  0.00  0.00    +0.040 C 
ATOM     23  C   UNL     1      35.452 -21.868 -19.765  0.00  0.00    +0.040 C 
BRANCH  18  24
ATOM     24  N   UNL     1      34.864 -18.619 -21.387  0.00  0.00    -0.246 N 
ATOM     25  N   UNL     1      35.048 -16.418 -21.692  0.00  0.00    -0.224 NA
ATOM     26  C   UNL     1      35.263 -18.443 -22.688  0.00  0.00    +0.092 C 
ATOM     27  C   UNL     1      34.750 -17.369 -20.833  0.00  0.00    +0.172 C 
ATOM     28  C   UNL     1      35.368 -17.082 -22.850  0.00  0.00    +0.117 C 
ENDBRANCH  18  24
ENDBRANCH  17  21
ENDBRANCH   4  17
TORSDOF 5
ENDMDL
MODEL 2
REMARK VINA RESULT:     -11.2      4.183      7.912
REMARK  Name = 9969613
REMARK  5 active torsions:
REMARK  status: ('A' for Active; 'I' for Inactive)
REMARK    1  A    between atoms: C_3  and  O_7
REMARK    2  A    between atoms: C_4  and  O_17
REMARK    3  A    between atoms: O_7  and  C_13
REMARK    4  A    between atoms: O_17  and  C_21
REMARK    5  A    between atoms: C_18  and  N_24
REMARK                            x       y       z     vdW  Elec       q    Type
REMARK                         _______ _______ _______ _____ _____    ______ ____
ROOT
ATOM      1  N   UNL     1      35.739 -17.721 -22.363  0.00  0.00    -0.283 NA
ATOM      2  N   UNL     1      34.530 -17.574 -24.444  0.00  0.00    -0.151 NA
ATOM      3  C   UNL     1      35.510 -19.043 -22.382  0.00  0.00    +0.296 C 
ATOM      4  C   UNL     1      35.226 -17.053 -23.415  0.00  0.00    +0.260 C 
ATOM      5  C   UNL     1      34.818 -19.707 -23.365  0.00  0.00    +0.094 C 
ATOM      6  C   UNL     1      34.344 -18.910 -24.387  0.00  0.00    +0.119 C 
ENDROOT
BRANCH   3   7
ATOM      7  O   UNL     1      36.018 -19.773 -21.320  0.00  0.00    -0.427 OA
BRANCH   7  13
ATOM      8  O   UNL     1      34.931 -23.112 -18.015  0.00  0.00    -0.435 OA
ATOM      9  O   UNL     1      32.579 -22.612 -18.159  0.00  0.00    -0.435 OA
ATOM     10  C   UNL     1      34.667 -22.124 -18.912  0.00  0.00    +0.179 C 
ATOM     11  C   UNL     1      33.323 -21.837 -18.994  0.00  0.00    +0.177 C 
ATOM     12  C   UNL     1      35.600 -21.453 -19.676  0.00  0.00    +0.078 C 
ATOM     13  C   UNL     1      35.135 -20.462 -20.546  0.00  0.00    +0.151 C 
ATOM     14  C   UNL     1      32.838 -20.865 -19.845  0.00  0.00    +0.043 C 
ATOM     15  C   UNL     1      33.605 -23.417 -17.542  0.00  0.00    +0.429 C 
ATOM     16  C   UNL     1      33.762 -20.171 -20.630  0.00  0.00    +0.041 C 
ENDBRANCH   7  13
ENDBRANCH   3   7
BRANCH   4  17
ATOM     17  O   UNL     1      35.435 -15.694 -23.441  0.00  0.00    -0.383 OA
BRANCH  17  21
ATOM     18  C   UNL     1      32.763 -13.326 -21.322  0.00  0.00    +0.057 C 
ATOM     19  C   UNL     1      33.399 -14.396 -20.692  0.00  0.00    +0.018 C 
ATOM     20  C   UNL     1      33.026 -13.052 -22.665  0.00  0.00    +0.018 C 
ATOM     21  C   UNL     1      34.548 -14.907 -22.738  0.00  0.00    +0.160 C 
ATOM     22  C   UNL     1      34.297 -15.191 -21.404  0.00  0.00    +0.040 C 
ATOM     23  C   UNL     1      33.924 -13.848 -23.377  0.00  0.00    +0.040 C 
BRANCH  18  24
ATOM     24  N   UNL     1      31.874 -12.537 -20.617  0.00  0.00    -0.246 N 
ATOM     25  N   UNL     1      30.902 -11.512 -18.893  0.00  0.00    -0.224 NA
ATOM     26  C   UNL     1      30.822 -11.827 -21.136  0.00  0.00    +0.092 C 
ATOM     27  C   UNL     1      31.877 -12.312 -19.264  0.00  0.00    +0.172 C 
ATOM     28  C   UNL     1      30.240 -11.206 -20.056  0.00  0.00    +0.117 C 
ENDBRANCH  18  24
ENDBRANCH  17  21
ENDBRANCH   4  17
TORSDOF 5
ENDMDL
MODEL 3
REMARK VINA RESULT:     -10.9      2.710      5.431
REMARK  Name = 9969613
REMARK  5 active torsions:
REMARK  status: ('A' for Active; 'I' for Inactive)
REMARK    1  A    between atoms: C_3  and  O_7
REMARK    2  A    between atoms: C_4  and  O_17
REMARK    3  A    between atoms: O_7  and  C_13
REMARK    4  A    between atoms: O_17  and  C_21
REMARK    5  A    between atoms: C_18  and  N_24
REMARK                            x       y       z     vdW  Elec       q    Type
REMARK                         _______ _______ _______ _____ _____    ______ ____
ROOT
ATOM      1  N   UNL     1      33.450 -23.740 -16.198  0.00  0.00    -0.283 NA
ATOM      2  N   UNL     1      35.654 -22.872 -16.641  0.00  0.00    -0.151 NA
ATOM      3  C   UNL     1      33.712 -23.597 -14.889  0.00  0.00    +0.296 C 
ATOM      4  C   UNL     1      34.456 -23.362 -17.011  0.00  0.00    +0.260 C 
ATOM      5  C   UNL     1      34.888 -23.112 -14.372  0.00  0.00    +0.094 C 
ATOM      6  C   UNL     1      35.838 -22.759 -15.308  0.00  0.00    +0.119 C 
ENDROOT
BRANCH   3   7
ATOM      7  O   UNL     1      32.708 -23.974 -14.013  0.00  0.00    -0.427 OA
BRANCH   7  13
ATOM      8  O   UNL     1      28.965 -22.389 -16.608  0.00  0.00    -0.435 OA
ATOM      9  O   UNL     1      27.661 -24.346 -16.081  0.00  0.00    -0.435 OA
ATOM     10  C   UNL     1      29.639 -23.259 -15.807  0.00  0.00    +0.179 C 
ATOM     11  C   UNL     1      28.895 -24.377 -15.507  0.00  0.00    +0.177 C 
ATOM     12  C   UNL     1      30.920 -23.089 -15.325  0.00  0.00    +0.078 C 
ATOM     13  C   UNL     1      31.447 -24.097 -14.513  0.00  0.00    +0.151 C 
ATOM     14  C   UNL     1      29.390 -25.386 -14.707  0.00  0.00    +0.043 C 
ATOM     15  C   UNL     1      27.713 -23.084 -16.778  0.00  0.00    +0.429 C 
ATOM     16  C   UNL     1      30.686 -25.238 -14.205  0.00  0.00    +0.041 C 
ENDBRANCH   7  13
ENDBRANCH   3   7
BRANCH   4  17
ATOM     17  O   UNL     1      34.234 -23.489 -18.362  0.00  0.00    -0.383 OA
BRANCH  17  21
ATOM     18  C   UNL     1      34.745 -20.092 -20.693  0.00  0.00    +0.057 C 
ATOM     19  C   UNL     1      35.850 -20.863 -20.332  0.00  0.00    +0.018 C 
ATOM     20  C   UNL     1      33.468 -20.463 -20.271  0.00  0.00    +0.018 C 
ATOM     21  C   UNL     1      34.403 -22.361 -19.136  0.00  0.00    +0.160 C 
ATOM     22  C   UNL     1      35.678 -22.005 -19.548  0.00  0.00    +0.040 C 
ATOM     23  C   UNL     1      33.296 -21.605 -19.488  0.00  0.00    +0.040 C 
BRANCH  18  24
ATOM     24  N   UNL     1      34.915 -18.961 -21.469  0.00  0.00    -0.246 N 
ATOM     25  N   UNL     1      35.110 -16.807 -22.010  0.00  0.00    -0.224 NA
ATOM     26  C   UNL     1      35.109 -18.922 -22.826  0.00  0.00    +0.092 C 
ATOM     27  C   UNL     1      34.925 -17.662 -21.028  0.00  0.00    +0.172 C 
ATOM     28  C   UNL     1      35.226 -17.587 -23.134  0.00  0.00    +0.117 C 
ENDBRANCH  18  24
ENDBRANCH  17  21
ENDBRANCH   4  17
TORSDOF 5
ENDMDL
MODEL 4
REMARK VINA RESULT:     -10.5      3.818      7.441
REMARK  Name = 9969613
REMARK  5 active torsions:
REMARK  status: ('A' for Active; 'I' for Inactive)
REMARK    1  A    between atoms: C_3  and  O_7
REMARK    2  A    between atoms: C_4  and  O_17
REMARK    3  A    between atoms: O_7  and  C_13
REMARK    4  A    between atoms: O_17  and  C_21
REMARK    5  A    between atoms: C_18  and  N_24
REMARK                            x       y       z     vdW  Elec       q    Type
REMARK                         _______ _______ _______ _____ _____    ______ ____
ROOT
ATOM      1  N   UNL     1      34.391 -24.627 -14.176  0.00  0.00    -0.283 NA
ATOM      2  N   UNL     1      34.663 -24.260 -11.810  0.00  0.00    -0.151 NA
ATOM      3  C   UNL     1      35.592 -24.053 -14.352  0.00  0.00    +0.296 C 
ATOM      4  C   UNL     1      33.991 -24.697 -12.892  0.00  0.00    +0.260 C 
ATOM      5  C   UNL     1      36.384 -23.564 -13.342  0.00  0.00    +0.094 C 
ATOM      6  C   UNL     1      35.862 -23.696 -12.073  0.00  0.00    +0.119 C 
ENDROOT
BRANCH   3   7
ATOM      7  O   UNL     1      36.046 -23.958 -15.657  0.00  0.00    -0.427 OA
BRANCH   7  13
ATOM      8  O   UNL     1      35.159 -21.142 -19.470  0.00  0.00    -0.435 OA
ATOM      9  O   UNL     1      32.806 -21.656 -19.410  0.00  0.00    -0.435 OA
ATOM     10  C   UNL     1      34.843 -21.997 -18.460  0.00  0.00    +0.179 C 
ATOM     11  C   UNL     1      33.498 -22.292 -18.426  0.00  0.00    +0.177 C 
ATOM     12  C   UNL     1      35.727 -22.536 -17.548  0.00  0.00    +0.078 C 
ATOM     13  C   UNL     1      35.212 -23.401 -16.578  0.00  0.00    +0.151 C 
ATOM     14  C   UNL     1      32.965 -23.141 -17.478  0.00  0.00    +0.043 C 
ATOM     15  C   UNL     1      33.865 -20.930 -20.068  0.00  0.00    +0.429 C 
ATOM     16  C   UNL     1      33.839 -23.700 -16.542  0.00  0.00    +0.041 C 
ENDBRANCH   7  13
ENDBRANCH   3   7
BRANCH   4  17
ATOM     17  O   UNL     1      32.766 -25.279 -12.661  0.00  0.00    -0.383 OA
BRANCH  17  21
ATOM     18  C   UNL     1      29.573 -23.937 -14.949  0.00  0.00    +0.057 C 
ATOM     19  C   UNL     1      30.484 -23.024 -14.420  0.00  0.00    +0.018 C 
ATOM     20  C   UNL     1      29.735 -25.303 -14.710  0.00  0.00    +0.018 C 
ATOM     21  C   UNL     1      31.706 -24.833 -13.421  0.00  0.00    +0.160 C 
ATOM     22  C   UNL     1      31.557 -23.475 -13.651  0.00  0.00    +0.040 C 
ATOM     23  C   UNL     1      30.809 -25.753 -13.942  0.00  0.00    +0.040 C 
BRANCH  18  24
ATOM     24  N   UNL     1      28.509 -23.491 -15.712  0.00  0.00    -0.246 N 
ATOM     25  N   UNL     1      27.120 -23.284 -17.443  0.00  0.00    -0.224 NA
ATOM     26  C   UNL     1      27.566 -22.569 -15.338  0.00  0.00    +0.092 C 
ATOM     27  C   UNL     1      28.194 -23.890 -16.986  0.00  0.00    +0.172 C 
ATOM     28  C   UNL     1      26.724 -22.459 -16.420  0.00  0.00    +0.117 C 
ENDBRANCH  18  24
ENDBRANCH  17  21
ENDBRANCH   4  17
TORSDOF 5
ENDMDL
MODEL 5
REMARK VINA RESULT:     -10.4      4.257     10.384
REMARK  Name = 9969613
REMARK  5 active torsions:
REMARK  status: ('A' for Active; 'I' for Inactive)
REMARK    1  A    between atoms: C_3  and  O_7
REMARK    2  A    between atoms: C_4  and  O_17
REMARK    3  A    between atoms: O_7  and  C_13
REMARK    4  A    between atoms: O_17  and  C_21
REMARK    5  A    between atoms: C_18  and  N_24
REMARK                            x       y       z     vdW  Elec       q    Type
REMARK                         _______ _______ _______ _____ _____    ______ ____
ROOT
ATOM      1  N   UNL     1      35.863 -17.758 -22.261  0.00  0.00    -0.283 NA
ATOM      2  N   UNL     1      35.034 -19.740 -23.356  0.00  0.00    -0.151 NA
ATOM      3  C   UNL     1      35.211 -17.036 -23.187  0.00  0.00    +0.296 C 
ATOM      4  C   UNL     1      35.733 -19.091 -22.404  0.00  0.00    +0.260 C 
ATOM      5  C   UNL     1      34.463 -17.563 -24.211  0.00  0.00    +0.094 C 
ATOM      6  C   UNL     1      34.409 -18.941 -24.247  0.00  0.00    +0.119 C 
ENDROOT
BRANCH   3   7
ATOM      7  O   UNL     1      35.316 -15.659 -23.082  0.00  0.00    -0.427 OA
BRANCH   7  13
ATOM      8  O   UNL     1      32.275 -12.012 -22.243  0.00  0.00    -0.435 OA
ATOM      9  O   UNL     1      31.589 -12.956 -20.135  0.00  0.00    -0.435 OA
ATOM     10  C   UNL     1      32.909 -13.184 -21.971  0.00  0.00    +0.179 C 
ATOM     11  C   UNL     1      32.517 -13.725 -20.767  0.00  0.00    +0.177 C 
ATOM     12  C   UNL     1      33.845 -13.804 -22.773  0.00  0.00    +0.078 C 
ATOM     13  C   UNL     1      34.389 -15.010 -22.324  0.00  0.00    +0.151 C 
ATOM     14  C   UNL     1      33.039 -14.914 -20.300  0.00  0.00    +0.043 C 
ATOM     15  C   UNL     1      31.440 -11.873 -21.076  0.00  0.00    +0.429 C 
ATOM     16  C   UNL     1      33.989 -15.561 -21.094  0.00  0.00    +0.041 C 
ENDBRANCH   7  13
ENDBRANCH   3   7
BRANCH   4  17
ATOM     17  O   UNL     1      36.383 -19.874 -21.478  0.00  0.00    -0.383 OA
BRANCH  17  21
ATOM     18  C   UNL     1      34.026 -21.931 -18.749  0.00  0.00    +0.057 C 
ATOM     19  C   UNL     1      35.410 -22.105 -18.746  0.00  0.00    +0.018 C 
ATOM     20  C   UNL     1      33.434 -21.066 -19.669  0.00  0.00    +0.018 C 
ATOM     21  C   UNL     1      35.600 -20.557 -20.572  0.00  0.00    +0.160 C 
ATOM     22  C   UNL     1      36.202 -21.414 -19.663  0.00  0.00    +0.040 C 
ATOM     23  C   UNL     1      34.226 -20.374 -20.586  0.00  0.00    +0.040 C 
BRANCH  18  24
ATOM     24  N   UNL     1      33.241 -22.616 -17.840  0.00  0.00    -0.246 N 
ATOM     25  N   UNL     1      31.436 -23.243 -16.693  0.00  0.00    -0.224 NA
ATOM     26  C   UNL     1      33.654 -23.607 -16.986  0.00  0.00    +0.092 C 
ATOM     27  C   UNL     1      31.898 -22.437 -17.623  0.00  0.00    +0.172 C 
ATOM     28  C   UNL     1      32.525 -23.974 -16.291  0.00  0.00    +0.117 C 
ENDBRANCH  18  24
ENDBRANCH  17  21
ENDBRANCH   4  17
TORSDOF 5
ENDMDL
MODEL 6
REMARK VINA RESULT:     -10.4      2.650      5.053
REMARK  Name = 9969613
REMARK  5 active torsions:
REMARK  status: ('A' for Active; 'I' for Inactive)
REMARK    1  A    between atoms: C_3  and  O_7
REMARK    2  A    between atoms: C_4  and  O_17
REMARK    3  A    between atoms: O_7  and  C_13
REMARK    4  A    between atoms: O_17  and  C_21
REMARK    5  A    between atoms: C_18  and  N_24
REMARK                            x       y       z     vdW  Elec       q    Type
REMARK                         _______ _______ _______ _____ _____    ______ ____
ROOT
ATOM      1  N   UNL     1      35.223 -23.150 -17.709  0.00  0.00    -0.283 NA
ATOM      2  N   UNL     1      36.875 -21.396 -17.784  0.00  0.00    -0.151 NA
ATOM      3  C   UNL     1      35.421 -23.210 -16.382  0.00  0.00    +0.296 C 
ATOM      4  C   UNL     1      35.975 -22.229 -18.342  0.00  0.00    +0.260 C 
ATOM      5  C   UNL     1      36.303 -22.424 -15.684  0.00  0.00    +0.094 C 
ATOM      6  C   UNL     1      37.014 -21.521 -16.447  0.00  0.00    +0.119 C 
ENDROOT
BRANCH   3   7
ATOM      7  O   UNL     1      34.669 -24.143 -15.687  0.00  0.00    -0.427 OA
BRANCH   7  13
ATOM      8  O   UNL     1      30.154 -22.934 -16.873  0.00  0.00    -0.435 OA
ATOM      9  O   UNL     1      29.489 -22.810 -14.560  0.00  0.00    -0.435 OA
ATOM     10  C   UNL     1      31.178 -23.221 -16.024  0.00  0.00    +0.179 C 
ATOM     11  C   UNL     1      30.799 -23.151 -14.703  0.00  0.00    +0.177 C 
ATOM     12  C   UNL     1      32.467 -23.550 -16.392  0.00  0.00    +0.078 C 
ATOM     13  C   UNL     1      33.386 -23.813 -15.373  0.00  0.00    +0.151 C 
ATOM     14  C   UNL     1      31.686 -23.406 -13.678  0.00  0.00    +0.043 C 
ATOM     15  C   UNL     1      29.087 -22.675 -15.939  0.00  0.00    +0.429 C 
ATOM     16  C   UNL     1      32.998 -23.741 -14.024  0.00  0.00    +0.041 C 
ENDBRANCH   7  13
ENDBRANCH   3   7
BRANCH   4  17
ATOM     17  O   UNL     1      35.807 -22.129 -19.703  0.00  0.00    -0.383 OA
BRANCH  17  21
ATOM     18  C   UNL     1      35.192 -18.331 -21.261  0.00  0.00    +0.057 C 
ATOM     19  C   UNL     1      36.489 -18.784 -21.019  0.00  0.00    +0.018 C 
ATOM     20  C   UNL     1      34.101 -19.154 -20.980  0.00  0.00    +0.018 C 
ATOM     21  C   UNL     1      35.602 -20.868 -20.221  0.00  0.00    +0.160 C 
ATOM     22  C   UNL     1      36.695 -20.061 -20.495  0.00  0.00    +0.040 C 
ATOM     23  C   UNL     1      34.308 -20.431 -20.456  0.00  0.00    +0.040 C 
BRANCH  18  24
ATOM     24  N   UNL     1      34.987 -17.066 -21.780  0.00  0.00    -0.246 N 
ATOM     25  N   UNL     1      34.920 -15.399 -23.258  0.00  0.00    -0.224 NA
ATOM     26  C   UNL     1      34.513 -15.971 -21.102  0.00  0.00    +0.092 C 
ATOM     27  C   UNL     1      35.215 -16.666 -23.072  0.00  0.00    +0.172 C 
ATOM     28  C   UNL     1      34.482 -14.959 -22.033  0.00  0.00    +0.117 C 
ENDBRANCH  18  24
ENDBRANCH  17  21
ENDBRANCH   4  17
TORSDOF 5
ENDMDL
MODEL 7
REMARK VINA RESULT:     -10.3      3.483      9.921
REMARK  Name = 9969613
REMARK  5 active torsions:
REMARK  status: ('A' for Active; 'I' for Inactive)
REMARK    1  A    between atoms: C_3  and  O_7
REMARK    2  A    between atoms: C_4  and  O_17
REMARK    3  A    between atoms: O_7  and  C_13
REMARK    4  A    between atoms: O_17  and  C_21
REMARK    5  A    between atoms: C_18  and  N_24
REMARK                            x       y       z     vdW  Elec       q    Type
REMARK                         _______ _______ _______ _____ _____    ______ ____
ROOT
ATOM      1  N   UNL     1      35.839 -20.595 -20.148  0.00  0.00    -0.283 NA
ATOM      2  N   UNL     1      33.664 -21.447 -19.553  0.00  0.00    -0.151 NA
ATOM      3  C   UNL     1      35.221 -19.739 -20.978  0.00  0.00    +0.296 C 
ATOM      4  C   UNL     1      35.008 -21.413 -19.473  0.00  0.00    +0.260 C 
ATOM      5  C   UNL     1      33.862 -19.664 -21.159  0.00  0.00    +0.094 C 
ATOM      6  C   UNL     1      33.122 -20.555 -20.410  0.00  0.00    +0.119 C 
ENDROOT
BRANCH   3   7
ATOM      7  O   UNL     1      36.035 -18.878 -21.694  0.00  0.00    -0.427 OA
BRANCH   7  13
ATOM      8  O   UNL     1      34.286 -16.726 -25.640  0.00  0.00    -0.435 OA
ATOM      9  O   UNL     1      33.658 -14.761 -24.395  0.00  0.00    -0.435 OA
ATOM     10  C   UNL     1      34.596 -16.830 -24.319  0.00  0.00    +0.179 C 
ATOM     11  C   UNL     1      34.237 -15.709 -23.607  0.00  0.00    +0.177 C 
ATOM     12  C   UNL     1      35.201 -17.912 -23.712  0.00  0.00    +0.078 C 
ATOM     13  C   UNL     1      35.441 -17.834 -22.337  0.00  0.00    +0.151 C 
ATOM     14  C   UNL     1      34.463 -15.606 -22.250  0.00  0.00    +0.043 C 
ATOM     15  C   UNL     1      33.691 -15.414 -25.680  0.00  0.00    +0.429 C 
ATOM     16  C   UNL     1      35.075 -16.688 -21.611  0.00  0.00    +0.041 C 
ENDBRANCH   7  13
ENDBRANCH   3   7
BRANCH   4  17
ATOM     17  O   UNL     1      35.595 -22.308 -18.609  0.00  0.00    -0.383 OA
BRANCH  17  21
ATOM     18  C   UNL     1      33.249 -23.762 -15.508  0.00  0.00    +0.057 C 
ATOM     19  C   UNL     1      32.714 -23.642 -16.791  0.00  0.00    +0.018 C 
ATOM     20  C   UNL     1      34.573 -23.393 -15.268  0.00  0.00    +0.018 C 
ATOM     21  C   UNL     1      34.816 -22.791 -17.579  0.00  0.00    +0.160 C 
ATOM     22  C   UNL     1      33.503 -23.154 -17.833  0.00  0.00    +0.040 C 
ATOM     23  C   UNL     1      35.361 -22.904 -16.310  0.00  0.00    +0.040 C 
BRANCH  18  24
ATOM     24  N   UNL     1      32.468 -24.246 -14.475  0.00  0.00    -0.246 N 
ATOM     25  N   UNL     1      31.893 -25.380 -12.644  0.00  0.00    -0.224 NA
ATOM     26  C   UNL     1      31.147 -23.957 -14.243  0.00  0.00    +0.092 C 
ATOM     27  C   UNL     1      32.867 -25.106 -13.484  0.00  0.00    +0.172 C 
ATOM     28  C   UNL     1      30.818 -24.667 -13.113  0.00  0.00    +0.117 C 
ENDBRANCH  18  24
ENDBRANCH  17  21
ENDBRANCH   4  17
TORSDOF 5
ENDMDL
MODEL 8
REMARK VINA RESULT:     -10.3      3.052      5.224
REMARK  Name = 9969613
REMARK  5 active torsions:
REMARK  status: ('A' for Active; 'I' for Inactive)
REMARK    1  A    between atoms: C_3  and  O_7
REMARK    2  A    between atoms: C_4  and  O_17
REMARK    3  A    between atoms: O_7  and  C_13
REMARK    4  A    between atoms: O_17  and  C_21
REMARK    5  A    between atoms: C_18  and  N_24
REMARK                            x       y       z     vdW  Elec       q    Type
REMARK                         _______ _______ _______ _____ _____    ______ ____
ROOT
ATOM      1  N   UNL     1      35.481 -21.203 -19.564  0.00  0.00    -0.283 NA
ATOM      2  N   UNL     1      33.751 -19.963 -20.696  0.00  0.00    -0.151 NA
ATOM      3  C   UNL     1      34.521 -22.018 -19.098  0.00  0.00    +0.296 C 
ATOM      4  C   UNL     1      35.030 -20.206 -20.350  0.00  0.00    +0.260 C 
ATOM      5  C   UNL     1      33.181 -21.888 -19.368  0.00  0.00    +0.094 C 
ATOM      6  C   UNL     1      32.849 -20.828 -20.185  0.00  0.00    +0.119 C 
ENDROOT
BRANCH   3   7
ATOM      7  O   UNL     1      34.936 -23.059 -18.284  0.00  0.00    -0.427 OA
BRANCH   7  13
ATOM      8  O   UNL     1      30.983 -23.773 -15.616  0.00  0.00    -0.435 OA
ATOM      9  O   UNL     1      32.253 -23.734 -13.569  0.00  0.00    -0.435 OA
ATOM     10  C   UNL     1      32.311 -23.577 -15.836  0.00  0.00    +0.179 C 
ATOM     11  C   UNL     1      33.038 -23.556 -14.667  0.00  0.00    +0.177 C 
ATOM     12  C   UNL     1      32.914 -23.414 -17.067  0.00  0.00    +0.078 C 
ATOM     13  C   UNL     1      34.298 -23.224 -17.092  0.00  0.00    +0.151 C 
ATOM     14  C   UNL     1      34.405 -23.369 -14.664  0.00  0.00    +0.043 C 
ATOM     15  C   UNL     1      30.953 -23.871 -14.179  0.00  0.00    +0.429 C 
ATOM     16  C   UNL     1      35.039 -23.201 -15.898  0.00  0.00    +0.041 C 
ENDBRANCH   7  13
ENDBRANCH   3   7
BRANCH   4  17
ATOM     17  O   UNL     1      35.977 -19.345 -20.853  0.00  0.00    -0.383 OA
BRANCH  17  21
ATOM     18  C   UNL     1      34.610 -16.127 -23.091  0.00  0.00    +0.057 C 
ATOM     19  C   UNL     1      34.636 -16.047 -21.699  0.00  0.00    +0.018 C 
ATOM     20  C   UNL     1      35.044 -17.288 -23.732  0.00  0.00    +0.018 C 
ATOM     21  C   UNL     1      35.523 -18.276 -21.597  0.00  0.00    +0.160 C 
ATOM     22  C   UNL     1      35.096 -17.129 -20.948  0.00  0.00    +0.040 C 
ATOM     23  C   UNL     1      35.504 -18.369 -22.980  0.00  0.00    +0.040 C 
BRANCH  18  24
ATOM     24  N   UNL     1      34.155 -15.055 -23.837  0.00  0.00    -0.246 N 
ATOM     25  N   UNL     1      33.694 -12.950 -24.405  0.00  0.00    -0.224 NA
ATOM     26  C   UNL     1      33.571 -15.111 -25.077  0.00  0.00    +0.092 C 
ATOM     27  C   UNL     1      34.206 -13.732 -23.480  0.00  0.00    +0.172 C 
ATOM     28  C   UNL     1      33.296 -13.804 -25.403  0.00  0.00    +0.117 C 
ENDBRANCH  18  24
ENDBRANCH  17  21
ENDBRANCH   4  17
TORSDOF 5
ENDMDL
MODEL 9
REMARK VINA RESULT:     -10.2      5.886     11.557
REMARK  Name = 9969613
REMARK  5 active torsions:
REMARK  status: ('A' for Active; 'I' for Inactive)
REMARK    1  A    between atoms: C_3  and  O_7
REMARK    2  A    between atoms: C_4  and  O_17
REMARK    3  A    between atoms: O_7  and  C_13
REMARK    4  A    between atoms: O_17  and  C_21
REMARK    5  A    between atoms: C_18  and  N_24
REMARK                            x       y       z     vdW  Elec       q    Type
REMARK                         _______ _______ _______ _____ _____    ______ ____
ROOT
ATOM      1  N   UNL     1      34.598 -14.656 -23.834  0.00  0.00    -0.283 NA
ATOM      2  N   UNL     1      34.093 -16.423 -25.393  0.00  0.00    -0.151 NA
ATOM      3  C   UNL     1      33.617 -13.939 -24.408  0.00  0.00    +0.296 C 
ATOM      4  C   UNL     1      34.780 -15.877 -24.371  0.00  0.00    +0.260 C 
ATOM      5  C   UNL     1      32.839 -14.369 -25.453  0.00  0.00    +0.094 C 
ATOM      6  C   UNL     1      33.125 -15.638 -25.913  0.00  0.00    +0.119 C 
ENDROOT
BRANCH   3   7
ATOM      7  O   UNL     1      33.392 -12.675 -23.889  0.00  0.00    -0.427 OA
BRANCH   7  13
ATOM      8  O   UNL     1      31.428 -10.215 -20.236  0.00  0.00    -0.435 OA
ATOM      9  O   UNL     1      31.270 -12.196 -18.874  0.00  0.00    -0.435 OA
ATOM     10  C   UNL     1      31.904 -11.319 -20.873  0.00  0.00    +0.179 C 
ATOM     11  C   UNL     1      31.813 -12.451 -20.096  0.00  0.00    +0.177 C 
ATOM     12  C   UNL     1      32.428 -11.355 -22.149  0.00  0.00    +0.078 C 
ATOM     13  C   UNL     1      32.868 -12.589 -22.635  0.00  0.00    +0.151 C 
ATOM     14  C   UNL     1      32.242 -13.681 -20.551  0.00  0.00    +0.043 C 
ATOM     15  C   UNL     1      31.028 -10.777 -18.971  0.00  0.00    +0.429 C 
ATOM     16  C   UNL     1      32.777 -13.745 -21.840  0.00  0.00    +0.041 C 
ENDBRANCH   7  13
ENDBRANCH   3   7
BRANCH   4  17
ATOM     17  O   UNL     1      35.774 -16.650 -23.817  0.00  0.00    -0.383 OA
BRANCH  17  21
ATOM     18  C   UNL     1      34.603 -19.636 -21.182  0.00  0.00    +0.057 C 
ATOM     19  C   UNL     1      34.737 -18.323 -20.732  0.00  0.00    +0.018 C 
ATOM     20  C   UNL     1      34.862 -19.946 -22.517  0.00  0.00    +0.018 C 
ATOM     21  C   UNL     1      35.385 -17.642 -22.942  0.00  0.00    +0.160 C 
ATOM     22  C   UNL     1      35.130 -17.319 -21.618  0.00  0.00    +0.040 C 
ATOM     23  C   UNL     1      35.255 -18.943 -23.402  0.00  0.00    +0.040 C 
BRANCH  18  24
ATOM     24  N   UNL     1      34.213 -20.631 -20.304  0.00  0.00    -0.246 N 
ATOM     25  N   UNL     1      32.881 -21.952 -19.101  0.00  0.00    -0.224 NA
ATOM     26  C   UNL     1      35.038 -21.484 -19.617  0.00  0.00    +0.092 C 
ATOM     27  C   UNL     1      32.926 -20.956 -19.958  0.00  0.00    +0.172 C 
ATOM     28  C   UNL     1      34.194 -22.286 -18.884  0.00  0.00    +0.117 C 
ENDBRANCH  18  24
ENDBRANCH  17  21
ENDBRANCH   4  17
TORSDOF 5
ENDMDL
