MODEL 1
REMARK VINA RESULT:     -11.2      0.000      0.000
REMARK  Name = 447994
REMARK  10 active torsions:
REMARK  status: ('A' for Active; 'I' for Inactive)
REMARK    1  A    between atoms: C_2  and  C_10
REMARK    2  A    between atoms: C_3  and  C_17
REMARK    3  A    between atoms: C_12  and  C_14
REMARK    4  A    between atoms: C_14  and  O_15
REMARK    5  A    between atoms: C_18  and  C_19
REMARK    6  A    between atoms: C_19  and  O_20
REMARK    7  A    between atoms: O_20  and  C_21
REMARK    8  A    between atoms: C_22  and  C_30
REMARK    9  A    between atoms: C_23  and  O_27
REMARK   10  A    between atoms: C_30  and  O_31
REMARK                            x       y       z     vdW  Elec       q    Type
REMARK                         _______ _______ _______ _____ _____    ______ ____
ROOT
ATOM      1  F   UNL     1      28.965 -25.636 -13.851  0.00  0.00    -0.204 F 
ATOM      2  C   UNL     1      30.273 -24.109 -15.120  0.00  0.00    +0.065 C 
ATOM      3  C   UNL     1      32.636 -23.920 -14.651  0.00  0.00    +0.000 C 
ATOM      4  C   UNL     1      31.515 -23.533 -15.385  0.00  0.00    +0.005 C 
ATOM      5  C   UNL     1      30.151 -25.073 -14.118  0.00  0.00    +0.143 C 
ATOM      6  C   UNL     1      32.514 -24.884 -13.649  0.00  0.00    +0.002 C 
ATOM      7  C   UNL     1      31.271 -25.460 -13.383  0.00  0.00    +0.030 C 
ENDROOT
BRANCH   2  10
ATOM      8  O   UNL     1      28.575 -24.668 -16.665  0.00  0.00    -0.353 OA
ATOM      9  N   UNL     1      27.478 -24.140 -17.335  0.00  0.00    -0.070 NA
ATOM     10  C   UNL     1      29.117 -23.706 -15.882  0.00  0.00    +0.179 C 
ATOM     11  C   UNL     1      28.412 -22.545 -16.006  0.00  0.00    +0.069 C 
ATOM     12  C   UNL     1      27.400 -22.871 -16.925  0.00  0.00    +0.198 C 
BRANCH  12  14
ATOM     13  O   UNL     1      26.147 -21.783 -18.625  0.00  0.00    -0.243 OA
ATOM     14  C   UNL     1      26.361 -22.020 -17.426  0.00  0.00    +0.359 C 
BRANCH  14  15
ATOM     15  O   UNL     1      25.569 -21.443 -16.464  0.00  0.00    -0.476 OA
ATOM     16  H   UNL     1      25.451 -21.867 -15.637  0.00  0.00    +0.295 HD
ENDBRANCH  14  15
ENDBRANCH  12  14
ENDBRANCH   2  10
BRANCH   3  17
ATOM     17  C   UNL     1      33.931 -23.319 -14.927  0.00  0.00    -0.001 C 
ATOM     18  C   UNL     1      34.984 -23.938 -15.509  0.00  0.00    +0.021 C 
BRANCH  18  19
ATOM     19  C   UNL     1      36.294 -23.274 -15.786  0.00  0.00    +0.232 C 
BRANCH  19  20
ATOM     20  O   UNL     1      37.331 -24.048 -15.202  0.00  0.00    -0.470 OA
BRANCH  20  21
ATOM     21  C   UNL     1      37.240 -24.290 -13.855  0.00  0.00    +0.148 C 
ATOM     22  C   UNL     1      37.224 -25.591 -13.367  0.00  0.00    +0.143 C 
ATOM     23  C   UNL     1      37.131 -25.814 -11.994  0.00  0.00    +0.143 C 
ATOM     24  C   UNL     1      37.165 -23.207 -12.985  0.00  0.00    +0.037 C 
ATOM     25  C   UNL     1      37.056 -24.734 -11.115  0.00  0.00    +0.037 C 
ATOM     26  C   UNL     1      37.073 -23.430 -11.612  0.00  0.00    +0.006 C 
BRANCH  23  27
ATOM     27  O   UNL     1      37.115 -27.080 -11.488  0.00  0.00    -0.505 OA
ATOM     28  H   UNL     1      37.715 -27.321 -10.810  0.00  0.00    +0.292 HD
ENDBRANCH  23  27
BRANCH  22  30
ATOM     29  O   UNL     1      36.360 -27.128 -14.975  0.00  0.00    -0.245 OA
ATOM     30  C   UNL     1      37.303 -26.723 -14.286  0.00  0.00    +0.347 C 
BRANCH  30  31
ATOM     31  O   UNL     1      38.552 -27.276 -14.288  0.00  0.00    -0.441 OA
ATOM     32  C   UNL     1      39.654 -26.376 -14.124  0.00  0.00    +0.256 C 
ENDBRANCH  30  31
ENDBRANCH  22  30
ENDBRANCH  20  21
ENDBRANCH  19  20
ENDBRANCH  18  19
ENDBRANCH   3  17
TORSDOF 10
ENDMDL
MODEL 2
REMARK VINA RESULT:     -11.1      5.713      6.719
REMARK  Name = 447994
REMARK  10 active torsions:
REMARK  status: ('A' for Active; 'I' for Inactive)
REMARK    1  A    between atoms: C_2  and  C_10
REMARK    2  A    between atoms: C_3  and  C_17
REMARK    3  A    between atoms: C_12  and  C_14
REMARK    4  A    between atoms: C_14  and  O_15
REMARK    5  A    between atoms: C_18  and  C_19
REMARK    6  A    between atoms: C_19  and  O_20
REMARK    7  A    between atoms: O_20  and  C_21
REMARK    8  A    between atoms: C_22  and  C_30
REMARK    9  A    between atoms: C_23  and  O_27
REMARK   10  A    between atoms: C_30  and  O_31
REMARK                            x       y       z     vdW  Elec       q    Type
REMARK                         _______ _______ _______ _____ _____    ______ ____
ROOT
ATOM      1  F   UNL     1      32.329 -20.751 -20.792  0.00  0.00    -0.204 F 
ATOM      2  C   UNL     1      34.631 -20.539 -20.236  0.00  0.00    +0.065 C 
ATOM      3  C   UNL     1      35.565 -21.989 -18.544  0.00  0.00    +0.000 C 
ATOM      4  C   UNL     1      35.720 -20.962 -19.474  0.00  0.00    +0.005 C 
ATOM      5  C   UNL     1      33.385 -21.145 -20.068  0.00  0.00    +0.143 C 
ATOM      6  C   UNL     1      34.319 -22.594 -18.376  0.00  0.00    +0.002 C 
ATOM      7  C   UNL     1      33.229 -22.172 -19.138  0.00  0.00    +0.030 C 
ENDROOT
BRANCH   2  10
ATOM      8  O   UNL     1      35.221 -18.296 -20.688  0.00  0.00    -0.353 OA
ATOM      9  N   UNL     1      35.334 -17.374 -21.722  0.00  0.00    -0.070 NA
ATOM     10  C   UNL     1      34.796 -19.477 -21.198  0.00  0.00    +0.179 C 
ATOM     11  C   UNL     1      34.622 -19.374 -22.546  0.00  0.00    +0.069 C 
ATOM     12  C   UNL     1      34.971 -18.041 -22.821  0.00  0.00    +0.198 C 
BRANCH  12  14
ATOM     13  O   UNL     1      34.375 -17.774 -25.106  0.00  0.00    -0.243 OA
ATOM     14  C   UNL     1      34.974 -17.379 -24.093  0.00  0.00    +0.359 C 
BRANCH  14  15
ATOM     15  O   UNL     1      35.712 -16.223 -24.145  0.00  0.00    -0.476 OA
ATOM     16  H   UNL     1      36.101 -15.879 -23.365  0.00  0.00    +0.295 HD
ENDBRANCH  14  15
ENDBRANCH  12  14
ENDBRANCH   2  10
BRANCH   3  17
ATOM     17  C   UNL     1      36.700 -22.430 -17.749  0.00  0.00    -0.001 C 
ATOM     18  C   UNL     1      36.721 -22.565 -16.403  0.00  0.00    +0.021 C 
BRANCH  18  19
ATOM     19  C   UNL     1      37.910 -23.037 -15.630  0.00  0.00    +0.232 C 
BRANCH  19  20
ATOM     20  O   UNL     1      37.688 -24.379 -15.225  0.00  0.00    -0.470 OA
BRANCH  20  21
ATOM     21  C   UNL     1      37.153 -24.570 -13.977  0.00  0.00    +0.148 C 
ATOM     22  C   UNL     1      37.425 -25.727 -13.256  0.00  0.00    +0.143 C 
ATOM     23  C   UNL     1      36.870 -25.899 -11.989  0.00  0.00    +0.143 C 
ATOM     24  C   UNL     1      36.331 -23.581 -13.445  0.00  0.00    +0.037 C 
ATOM     25  C   UNL     1      36.046 -24.912 -11.448  0.00  0.00    +0.037 C 
ATOM     26  C   UNL     1      35.777 -23.753 -12.177  0.00  0.00    +0.006 C 
BRANCH  23  27
ATOM     27  O   UNL     1      37.122 -27.023 -11.259  0.00  0.00    -0.505 OA
ATOM     28  H   UNL     1      37.534 -26.954 -10.421  0.00  0.00    +0.292 HD
ENDBRANCH  23  27
BRANCH  22  30
ATOM     29  O   UNL     1      37.900 -27.649 -14.585  0.00  0.00    -0.245 OA
ATOM     30  C   UNL     1      38.288 -26.759 -13.821  0.00  0.00    +0.347 C 
BRANCH  30  31
ATOM     31  O   UNL     1      39.579 -26.615 -13.398  0.00  0.00    -0.441 OA
ATOM     32  C   UNL     1      40.520 -26.130 -14.362  0.00  0.00    +0.256 C 
ENDBRANCH  30  31
ENDBRANCH  22  30
ENDBRANCH  20  21
ENDBRANCH  19  20
ENDBRANCH  18  19
ENDBRANCH   3  17
TORSDOF 10
ENDMDL
MODEL 3
REMARK VINA RESULT:     -10.9      7.040      8.696
REMARK  Name = 447994
REMARK  10 active torsions:
REMARK  status: ('A' for Active; 'I' for Inactive)
REMARK    1  A    between atoms: C_2  and  C_10
REMARK    2  A    between atoms: C_3  and  C_17
REMARK    3  A    between atoms: C_12  and  C_14
REMARK    4  A    between atoms: C_14  and  O_15
REMARK    5  A    between atoms: C_18  and  C_19
REMARK    6  A    between atoms: C_19  and  O_20
REMARK    7  A    between atoms: O_20  and  C_21
REMARK    8  A    between atoms: C_22  and  C_30
REMARK    9  A    between atoms: C_23  and  O_27
REMARK   10  A    between atoms: C_30  and  O_31
REMARK                            x       y       z     vdW  Elec       q    Type
REMARK                         _______ _______ _______ _____ _____    ______ ____
ROOT
ATOM      1  F   UNL     1      37.742 -18.583 -21.916  0.00  0.00    -0.204 F 
ATOM      2  C   UNL     1      35.502 -19.345 -21.681  0.00  0.00    +0.065 C 
ATOM      3  C   UNL     1      34.992 -20.972 -19.970  0.00  0.00    +0.000 C 
ATOM      4  C   UNL     1      34.578 -20.154 -21.020  0.00  0.00    +0.005 C 
ATOM      5  C   UNL     1      36.842 -19.355 -21.291  0.00  0.00    +0.143 C 
ATOM      6  C   UNL     1      36.332 -20.982 -19.580  0.00  0.00    +0.002 C 
ATOM      7  C   UNL     1      37.257 -20.173 -20.241  0.00  0.00    +0.030 C 
ENDROOT
BRANCH   2  10
ATOM      8  O   UNL     1      34.629 -19.152 -23.868  0.00  0.00    -0.353 OA
ATOM      9  N   UNL     1      34.248 -18.217 -24.823  0.00  0.00    -0.070 NA
ATOM     10  C   UNL     1      35.069 -18.500 -22.767  0.00  0.00    +0.179 C 
ATOM     11  C   UNL     1      34.993 -17.151 -22.955  0.00  0.00    +0.069 C 
ATOM     12  C   UNL     1      34.474 -17.030 -24.255  0.00  0.00    +0.198 C 
BRANCH  12  14
ATOM     13  O   UNL     1      33.970 -15.755 -26.196  0.00  0.00    -0.243 OA
ATOM     14  C   UNL     1      34.185 -15.825 -24.976  0.00  0.00    +0.359 C 
BRANCH  14  15
ATOM     15  O   UNL     1      34.156 -14.684 -24.212  0.00  0.00    -0.476 OA
ATOM     16  H   UNL     1      33.815 -13.888 -24.571  0.00  0.00    +0.295 HD
ENDBRANCH  14  15
ENDBRANCH  12  14
ENDBRANCH   2  10
BRANCH   3  17
ATOM     17  C   UNL     1      34.028 -21.816 -19.280  0.00  0.00    -0.001 C 
ATOM     18  C   UNL     1      34.320 -22.767 -18.364  0.00  0.00    +0.021 C 
BRANCH  18  19
ATOM     19  C   UNL     1      33.292 -23.601 -17.670  0.00  0.00    +0.232 C 
BRANCH  19  20
ATOM     20  O   UNL     1      33.186 -23.166 -16.322  0.00  0.00    -0.470 OA
BRANCH  20  21
ATOM     21  C   UNL     1      32.095 -23.601 -15.615  0.00  0.00    +0.148 C 
ATOM     22  C   UNL     1      32.253 -24.333 -14.444  0.00  0.00    +0.143 C 
ATOM     23  C   UNL     1      31.130 -24.764 -13.740  0.00  0.00    +0.143 C 
ATOM     24  C   UNL     1      30.824 -23.294 -16.090  0.00  0.00    +0.037 C 
ATOM     25  C   UNL     1      29.853 -24.460 -14.210  0.00  0.00    +0.037 C 
ATOM     26  C   UNL     1      29.700 -23.725 -15.386  0.00  0.00    +0.006 C 
BRANCH  23  27
ATOM     27  O   UNL     1      31.257 -25.482 -12.588  0.00  0.00    -0.505 OA
ATOM     28  H   UNL     1      32.100 -25.588 -12.192  0.00  0.00    +0.292 HD
ENDBRANCH  23  27
BRANCH  22  30
ATOM     29  O   UNL     1      34.474 -25.185 -14.629  0.00  0.00    -0.245 OA
ATOM     30  C   UNL     1      33.590 -24.650 -13.950  0.00  0.00    +0.347 C 
BRANCH  30  31
ATOM     31  O   UNL     1      33.739 -24.280 -12.644  0.00  0.00    -0.441 OA
ATOM     32  C   UNL     1      34.994 -24.591 -12.027  0.00  0.00    +0.256 C 
ENDBRANCH  30  31
ENDBRANCH  22  30
ENDBRANCH  20  21
ENDBRANCH  19  20
ENDBRANCH  18  19
ENDBRANCH   3  17
TORSDOF 10
ENDMDL
MODEL 4
REMARK VINA RESULT:     -10.6     11.234     14.564
REMARK  Name = 447994
REMARK  10 active torsions:
REMARK  status: ('A' for Active; 'I' for Inactive)
REMARK    1  A    between atoms: C_2  and  C_10
REMARK    2  A    between atoms: C_3  and  C_17
REMARK    3  A    between atoms: C_12  and  C_14
REMARK    4  A    between atoms: C_14  and  O_15
REMARK    5  A    between atoms: C_18  and  C_19
REMARK    6  A    between atoms: C_19  and  O_20
REMARK    7  A    between atoms: O_20  and  C_21
REMARK    8  A    between atoms: C_22  and  C_30
REMARK    9  A    between atoms: C_23  and  O_27
REMARK   10  A    between atoms: C_30  and  O_31
REMARK                            x       y       z     vdW  Elec       q    Type
REMARK                         _______ _______ _______ _____ _____    ______ ____
ROOT
ATOM      1  F   UNL     1      34.939 -20.153 -24.070  0.00  0.00    -0.204 F 
ATOM      2  C   UNL     1      35.064 -18.422 -22.444  0.00  0.00    +0.065 C 
ATOM      3  C   UNL     1      34.675 -16.139 -23.132  0.00  0.00    +0.000 C 
ATOM      4  C   UNL     1      34.974 -17.065 -22.134  0.00  0.00    +0.005 C 
ATOM      5  C   UNL     1      34.856 -18.853 -23.755  0.00  0.00    +0.143 C 
ATOM      6  C   UNL     1      34.467 -16.570 -24.443  0.00  0.00    +0.002 C 
ATOM      7  C   UNL     1      34.558 -17.927 -24.754  0.00  0.00    +0.030 C 
ENDROOT
BRANCH   2  10
ATOM      8  O   UNL     1      36.614 -19.275 -20.878  0.00  0.00    -0.353 OA
ATOM      9  N   UNL     1      36.768 -20.251 -19.900  0.00  0.00    -0.070 NA
ATOM     10  C   UNL     1      35.372 -19.377 -21.408  0.00  0.00    +0.179 C 
ATOM     11  C   UNL     1      34.686 -20.393 -20.811  0.00  0.00    +0.069 C 
ATOM     12  C   UNL     1      35.604 -20.905 -19.878  0.00  0.00    +0.198 C 
BRANCH  12  14
ATOM     13  O   UNL     1      34.491 -22.825 -19.026  0.00  0.00    -0.243 OA
ATOM     14  C   UNL     1      35.412 -21.994 -18.966  0.00  0.00    +0.359 C 
BRANCH  14  15
ATOM     15  O   UNL     1      36.345 -22.083 -17.962  0.00  0.00    -0.476 OA
ATOM     16  H   UNL     1      37.146 -22.547 -18.106  0.00  0.00    +0.295 HD
ENDBRANCH  14  15
ENDBRANCH  12  14
ENDBRANCH   2  10
BRANCH   3  17
ATOM     17  C   UNL     1      34.581 -14.724 -22.809  0.00  0.00    -0.001 C 
ATOM     18  C   UNL     1      33.649 -13.864 -23.279  0.00  0.00    +0.021 C 
BRANCH  18  19
ATOM     19  C   UNL     1      33.584 -12.418 -22.905  0.00  0.00    +0.232 C 
BRANCH  19  20
ATOM     20  O   UNL     1      32.239 -12.089 -22.590  0.00  0.00    -0.470 OA
BRANCH  20  21
ATOM     21  C   UNL     1      32.012 -11.518 -21.364  0.00  0.00    +0.148 C 
ATOM     22  C   UNL     1      32.027 -10.136 -21.210  0.00  0.00    +0.143 C 
ATOM     23  C   UNL     1      31.793  -9.577 -19.955  0.00  0.00    +0.143 C 
ATOM     24  C   UNL     1      31.764 -12.348 -20.275  0.00  0.00    +0.037 C 
ATOM     25  C   UNL     1      31.543 -10.403 -18.859  0.00  0.00    +0.037 C 
ATOM     26  C   UNL     1      31.529 -11.788 -19.020  0.00  0.00    +0.006 C 
BRANCH  23  27
ATOM     27  O   UNL     1      31.800  -8.226 -19.776  0.00  0.00    -0.505 OA
ATOM     28  H   UNL     1      31.184  -7.689 -20.234  0.00  0.00    +0.292 HD
ENDBRANCH  23  27
BRANCH  22  30
ATOM     29  O   UNL     1      33.412  -9.030 -22.806  0.00  0.00    -0.245 OA
ATOM     30  C   UNL     1      32.286  -9.271 -22.357  0.00  0.00    +0.347 C 
BRANCH  30  31
ATOM     31  O   UNL     1      31.127  -8.763 -22.870  0.00  0.00    -0.441 OA
ATOM     32  C   UNL     1      31.199  -7.455 -23.448  0.00  0.00    +0.256 C 
ENDBRANCH  30  31
ENDBRANCH  22  30
ENDBRANCH  20  21
ENDBRANCH  19  20
ENDBRANCH  18  19
ENDBRANCH   3  17
TORSDOF 10
ENDMDL
MODEL 5
REMARK VINA RESULT:     -10.4      7.826     10.607
REMARK  Name = 447994
REMARK  10 active torsions:
REMARK  status: ('A' for Active; 'I' for Inactive)
REMARK    1  A    between atoms: C_2  and  C_10
REMARK    2  A    between atoms: C_3  and  C_17
REMARK    3  A    between atoms: C_12  and  C_14
REMARK    4  A    between atoms: C_14  and  O_15
REMARK    5  A    between atoms: C_18  and  C_19
REMARK    6  A    between atoms: C_19  and  O_20
REMARK    7  A    between atoms: O_20  and  C_21
REMARK    8  A    between atoms: C_22  and  C_30
REMARK    9  A    between atoms: C_23  and  O_27
REMARK   10  A    between atoms: C_30  and  O_31
REMARK                            x       y       z     vdW  Elec       q    Type
REMARK                         _______ _______ _______ _____ _____    ______ ____
ROOT
ATOM      1  F   UNL     1      35.699 -23.328 -16.541  0.00  0.00    -0.204 F 
ATOM      2  C   UNL     1      34.114 -22.369 -18.031  0.00  0.00    +0.065 C 
ATOM      3  C   UNL     1      34.908 -21.097 -19.925  0.00  0.00    +0.000 C 
ATOM      4  C   UNL     1      33.853 -21.614 -19.175  0.00  0.00    +0.005 C 
ATOM      5  C   UNL     1      35.431 -22.606 -17.637  0.00  0.00    +0.143 C 
ATOM      6  C   UNL     1      36.226 -21.333 -19.532  0.00  0.00    +0.002 C 
ATOM      7  C   UNL     1      36.487 -22.088 -18.388  0.00  0.00    +0.030 C 
ENDROOT
BRANCH   2  10
ATOM      8  O   UNL     1      31.789 -22.467 -17.618  0.00  0.00    -0.353 OA
ATOM      9  N   UNL     1      30.841 -23.061 -16.793  0.00  0.00    -0.070 NA
ATOM     10  C   UNL     1      33.020 -22.903 -17.258  0.00  0.00    +0.179 C 
ATOM     11  C   UNL     1      32.925 -23.775 -16.214  0.00  0.00    +0.069 C 
ATOM     12  C   UNL     1      31.543 -23.837 -15.963  0.00  0.00    +0.198 C 
BRANCH  12  14
ATOM     13  O   UNL     1      31.278 -24.802 -13.807  0.00  0.00    -0.243 OA
ATOM     14  C   UNL     1      30.867 -24.611 -14.963  0.00  0.00    +0.359 C 
BRANCH  14  15
ATOM     15  O   UNL     1      29.676 -25.164 -15.363  0.00  0.00    -0.476 OA
ATOM     16  H   UNL     1      28.976 -24.612 -15.653  0.00  0.00    +0.295 HD
ENDBRANCH  14  15
ENDBRANCH  12  14
ENDBRANCH   2  10
BRANCH   3  17
ATOM     17  C   UNL     1      34.636 -20.310 -21.118  0.00  0.00    -0.001 C 
ATOM     18  C   UNL     1      35.486 -19.434 -21.700  0.00  0.00    +0.021 C 
BRANCH  18  19
ATOM     19  C   UNL     1      35.166 -18.657 -22.937  0.00  0.00    +0.232 C 
BRANCH  19  20
ATOM     20  O   UNL     1      35.393 -17.279 -22.681  0.00  0.00    -0.470 OA
BRANCH  20  21
ATOM     21  C   UNL     1      34.665 -16.383 -23.421  0.00  0.00    +0.148 C 
ATOM     22  C   UNL     1      34.084 -15.272 -22.821  0.00  0.00    +0.143 C 
ATOM     23  C   UNL     1      33.349 -14.374 -23.593  0.00  0.00    +0.143 C 
ATOM     24  C   UNL     1      34.520 -16.606 -24.787  0.00  0.00    +0.037 C 
ATOM     25  C   UNL     1      33.199 -14.590 -24.962  0.00  0.00    +0.037 C 
ATOM     26  C   UNL     1      33.785 -15.707 -25.559  0.00  0.00    +0.006 C 
BRANCH  23  27
ATOM     27  O   UNL     1      32.770 -13.275 -23.030  0.00  0.00    -0.505 OA
ATOM     28  H   UNL     1      31.927 -12.988 -23.323  0.00  0.00    +0.292 HD
ENDBRANCH  23  27
BRANCH  22  30
ATOM     29  O   UNL     1      34.989 -14.190 -20.897  0.00  0.00    -0.245 OA
ATOM     30  C   UNL     1      34.242 -15.044 -21.388  0.00  0.00    +0.347 C 
BRANCH  30  31
ATOM     31  O   UNL     1      33.458 -15.892 -20.659  0.00  0.00    -0.441 OA
ATOM     32  C   UNL     1      32.393 -15.298 -19.908  0.00  0.00    +0.256 C 
ENDBRANCH  30  31
ENDBRANCH  22  30
ENDBRANCH  20  21
ENDBRANCH  19  20
ENDBRANCH  18  19
ENDBRANCH   3  17
TORSDOF 10
ENDMDL
MODEL 6
REMARK VINA RESULT:     -10.3      8.961     10.289
REMARK  Name = 447994
REMARK  10 active torsions:
REMARK  status: ('A' for Active; 'I' for Inactive)
REMARK    1  A    between atoms: C_2  and  C_10
REMARK    2  A    between atoms: C_3  and  C_17
REMARK    3  A    between atoms: C_12  and  C_14
REMARK    4  A    between atoms: C_14  and  O_15
REMARK    5  A    between atoms: C_18  and  C_19
REMARK    6  A    between atoms: C_19  and  O_20
REMARK    7  A    between atoms: O_20  and  C_21
REMARK    8  A    between atoms: C_22  and  C_30
REMARK    9  A    between atoms: C_23  and  O_27
REMARK   10  A    between atoms: C_30  and  O_31
REMARK                            x       y       z     vdW  Elec       q    Type
REMARK                         _______ _______ _______ _____ _____    ______ ____
ROOT
ATOM      1  F   UNL     1      33.353 -15.319 -25.236  0.00  0.00    -0.204 F 
ATOM      2  C   UNL     1      34.096 -15.476 -22.983  0.00  0.00    +0.065 C 
ATOM      3  C   UNL     1      35.348 -17.424 -22.296  0.00  0.00    +0.000 C 
ATOM      4  C   UNL     1      34.770 -16.191 -21.994  0.00  0.00    +0.005 C 
ATOM      5  C   UNL     1      33.998 -15.993 -24.275  0.00  0.00    +0.143 C 
ATOM      6  C   UNL     1      35.251 -17.942 -23.588  0.00  0.00    +0.002 C 
ATOM      7  C   UNL     1      34.576 -17.226 -24.577  0.00  0.00    +0.030 C 
ENDROOT
BRANCH   2  10
ATOM      8  O   UNL     1      34.059 -13.132 -23.280  0.00  0.00    -0.353 OA
ATOM      9  N   UNL     1      33.387 -11.982 -22.884  0.00  0.00    -0.070 NA
ATOM     10  C   UNL     1      33.499 -14.201 -22.666  0.00  0.00    +0.179 C 
ATOM     11  C   UNL     1      32.469 -13.801 -21.868  0.00  0.00    +0.069 C 
ATOM     12  C   UNL     1      32.442 -12.406 -22.041  0.00  0.00    +0.198 C 
BRANCH  12  14
ATOM     13  O   UNL     1      31.759 -10.245 -21.326  0.00  0.00    -0.243 OA
ATOM     14  C   UNL     1      31.548 -11.464 -21.434  0.00  0.00    +0.359 C 
BRANCH  14  15
ATOM     15  O   UNL     1      30.381 -11.999 -20.948  0.00  0.00    -0.476 OA
ATOM     16  H   UNL     1      30.360 -12.378 -20.090  0.00  0.00    +0.295 HD
ENDBRANCH  14  15
ENDBRANCH  12  14
ENDBRANCH   2  10
BRANCH   3  17
ATOM     17  C   UNL     1      36.053 -18.170 -21.265  0.00  0.00    -0.001 C 
ATOM     18  C   UNL     1      35.972 -19.504 -21.057  0.00  0.00    +0.021 C 
BRANCH  18  19
ATOM     19  C   UNL     1      36.728 -20.230 -19.991  0.00  0.00    +0.232 C 
BRANCH  19  20
ATOM     20  O   UNL     1      36.093 -21.477 -19.751  0.00  0.00    -0.470 OA
BRANCH  20  21
ATOM     21  C   UNL     1      36.068 -21.920 -18.453  0.00  0.00    +0.148 C 
ATOM     22  C   UNL     1      34.957 -22.589 -17.952  0.00  0.00    +0.143 C 
ATOM     23  C   UNL     1      34.953 -23.031 -16.630  0.00  0.00    +0.143 C 
ATOM     24  C   UNL     1      37.176 -21.687 -17.646  0.00  0.00    +0.037 C 
ATOM     25  C   UNL     1      36.061 -22.802 -15.815  0.00  0.00    +0.037 C 
ATOM     26  C   UNL     1      37.173 -22.129 -16.323  0.00  0.00    +0.006 C 
BRANCH  23  27
ATOM     27  O   UNL     1      33.878 -23.692 -16.114  0.00  0.00    -0.505 OA
ATOM     28  H   UNL     1      33.858 -23.915 -15.204  0.00  0.00    +0.292 HD
ENDBRANCH  23  27
BRANCH  22  30
ATOM     29  O   UNL     1      33.655 -23.829 -19.520  0.00  0.00    -0.245 OA
ATOM     30  C   UNL     1      33.797 -22.831 -18.805  0.00  0.00    +0.347 C 
BRANCH  30  31
ATOM     31  O   UNL     1      32.890 -21.814 -18.712  0.00  0.00    -0.441 OA
ATOM     32  C   UNL     1      32.796 -20.931 -19.835  0.00  0.00    +0.256 C 
ENDBRANCH  30  31
ENDBRANCH  22  30
ENDBRANCH  20  21
ENDBRANCH  19  20
ENDBRANCH  18  19
ENDBRANCH   3  17
TORSDOF 10
ENDMDL
MODEL 7
REMARK VINA RESULT:     -10.3      7.541     11.226
REMARK  Name = 447994
REMARK  10 active torsions:
REMARK  status: ('A' for Active; 'I' for Inactive)
REMARK    1  A    between atoms: C_2  and  C_10
REMARK    2  A    between atoms: C_3  and  C_17
REMARK    3  A    between atoms: C_12  and  C_14
REMARK    4  A    between atoms: C_14  and  O_15
REMARK    5  A    between atoms: C_18  and  C_19
REMARK    6  A    between atoms: C_19  and  O_20
REMARK    7  A    between atoms: O_20  and  C_21
REMARK    8  A    between atoms: C_22  and  C_30
REMARK    9  A    between atoms: C_23  and  O_27
REMARK   10  A    between atoms: C_30  and  O_31
REMARK                            x       y       z     vdW  Elec       q    Type
REMARK                         _______ _______ _______ _____ _____    ______ ____
ROOT
ATOM      1  F   UNL     1      33.458 -23.888 -16.066  0.00  0.00    -0.204 F 
ATOM      2  C   UNL     1      35.330 -22.770 -17.015  0.00  0.00    +0.065 C 
ATOM      3  C   UNL     1      35.078 -21.669 -19.151  0.00  0.00    +0.000 C 
ATOM      4  C   UNL     1      35.872 -22.021 -18.059  0.00  0.00    +0.005 C 
ATOM      5  C   UNL     1      33.994 -23.168 -17.062  0.00  0.00    +0.143 C 
ATOM      6  C   UNL     1      33.742 -22.067 -19.198  0.00  0.00    +0.002 C 
ATOM      7  C   UNL     1      33.200 -22.816 -18.154  0.00  0.00    +0.030 C 
ENDROOT
BRANCH   2  10
ATOM      8  O   UNL     1      37.488 -23.134 -16.122  0.00  0.00    -0.353 OA
ATOM      9  N   UNL     1      38.150 -23.497 -14.956  0.00  0.00    -0.070 NA
ATOM     10  C   UNL     1      36.154 -23.131 -15.887  0.00  0.00    +0.179 C 
ATOM     11  C   UNL     1      35.902 -23.481 -14.594  0.00  0.00    +0.069 C 
ATOM     12  C   UNL     1      37.183 -23.699 -14.057  0.00  0.00    +0.198 C 
BRANCH  12  14
ATOM     13  O   UNL     1      36.767 -23.995 -11.736  0.00  0.00    -0.243 OA
ATOM     14  C   UNL     1      37.519 -24.091 -12.720  0.00  0.00    +0.359 C 
BRANCH  14  15
ATOM     15  O   UNL     1      38.782 -24.607 -12.565  0.00  0.00    -0.476 OA
ATOM     16  H   UNL     1      39.340 -24.712 -13.311  0.00  0.00    +0.295 HD
ENDBRANCH  14  15
ENDBRANCH  12  14
ENDBRANCH   2  10
BRANCH   3  17
ATOM     17  C   UNL     1      35.643 -20.888 -20.240  0.00  0.00    -0.001 C 
ATOM     18  C   UNL     1      35.073 -19.807 -20.819  0.00  0.00    +0.021 C 
BRANCH  18  19
ATOM     19  C   UNL     1      35.700 -19.026 -21.929  0.00  0.00    +0.232 C 
BRANCH  19  20
ATOM     20  O   UNL     1      35.474 -17.643 -21.697  0.00  0.00    -0.470 OA
BRANCH  20  21
ATOM     21  C   UNL     1      34.940 -16.921 -22.733  0.00  0.00    +0.148 C 
ATOM     22  C   UNL     1      34.371 -15.672 -22.509  0.00  0.00    +0.143 C 
ATOM     23  C   UNL     1      33.835 -14.955 -23.577  0.00  0.00    +0.143 C 
ATOM     24  C   UNL     1      34.978 -17.461 -24.015  0.00  0.00    +0.037 C 
ATOM     25  C   UNL     1      33.870 -15.489 -24.865  0.00  0.00    +0.037 C 
ATOM     26  C   UNL     1      34.442 -16.743 -25.083  0.00  0.00    +0.006 C 
BRANCH  23  27
ATOM     27  O   UNL     1      33.273 -13.727 -23.386  0.00  0.00    -0.505 OA
ATOM     28  H   UNL     1      32.431 -13.655 -22.981  0.00  0.00    +0.292 HD
ENDBRANCH  23  27
BRANCH  22  30
ATOM     29  O   UNL     1      34.953 -14.099 -20.813  0.00  0.00    -0.245 OA
ATOM     30  C   UNL     1      34.335 -15.111 -21.162  0.00  0.00    +0.347 C 
BRANCH  30  31
ATOM     31  O   UNL     1      33.532 -15.846 -20.338  0.00  0.00    -0.441 OA
ATOM     32  C   UNL     1      32.297 -15.243 -19.938  0.00  0.00    +0.256 C 
ENDBRANCH  30  31
ENDBRANCH  22  30
ENDBRANCH  20  21
ENDBRANCH  19  20
ENDBRANCH  18  19
ENDBRANCH   3  17
TORSDOF 10
ENDMDL
MODEL 8
REMARK VINA RESULT:     -10.2     11.509     14.563
REMARK  Name = 447994
REMARK  10 active torsions:
REMARK  status: ('A' for Active; 'I' for Inactive)
REMARK    1  A    between atoms: C_2  and  C_10
REMARK    2  A    between atoms: C_3  and  C_17
REMARK    3  A    between atoms: C_12  and  C_14
REMARK    4  A    between atoms: C_14  and  O_15
REMARK    5  A    between atoms: C_18  and  C_19
REMARK    6  A    between atoms: C_19  and  O_20
REMARK    7  A    between atoms: O_20  and  C_21
REMARK    8  A    between atoms: C_22  and  C_30
REMARK    9  A    between atoms: C_23  and  O_27
REMARK   10  A    between atoms: C_30  and  O_31
REMARK                            x       y       z     vdW  Elec       q    Type
REMARK                         _______ _______ _______ _____ _____    ______ ____
ROOT
ATOM      1  F   UNL     1      34.526 -19.532 -24.427  0.00  0.00    -0.204 F 
ATOM      2  C   UNL     1      34.948 -17.757 -22.902  0.00  0.00    +0.065 C 
ATOM      3  C   UNL     1      34.564 -15.482 -23.617  0.00  0.00    +0.000 C 
ATOM      4  C   UNL     1      34.959 -16.389 -22.634  0.00  0.00    +0.005 C 
ATOM      5  C   UNL     1      34.542 -18.220 -24.154  0.00  0.00    +0.143 C 
ATOM      6  C   UNL     1      34.158 -15.944 -24.869  0.00  0.00    +0.002 C 
ATOM      7  C   UNL     1      34.147 -17.313 -25.138  0.00  0.00    +0.030 C 
ENDROOT
BRANCH   2  10
ATOM      8  O   UNL     1      36.583 -18.471 -21.353  0.00  0.00    -0.353 OA
ATOM      9  N   UNL     1      36.841 -19.441 -20.391  0.00  0.00    -0.070 NA
ATOM     10  C   UNL     1      35.357 -18.692 -21.882  0.00  0.00    +0.179 C 
ATOM     11  C   UNL     1      34.782 -19.784 -21.301  0.00  0.00    +0.069 C 
ATOM     12  C   UNL     1      35.750 -20.213 -20.378  0.00  0.00    +0.198 C 
BRANCH  12  14
ATOM     13  O   UNL     1      34.740 -22.144 -19.432  0.00  0.00    -0.243 OA
ATOM     14  C   UNL     1      35.676 -21.330 -19.483  0.00  0.00    +0.359 C 
BRANCH  14  15
ATOM     15  O   UNL     1      36.746 -21.468 -18.635  0.00  0.00    -0.476 OA
ATOM     16  H   UNL     1      36.907 -22.289 -18.212  0.00  0.00    +0.295 HD
ENDBRANCH  14  15
ENDBRANCH  12  14
ENDBRANCH   2  10
BRANCH   3  17
ATOM     17  C   UNL     1      34.575 -14.054 -23.338  0.00  0.00    -0.001 C 
ATOM     18  C   UNL     1      33.811 -13.121 -23.951  0.00  0.00    +0.021 C 
BRANCH  18  19
ATOM     19  C   UNL     1      33.848 -11.664 -23.619  0.00  0.00    +0.232 C 
BRANCH  19  20
ATOM     20  O   UNL     1      32.608 -11.300 -23.029  0.00  0.00    -0.470 OA
BRANCH  20  21
ATOM     21  C   UNL     1      32.613 -10.203 -22.206  0.00  0.00    +0.148 C 
ATOM     22  C   UNL     1      32.057 -10.268 -20.933  0.00  0.00    +0.143 C 
ATOM     23  C   UNL     1      32.073  -9.141 -20.113  0.00  0.00    +0.143 C 
ATOM     24  C   UNL     1      33.185  -9.023 -22.668  0.00  0.00    +0.037 C 
ATOM     25  C   UNL     1      32.646  -7.954 -20.569  0.00  0.00    +0.037 C 
ATOM     26  C   UNL     1      33.202  -7.895 -21.847  0.00  0.00    +0.006 C 
BRANCH  23  27
ATOM     27  O   UNL     1      31.537  -9.177 -18.860  0.00  0.00    -0.505 OA
ATOM     28  H   UNL     1      31.343 -10.001 -18.457  0.00  0.00    +0.292 HD
ENDBRANCH  23  27
BRANCH  22  30
ATOM     29  O   UNL     1      30.241 -11.706 -20.363  0.00  0.00    -0.245 OA
ATOM     30  C   UNL     1      31.458 -11.510 -20.454  0.00  0.00    +0.347 C 
BRANCH  30  31
ATOM     31  O   UNL     1      32.414 -12.428 -20.121  0.00  0.00    -0.441 OA
ATOM     32  C   UNL     1      32.170 -13.782 -20.515  0.00  0.00    +0.256 C 
ENDBRANCH  30  31
ENDBRANCH  22  30
ENDBRANCH  20  21
ENDBRANCH  19  20
ENDBRANCH  18  19
ENDBRANCH   3  17
TORSDOF 10
ENDMDL
MODEL 9
REMARK VINA RESULT:      -9.9      7.851     10.584
REMARK  Name = 447994
REMARK  10 active torsions:
REMARK  status: ('A' for Active; 'I' for Inactive)
REMARK    1  A    between atoms: C_2  and  C_10
REMARK    2  A    between atoms: C_3  and  C_17
REMARK    3  A    between atoms: C_12  and  C_14
REMARK    4  A    between atoms: C_14  and  O_15
REMARK    5  A    between atoms: C_18  and  C_19
REMARK    6  A    between atoms: C_19  and  O_20
REMARK    7  A    between atoms: O_20  and  C_21
REMARK    8  A    between atoms: C_22  and  C_30
REMARK    9  A    between atoms: C_23  and  O_27
REMARK   10  A    between atoms: C_30  and  O_31
REMARK                            x       y       z     vdW  Elec       q    Type
REMARK                         _______ _______ _______ _____ _____    ______ ____
ROOT
ATOM      1  F   UNL     1      35.933 -23.195 -16.616  0.00  0.00    -0.204 F 
ATOM      2  C   UNL     1      34.215 -22.328 -18.013  0.00  0.00    +0.065 C 
ATOM      3  C   UNL     1      34.830 -21.065 -19.979  0.00  0.00    +0.000 C 
ATOM      4  C   UNL     1      33.849 -21.608 -19.150  0.00  0.00    +0.005 C 
ATOM      5  C   UNL     1      35.564 -22.506 -17.704  0.00  0.00    +0.143 C 
ATOM      6  C   UNL     1      36.179 -21.243 -19.670  0.00  0.00    +0.002 C 
ATOM      7  C   UNL     1      36.546 -21.963 -18.533  0.00  0.00    +0.030 C 
ENDROOT
BRANCH   2  10
ATOM      8  O   UNL     1      31.923 -22.707 -17.580  0.00  0.00    -0.353 OA
ATOM      9  N   UNL     1      31.057 -23.294 -16.666  0.00  0.00    -0.070 NA
ATOM     10  C   UNL     1      33.196 -22.888 -17.158  0.00  0.00    +0.179 C 
ATOM     11  C   UNL     1      33.211 -23.582 -15.985  0.00  0.00    +0.069 C 
ATOM     12  C   UNL     1      31.849 -23.811 -15.722  0.00  0.00    +0.198 C 
BRANCH  12  14
ATOM     13  O   UNL     1      31.865 -25.339 -13.903  0.00  0.00    -0.243 OA
ATOM     14  C   UNL     1      31.275 -24.504 -14.606  0.00  0.00    +0.359 C 
BRANCH  14  15
ATOM     15  O   UNL     1      29.967 -24.186 -14.335  0.00  0.00    -0.476 OA
ATOM     16  H   UNL     1      29.384 -23.961 -15.034  0.00  0.00    +0.295 HD
ENDBRANCH  14  15
ENDBRANCH  12  14
ENDBRANCH   2  10
BRANCH   3  17
ATOM     17  C   UNL     1      34.448 -20.315 -21.165  0.00  0.00    -0.001 C 
ATOM     18  C   UNL     1      35.289 -19.638 -21.979  0.00  0.00    +0.021 C 
BRANCH  18  19
ATOM     19  C   UNL     1      34.851 -18.891 -23.197  0.00  0.00    +0.232 C 
BRANCH  19  20
ATOM     20  O   UNL     1      35.431 -17.595 -23.171  0.00  0.00    -0.470 OA
BRANCH  20  21
ATOM     21  C   UNL     1      34.751 -16.626 -22.480  0.00  0.00    +0.148 C 
ATOM     22  C   UNL     1      34.025 -15.650 -23.154  0.00  0.00    +0.143 C 
ATOM     23  C   UNL     1      33.341 -14.674 -22.431  0.00  0.00    +0.143 C 
ATOM     24  C   UNL     1      34.800 -16.637 -21.090  0.00  0.00    +0.037 C 
ATOM     25  C   UNL     1      33.384 -14.679 -21.037  0.00  0.00    +0.037 C 
ATOM     26  C   UNL     1      34.114 -15.661 -20.367  0.00  0.00    +0.006 C 
BRANCH  23  27
ATOM     27  O   UNL     1      32.620 -13.707 -23.067  0.00  0.00    -0.505 OA
ATOM     28  H   UNL     1      32.904 -12.814 -23.036  0.00  0.00    +0.292 HD
ENDBRANCH  23  27
BRANCH  22  30
ATOM     29  O   UNL     1      33.791 -16.650 -25.307  0.00  0.00    -0.245 OA
ATOM     30  C   UNL     1      33.978 -15.644 -24.613  0.00  0.00    +0.347 C 
BRANCH  30  31
ATOM     31  O   UNL     1      34.166 -14.387 -25.113  0.00  0.00    -0.441 OA
ATOM     32  C   UNL     1      33.459 -14.062 -26.315  0.00  0.00    +0.256 C 
ENDBRANCH  30  31
ENDBRANCH  22  30
ENDBRANCH  20  21
ENDBRANCH  19  20
ENDBRANCH  18  19
ENDBRANCH   3  17
TORSDOF 10
ENDMDL
