MODEL 1
REMARK VINA RESULT:     -11.7      0.000      0.000
REMARK  Name = 12087505
REMARK  3 active torsions:
REMARK  status: ('A' for Active; 'I' for Inactive)
REMARK    1  A    between atoms: C_1  and  S_18
REMARK    2  A    between atoms: C_4  and  N_9
REMARK    3  A    between atoms: S_18  and  N_21
REMARK                            x       y       z     vdW  Elec       q    Type
REMARK                         _______ _______ _______ _____ _____    ______ ____
ROOT
ATOM      1  C   UNL     1      35.148 -20.190 -20.924  0.00  0.00    +0.123 C 
ATOM      2  C   UNL     1      35.859 -20.906 -19.976  0.00  0.00    +0.035 C 
ATOM      3  C   UNL     1      33.764 -20.208 -20.954  0.00  0.00    +0.020 C 
ATOM      4  C   UNL     1      35.166 -21.663 -19.031  0.00  0.00    +0.053 C 
ATOM      5  C   UNL     1      33.070 -20.964 -20.008  0.00  0.00    +0.003 C 
ATOM      6  C   UNL     1      33.772 -21.690 -19.046  0.00  0.00    +0.015 C 
ENDROOT
BRANCH   4   9
ATOM      7  S   UNL     1      37.814 -24.970 -14.428  0.00  0.00    -0.051 S 
ATOM      8  O   UNL     1      34.217 -22.916 -16.495  0.00  0.00    -0.252 OA
ATOM      9  N   UNL     1      35.868 -22.390 -18.069  0.00  0.00    -0.268 N 
ATOM     10  N   UNL     1      36.435 -23.614 -16.197  0.00  0.00    -0.248 N 
ATOM     11  N   UNL     1      35.283 -24.468 -14.261  0.00  0.00    -0.222 NA
ATOM     12  C   UNL     1      35.384 -22.973 -16.871  0.00  0.00    +0.310 C 
ATOM     13  C   UNL     1      36.348 -24.300 -14.983  0.00  0.00    +0.167 C 
ATOM     14  C   UNL     1      36.966 -25.566 -13.061  0.00  0.00    +0.059 C 
ATOM     15  C   UNL     1      35.638 -25.202 -13.146  0.00  0.00    +0.108 C 
ATOM     16  H   UNL     1      36.829 -22.513 -18.245  0.00  0.00    +0.156 HD
ATOM     17  H   UNL     1      37.322 -23.576 -16.622  0.00  0.00    +0.158 HD
ENDBRANCH   4   9
BRANCH   1  18
ATOM     18  S   UNL     1      36.025 -19.234 -22.123  0.00  0.00    +0.063 S 
ATOM     19  O   UNL     1      37.325 -18.918 -21.572  0.00  0.00    -0.153 OA
ATOM     20  O   UNL     1      35.897 -19.899 -23.402  0.00  0.00    -0.153 OA
BRANCH  18  21
ATOM     21  N   UNL     1      35.063 -17.817 -22.134  0.00  0.00    -0.152 NA
ATOM     22  N   UNL     1      34.011 -15.183 -22.143  0.00  0.00    -0.290 N 
ATOM     23  C   UNL     1      35.144 -16.980 -20.903  0.00  0.00    +0.117 C 
ATOM     24  C   UNL     1      35.174 -16.977 -23.359  0.00  0.00    +0.117 C 
ATOM     25  C   UNL     1      34.003 -15.967 -20.901  0.00  0.00    +0.111 C 
ATOM     26  C   UNL     1      34.036 -15.960 -23.388  0.00  0.00    +0.111 C 
ATOM     27  N   UNL     1      32.341 -13.694 -21.285  0.00  0.00    -0.229 NA
ATOM     28  C   UNL     1      33.396 -13.926 -22.124  0.00  0.00    +0.132 C 
ATOM     29  C   UNL     1      33.888 -12.929 -22.977  0.00  0.00    +0.034 C 
ATOM     30  C   UNL     1      33.288 -11.675 -22.970  0.00  0.00    +0.004 C 
ATOM     31  C   UNL     1      31.784 -12.463 -21.305  0.00  0.00    +0.100 C 
ATOM     32  C   UNL     1      32.216 -11.429 -22.121  0.00  0.00    +0.021 C 
ENDBRANCH  18  21
ENDBRANCH   1  18
TORSDOF 3
ENDMDL
MODEL 2
REMARK VINA RESULT:     -10.8      2.306     10.766
REMARK  Name = 12087505
REMARK  3 active torsions:
REMARK  status: ('A' for Active; 'I' for Inactive)
REMARK    1  A    between atoms: C_1  and  S_18
REMARK    2  A    between atoms: C_4  and  N_9
REMARK    3  A    between atoms: S_18  and  N_21
REMARK                            x       y       z     vdW  Elec       q    Type
REMARK                         _______ _______ _______ _____ _____    ______ ____
ROOT
ATOM      1  C   UNL     1      34.971 -21.516 -19.453  0.00  0.00    +0.123 C 
ATOM      2  C   UNL     1      34.562 -20.559 -20.367  0.00  0.00    +0.035 C 
ATOM      3  C   UNL     1      36.306 -21.667 -19.116  0.00  0.00    +0.020 C 
ATOM      4  C   UNL     1      35.515 -19.731 -20.961  0.00  0.00    +0.053 C 
ATOM      5  C   UNL     1      37.259 -20.839 -19.709  0.00  0.00    +0.003 C 
ATOM      6  C   UNL     1      36.862 -19.871 -20.632  0.00  0.00    +0.015 C 
ENDROOT
BRANCH   4   9
ATOM      7  S   UNL     1      33.784 -15.000 -24.670  0.00  0.00    -0.051 S 
ATOM      8  O   UNL     1      35.121 -16.794 -20.618  0.00  0.00    -0.252 OA
ATOM      9  N   UNL     1      35.119 -18.762 -21.884  0.00  0.00    -0.268 N 
ATOM     10  N   UNL     1      34.533 -16.768 -22.887  0.00  0.00    -0.248 N 
ATOM     11  N   UNL     1      34.331 -14.468 -22.200  0.00  0.00    -0.222 NA
ATOM     12  C   UNL     1      34.941 -17.370 -21.686  0.00  0.00    +0.310 C 
ATOM     13  C   UNL     1      34.259 -15.414 -23.086  0.00  0.00    +0.167 C 
ATOM     14  C   UNL     1      33.650 -13.371 -24.152  0.00  0.00    +0.059 C 
ATOM     15  C   UNL     1      33.979 -13.282 -22.814  0.00  0.00    +0.108 C 
ATOM     16  H   UNL     1      34.937 -19.090 -22.795  0.00  0.00    +0.156 HD
ATOM     17  H   UNL     1      34.430 -17.361 -23.666  0.00  0.00    +0.158 HD
ENDBRANCH   4   9
BRANCH   1  18
ATOM     18  S   UNL     1      33.766 -22.566 -18.702  0.00  0.00    +0.063 S 
ATOM     19  O   UNL     1      32.536 -21.813 -18.582  0.00  0.00    -0.153 OA
ATOM     20  O   UNL     1      33.798 -23.841 -19.386  0.00  0.00    -0.153 OA
BRANCH  18  21
ATOM     21  N   UNL     1      34.461 -22.751 -17.147  0.00  0.00    -0.152 NA
ATOM     22  N   UNL     1      35.778 -23.605 -14.786  0.00  0.00    -0.290 N 
ATOM     23  C   UNL     1      33.846 -23.807 -16.294  0.00  0.00    +0.117 C 
ATOM     24  C   UNL     1      35.948 -22.837 -17.116  0.00  0.00    +0.117 C 
ATOM     25  C   UNL     1      34.311 -23.630 -14.852  0.00  0.00    +0.111 C 
ATOM     26  C   UNL     1      36.442 -22.652 -15.684  0.00  0.00    +0.111 C 
ATOM     27  N   UNL     1      35.732 -23.695 -12.391  0.00  0.00    -0.229 NA
ATOM     28  C   UNL     1      36.382 -23.945 -13.569  0.00  0.00    +0.132 C 
ATOM     29  C   UNL     1      37.650 -24.539 -13.597  0.00  0.00    +0.034 C 
ATOM     30  C   UNL     1      38.263 -24.881 -12.396  0.00  0.00    +0.004 C 
ATOM     31  C   UNL     1      36.358 -24.043 -11.245  0.00  0.00    +0.100 C 
ATOM     32  C   UNL     1      37.612 -24.633 -11.194  0.00  0.00    +0.021 C 
ENDBRANCH  18  21
ENDBRANCH   1  18
TORSDOF 3
ENDMDL
MODEL 3
REMARK VINA RESULT:      -9.1      5.919     10.472
REMARK  Name = 12087505
REMARK  3 active torsions:
REMARK  status: ('A' for Active; 'I' for Inactive)
REMARK    1  A    between atoms: C_1  and  S_18
REMARK    2  A    between atoms: C_4  and  N_9
REMARK    3  A    between atoms: S_18  and  N_21
REMARK                            x       y       z     vdW  Elec       q    Type
REMARK                         _______ _______ _______ _____ _____    ______ ____
ROOT
ATOM      1  C   UNL     1      32.826 -10.577 -22.389  0.00  0.00    +0.123 C 
ATOM      2  C   UNL     1      32.908 -11.928 -22.682  0.00  0.00    +0.035 C 
ATOM      3  C   UNL     1      33.629  -9.650 -23.032  0.00  0.00    +0.020 C 
ATOM      4  C   UNL     1      33.818 -12.364 -23.645  0.00  0.00    +0.053 C 
ATOM      5  C   UNL     1      34.539 -10.085 -23.995  0.00  0.00    +0.003 C 
ATOM      6  C   UNL     1      34.633 -11.443 -24.302  0.00  0.00    +0.015 C 
ENDROOT
BRANCH   4   9
ATOM      7  S   UNL     1      34.493 -18.524 -24.506  0.00  0.00    -0.051 S 
ATOM      8  O   UNL     1      34.948 -14.622 -22.056  0.00  0.00    -0.252 OA
ATOM      9  N   UNL     1      33.912 -13.722 -23.952  0.00  0.00    -0.268 N 
ATOM     10  N   UNL     1      34.348 -15.986 -23.865  0.00  0.00    -0.248 N 
ATOM     11  N   UNL     1      35.345 -17.508 -22.286  0.00  0.00    -0.222 NA
ATOM     12  C   UNL     1      34.457 -14.771 -23.171  0.00  0.00    +0.310 C 
ATOM     13  C   UNL     1      34.773 -17.240 -23.420  0.00  0.00    +0.167 C 
ATOM     14  C   UNL     1      35.208 -19.582 -23.361  0.00  0.00    +0.059 C 
ATOM     15  C   UNL     1      35.599 -18.865 -22.249  0.00  0.00    +0.108 C 
ATOM     16  H   UNL     1      33.553 -13.986 -24.830  0.00  0.00    +0.156 HD
ATOM     17  H   UNL     1      33.929 -15.951 -24.755  0.00  0.00    +0.158 HD
ENDBRANCH   4   9
BRANCH   1  18
ATOM     18  S   UNL     1      31.675 -10.025 -21.169  0.00  0.00    +0.063 S 
ATOM     19  O   UNL     1      30.482 -10.835 -21.286  0.00  0.00    -0.153 OA
ATOM     20  O   UNL     1      32.381  -9.911 -19.910  0.00  0.00    -0.153 OA
BRANCH  18  21
ATOM     21  N   UNL     1      31.343  -8.453 -21.764  0.00  0.00    -0.152 NA
ATOM     22  N   UNL     1      31.394  -5.834 -22.851  0.00  0.00    -0.290 N 
ATOM     23  C   UNL     1      31.933  -7.333 -20.977  0.00  0.00    +0.117 C 
ATOM     24  C   UNL     1      31.571  -8.259 -23.223  0.00  0.00    +0.117 C 
ATOM     25  C   UNL     1      31.284  -6.018 -21.398  0.00  0.00    +0.111 C 
ATOM     26  C   UNL     1      30.921  -6.954 -23.674  0.00  0.00    +0.111 C 
ATOM     27  N   UNL     1      30.582  -3.586 -22.689  0.00  0.00    -0.229 NA
ATOM     28  C   UNL     1      31.320  -4.529 -23.351  0.00  0.00    +0.132 C 
ATOM     29  C   UNL     1      32.014  -4.224 -24.529  0.00  0.00    +0.034 C 
ATOM     30  C   UNL     1      31.950  -2.932 -25.037  0.00  0.00    +0.004 C 
ATOM     31  C   UNL     1      30.545  -2.340 -23.213  0.00  0.00    +0.100 C 
ATOM     32  C   UNL     1      31.205  -1.965 -24.373  0.00  0.00    +0.021 C 
ENDBRANCH  18  21
ENDBRANCH   1  18
TORSDOF 3
ENDMDL
MODEL 4
REMARK VINA RESULT:      -9.0      4.469     11.587
REMARK  Name = 12087505
REMARK  3 active torsions:
REMARK  status: ('A' for Active; 'I' for Inactive)
REMARK    1  A    between atoms: C_1  and  S_18
REMARK    2  A    between atoms: C_4  and  N_9
REMARK    3  A    between atoms: S_18  and  N_21
REMARK                            x       y       z     vdW  Elec       q    Type
REMARK                         _______ _______ _______ _____ _____    ______ ____
ROOT
ATOM      1  C   UNL     1      33.895 -15.022 -23.522  0.00  0.00    +0.123 C 
ATOM      2  C   UNL     1      33.988 -13.674 -23.827  0.00  0.00    +0.035 C 
ATOM      3  C   UNL     1      33.311 -15.457 -22.344  0.00  0.00    +0.020 C 
ATOM      4  C   UNL     1      33.481 -12.735 -22.929  0.00  0.00    +0.053 C 
ATOM      5  C   UNL     1      32.803 -14.518 -21.446  0.00  0.00    +0.003 C 
ATOM      6  C   UNL     1      32.888 -13.157 -21.739  0.00  0.00    +0.015 C 
ENDROOT
BRANCH   4   9
ATOM      7  S   UNL     1      33.386  -6.558 -23.917  0.00  0.00    -0.051 S 
ATOM      8  O   UNL     1      31.739 -10.470 -22.070  0.00  0.00    -0.252 OA
ATOM      9  N   UNL     1      33.565 -11.373 -23.221  0.00  0.00    -0.268 N 
ATOM     10  N   UNL     1      33.169  -9.103 -23.326  0.00  0.00    -0.248 N 
ATOM     11  N   UNL     1      31.538  -7.577 -22.422  0.00  0.00    -0.222 NA
ATOM     12  C   UNL     1      32.717 -10.321 -22.795  0.00  0.00    +0.310 C 
ATOM     13  C   UNL     1      32.593  -7.846 -23.130  0.00  0.00    +0.167 C 
ATOM     14  C   UNL     1      32.211  -5.497 -23.258  0.00  0.00    +0.059 C 
ATOM     15  C   UNL     1      31.314  -6.216 -22.494  0.00  0.00    +0.108 C 
ATOM     16  H   UNL     1      34.314 -11.108 -23.804  0.00  0.00    +0.156 HD
ATOM     17  H   UNL     1      33.972  -9.138 -23.895  0.00  0.00    +0.158 HD
ENDBRANCH   4   9
BRANCH   1  18
ATOM     18  S   UNL     1      34.540 -16.212 -24.657  0.00  0.00    +0.063 S 
ATOM     19  O   UNL     1      33.444 -16.680 -25.478  0.00  0.00    -0.153 OA
ATOM     20  O   UNL     1      35.735 -15.656 -25.254  0.00  0.00    -0.153 OA
BRANCH  18  21
ATOM     21  N   UNL     1      34.989 -17.452 -23.565  0.00  0.00    -0.152 NA
ATOM     22  N   UNL     1      35.197 -19.376 -21.491  0.00  0.00    -0.290 N 
ATOM     23  C   UNL     1      35.238 -17.010 -22.163  0.00  0.00    +0.117 C 
ATOM     24  C   UNL     1      34.136 -18.673 -23.596  0.00  0.00    +0.117 C 
ATOM     25  C   UNL     1      35.954 -18.120 -21.400  0.00  0.00    +0.111 C 
ATOM     26  C   UNL     1      34.834 -19.805 -22.847  0.00  0.00    +0.111 C 
ATOM     27  N   UNL     1      36.617 -20.421 -19.869  0.00  0.00    -0.229 NA
ATOM     28  C   UNL     1      35.403 -20.335 -20.493  0.00  0.00    +0.132 C 
ATOM     29  C   UNL     1      34.344 -21.191 -20.161  0.00  0.00    +0.034 C 
ATOM     30  C   UNL     1      34.534 -22.150 -19.172  0.00  0.00    +0.004 C 
ATOM     31  C   UNL     1      36.763 -21.364 -18.911  0.00  0.00    +0.100 C 
ATOM     32  C   UNL     1      35.763 -22.244 -18.530  0.00  0.00    +0.021 C 
ENDBRANCH  18  21
ENDBRANCH   1  18
TORSDOF 3
ENDMDL
MODEL 5
REMARK VINA RESULT:      -9.0      5.873     10.221
REMARK  Name = 12087505
REMARK  3 active torsions:
REMARK  status: ('A' for Active; 'I' for Inactive)
REMARK    1  A    between atoms: C_1  and  S_18
REMARK    2  A    between atoms: C_4  and  N_9
REMARK    3  A    between atoms: S_18  and  N_21
REMARK                            x       y       z     vdW  Elec       q    Type
REMARK                         _______ _______ _______ _____ _____    ______ ____
ROOT
ATOM      1  C   UNL     1      32.871 -10.847 -22.654  0.00  0.00    +0.123 C 
ATOM      2  C   UNL     1      33.011 -12.224 -22.712  0.00  0.00    +0.035 C 
ATOM      3  C   UNL     1      33.590 -10.014 -23.494  0.00  0.00    +0.020 C 
ATOM      4  C   UNL     1      33.894 -12.782 -23.636  0.00  0.00    +0.053 C 
ATOM      5  C   UNL     1      34.473 -10.571 -24.419  0.00  0.00    +0.003 C 
ATOM      6  C   UNL     1      34.624 -11.956 -24.490  0.00  0.00    +0.015 C 
ENDROOT
BRANCH   4   9
ATOM      7  S   UNL     1      34.763 -18.974 -23.410  0.00  0.00    -0.051 S 
ATOM      8  O   UNL     1      34.854 -14.722 -21.582  0.00  0.00    -0.252 OA
ATOM      9  N   UNL     1      34.046 -14.168 -23.707  0.00  0.00    -0.268 N 
ATOM     10  N   UNL     1      34.501 -16.374 -23.207  0.00  0.00    -0.248 N 
ATOM     11  N   UNL     1      35.320 -17.592 -21.297  0.00  0.00    -0.222 NA
ATOM     12  C   UNL     1      34.506 -15.062 -22.709  0.00  0.00    +0.310 C 
ATOM     13  C   UNL     1      34.887 -17.526 -22.519  0.00  0.00    +0.167 C 
ATOM     14  C   UNL     1      35.347 -19.813 -22.034  0.00  0.00    +0.059 C 
ATOM     15  C   UNL     1      35.587 -18.917 -21.012  0.00  0.00    +0.108 C 
ATOM     16  H   UNL     1      33.801 -14.579 -24.568  0.00  0.00    +0.156 HD
ATOM     17  H   UNL     1      34.195 -16.493 -24.135  0.00  0.00    +0.158 HD
ENDBRANCH   4   9
BRANCH   1  18
ATOM     18  S   UNL     1      31.755 -10.140 -21.482  0.00  0.00    +0.063 S 
ATOM     19  O   UNL     1      30.434 -10.663 -21.757  0.00  0.00    -0.153 OA
ATOM     20  O   UNL     1      32.350 -10.266 -20.169  0.00  0.00    -0.153 OA
BRANCH  18  21
ATOM     21  N   UNL     1      31.818  -8.498 -21.967  0.00  0.00    -0.152 NA
ATOM     22  N   UNL     1      31.327  -5.784 -22.628  0.00  0.00    -0.290 N 
ATOM     23  C   UNL     1      31.032  -8.161 -23.187  0.00  0.00    +0.117 C 
ATOM     24  C   UNL     1      31.578  -7.502 -20.885  0.00  0.00    +0.117 C 
ATOM     25  C   UNL     1      31.448  -6.785 -23.697  0.00  0.00    +0.111 C 
ATOM     26  C   UNL     1      31.998  -6.115 -21.365  0.00  0.00    +0.111 C 
ATOM     27  N   UNL     1      31.734  -3.997 -24.171  0.00  0.00    -0.229 NA
ATOM     28  C   UNL     1      31.179  -4.444 -23.003  0.00  0.00    +0.132 C 
ATOM     29  C   UNL     1      30.458  -3.590 -22.159  0.00  0.00    +0.034 C 
ATOM     30  C   UNL     1      30.304  -2.255 -22.518  0.00  0.00    +0.004 C 
ATOM     31  C   UNL     1      31.561  -2.694 -24.488  0.00  0.00    +0.100 C 
ATOM     32  C   UNL     1      30.862  -1.791 -23.703  0.00  0.00    +0.021 C 
ENDBRANCH  18  21
ENDBRANCH   1  18
TORSDOF 3
ENDMDL
MODEL 6
REMARK VINA RESULT:      -8.7      1.838      2.285
REMARK  Name = 12087505
REMARK  3 active torsions:
REMARK  status: ('A' for Active; 'I' for Inactive)
REMARK    1  A    between atoms: C_1  and  S_18
REMARK    2  A    between atoms: C_4  and  N_9
REMARK    3  A    between atoms: S_18  and  N_21
REMARK                            x       y       z     vdW  Elec       q    Type
REMARK                         _______ _______ _______ _____ _____    ______ ____
ROOT
ATOM      1  C   UNL     1      35.542 -20.727 -19.858  0.00  0.00    +0.123 C 
ATOM      2  C   UNL     1      35.891 -21.635 -18.873  0.00  0.00    +0.035 C 
ATOM      3  C   UNL     1      34.225 -20.563 -20.253  0.00  0.00    +0.020 C 
ATOM      4  C   UNL     1      34.896 -22.400 -18.265  0.00  0.00    +0.053 C 
ATOM      5  C   UNL     1      33.228 -21.327 -19.645  0.00  0.00    +0.003 C 
ATOM      6  C   UNL     1      33.565 -22.245 -18.650  0.00  0.00    +0.015 C 
ENDROOT
BRANCH   4   9
ATOM      7  S   UNL     1      36.701 -26.093 -13.549  0.00  0.00    -0.051 S 
ATOM      8  O   UNL     1      36.564 -22.059 -15.814  0.00  0.00    -0.252 OA
ATOM      9  N   UNL     1      35.231 -23.318 -17.269  0.00  0.00    -0.268 N 
ATOM     10  N   UNL     1      36.108 -24.317 -15.383  0.00  0.00    -0.248 N 
ATOM     11  N   UNL     1      37.501 -23.635 -13.540  0.00  0.00    -0.222 NA
ATOM     12  C   UNL     1      36.029 -23.122 -16.115  0.00  0.00    +0.310 C 
ATOM     13  C   UNL     1      36.804 -24.517 -14.189  0.00  0.00    +0.167 C 
ATOM     14  C   UNL     1      37.694 -25.577 -12.249  0.00  0.00    +0.059 C 
ATOM     15  C   UNL     1      38.019 -24.246 -12.415  0.00  0.00    +0.108 C 
ATOM     16  H   UNL     1      34.866 -24.226 -17.386  0.00  0.00    +0.156 HD
ATOM     17  H   UNL     1      35.625 -25.093 -15.749  0.00  0.00    +0.158 HD
ENDBRANCH   4   9
BRANCH   1  18
ATOM     18  S   UNL     1      36.802 -19.761 -20.630  0.00  0.00    +0.063 S 
ATOM     19  O   UNL     1      37.484 -19.014 -19.595  0.00  0.00    -0.153 OA
ATOM     20  O   UNL     1      37.534 -20.623 -21.534  0.00  0.00    -0.153 OA
BRANCH  18  21
ATOM     21  N   UNL     1      35.833 -18.687 -21.548  0.00  0.00    -0.152 NA
ATOM     22  N   UNL     1      34.757 -16.771 -23.340  0.00  0.00    -0.290 N 
ATOM     23  C   UNL     1      36.115 -17.238 -21.343  0.00  0.00    +0.117 C 
ATOM     24  C   UNL     1      35.716 -19.010 -22.997  0.00  0.00    +0.117 C 
ATOM     25  C   UNL     1      34.977 -16.410 -21.933  0.00  0.00    +0.111 C 
ATOM     26  C   UNL     1      34.575 -18.202 -23.611  0.00  0.00    +0.111 C 
ATOM     27  N   UNL     1      33.240 -14.939 -23.634  0.00  0.00    -0.229 NA
ATOM     28  C   UNL     1      34.137 -15.826 -24.166  0.00  0.00    +0.132 C 
ATOM     29  C   UNL     1      34.457 -15.818 -25.529  0.00  0.00    +0.034 C 
ATOM     30  C   UNL     1      33.849 -14.885 -26.362  0.00  0.00    +0.004 C 
ATOM     31  C   UNL     1      32.670 -14.046 -24.475  0.00  0.00    +0.100 C 
ATOM     32  C   UNL     1      32.938 -13.979 -25.833  0.00  0.00    +0.021 C 
ENDBRANCH  18  21
ENDBRANCH   1  18
TORSDOF 3
ENDMDL
