MODEL 1
REMARK VINA RESULT:     -11.7      0.000      0.000
REMARK  Name = 44472635
REMARK  7 active torsions:
REMARK  status: ('A' for Active; 'I' for Inactive)
REMARK    1  A    between atoms: C_1  and  C_21
REMARK    2  A    between atoms: C_4  and  N_8
REMARK    3  A    between atoms: C_9  and  C_14
REMARK    4  A    between atoms: C_21  and  C_24
REMARK    5  A    between atoms: C_23  and  C_29
REMARK    6  A    between atoms: C_29  and  C_30
REMARK    7  A    between atoms: C_29  and  O_36
REMARK                            x       y       z     vdW  Elec       q    Type
REMARK                         _______ _______ _______ _____ _____    ______ ____
ROOT
ATOM      1  C   UNL     1      35.875 -20.722 -19.984  0.00  0.00    -0.024 C 
ATOM      2  C   UNL     1      34.538 -21.115 -19.933  0.00  0.00    -0.003 C 
ATOM      3  C   UNL     1      36.796 -21.269 -19.089  0.00  0.00    -0.003 C 
ATOM      4  C   UNL     1      35.043 -22.601 -18.096  0.00  0.00    +0.050 C 
ATOM      5  C   UNL     1      34.121 -22.054 -18.989  0.00  0.00    +0.014 C 
ATOM      6  C   UNL     1      36.381 -22.208 -18.147  0.00  0.00    +0.014 C 
ENDROOT
BRANCH   4   8
ATOM      7  O   UNL     1      35.312 -22.610 -15.097  0.00  0.00    -0.273 OA
ATOM      8  N   UNL     1      34.622 -23.554 -17.138  0.00  0.00    -0.283 N 
ATOM      9  C   UNL     1      34.781 -23.495 -15.761  0.00  0.00    +0.245 C 
ATOM     10  H   UNL     1      34.163 -24.351 -17.491  0.00  0.00    +0.155 HD
BRANCH   9  14
ATOM     11  O   UNL     1      36.799 -26.091 -14.813  0.00  0.00    -0.269 OA
ATOM     12  N   UNL     1      34.978 -24.960 -13.907  0.00  0.00    -0.237 N 
ATOM     13  N   UNL     1      34.804 -24.572 -11.561  0.00  0.00    -0.233 NA
ATOM     14  C   UNL     1      34.195 -24.704 -15.097  0.00  0.00    +0.158 C 
ATOM     15  C   UNL     1      32.800 -24.428 -14.554  0.00  0.00    +0.037 C 
ATOM     16  C   UNL     1      33.037 -23.859 -13.153  0.00  0.00    +0.064 C 
ATOM     17  C   UNL     1      34.340 -24.488 -12.764  0.00  0.00    +0.115 C 
ATOM     18  C   UNL     1      36.190 -25.620 -13.860  0.00  0.00    +0.256 C 
ATOM     19  C   UNL     1      36.732 -25.717 -12.480  0.00  0.00    +0.079 C 
ATOM     20  C   UNL     1      36.023 -25.201 -11.464  0.00  0.00    +0.105 C 
ENDBRANCH   9  14
ENDBRANCH   4   8
BRANCH   1  21
ATOM     21  C   UNL     1      36.320 -19.717 -20.991  0.00  0.00    +0.005 C 
BRANCH  21  24
ATOM     22  N   UNL     1      35.174 -17.722 -21.915  0.00  0.00    +0.388 N 
ATOM     23  C   UNL     1      34.275 -17.415 -23.038  0.00  0.00    -0.030 C 
ATOM     24  C   UNL     1      35.167 -19.189 -21.829  0.00  0.00    -0.057 C 
ATOM     25  C   UNL     1      34.487 -18.544 -24.047  0.00  0.00    -0.021 C 
ATOM     26  C   UNL     1      35.241 -19.627 -23.285  0.00  0.00    -0.023 C 
ATOM     27  H   UNL     1      34.825 -17.309 -21.051  0.00  0.00    -0.084 HD
ATOM     28  H   UNL     1      36.111 -17.346 -22.055  0.00  0.00    -0.084 HD
BRANCH  23  29
ATOM     29  C   UNL     1      34.553 -16.037 -23.623  0.00  0.00    +0.113 C 
BRANCH  29  30
ATOM     30  C   UNL     1      33.821 -14.943 -22.879  0.00  0.00    +0.002 C 
ATOM     31  C   UNL     1      33.302 -15.190 -21.607  0.00  0.00    -0.002 C 
ATOM     32  C   UNL     1      33.662 -13.687 -23.464  0.00  0.00    -0.002 C 
ATOM     33  C   UNL     1      32.627 -14.181 -20.922  0.00  0.00    -0.000 C 
ATOM     34  C   UNL     1      32.986 -12.678 -22.780  0.00  0.00    -0.000 C 
ATOM     35  C   UNL     1      32.469 -12.924 -21.508  0.00  0.00    -0.000 C 
ENDBRANCH  29  30
BRANCH  29  36
ATOM     36  O   UNL     1      35.954 -15.770 -23.582  0.00  0.00    -0.382 OA
ATOM     37  H   UNL     1      36.157 -15.020 -24.164  0.00  0.00    +0.211 HD
ENDBRANCH  29  36
ENDBRANCH  23  29
ENDBRANCH  21  24
ENDBRANCH   1  21
TORSDOF 7
ENDMDL
MODEL 2
REMARK VINA RESULT:     -11.6      4.150     11.974
REMARK  Name = 44472635
REMARK  7 active torsions:
REMARK  status: ('A' for Active; 'I' for Inactive)
REMARK    1  A    between atoms: C_1  and  C_21
REMARK    2  A    between atoms: C_4  and  N_8
REMARK    3  A    between atoms: C_9  and  C_14
REMARK    4  A    between atoms: C_21  and  C_24
REMARK    5  A    between atoms: C_23  and  C_29
REMARK    6  A    between atoms: C_29  and  C_30
REMARK    7  A    between atoms: C_29  and  O_36
REMARK                            x       y       z     vdW  Elec       q    Type
REMARK                         _______ _______ _______ _____ _____    ______ ____
ROOT
ATOM      1  C   UNL     1      34.619 -15.950 -23.112  0.00  0.00    -0.024 C 
ATOM      2  C   UNL     1      34.587 -15.334 -21.861  0.00  0.00    -0.003 C 
ATOM      3  C   UNL     1      33.964 -15.363 -24.195  0.00  0.00    -0.003 C 
ATOM      4  C   UNL     1      33.246 -13.544 -22.776  0.00  0.00    +0.050 C 
ATOM      5  C   UNL     1      33.900 -14.131 -21.692  0.00  0.00    +0.014 C 
ATOM      6  C   UNL     1      33.278 -14.161 -24.027  0.00  0.00    +0.014 C 
ENDROOT
BRANCH   4   8
ATOM      7  O   UNL     1      34.016 -10.732 -23.527  0.00  0.00    -0.273 OA
ATOM      8  N   UNL     1      32.549 -12.325 -22.606  0.00  0.00    -0.283 N 
ATOM      9  C   UNL     1      32.967 -11.054 -22.977  0.00  0.00    +0.245 C 
ATOM     10  H   UNL     1      31.666 -12.385 -22.174  0.00  0.00    +0.155 HD
BRANCH   9  14
ATOM     11  O   UNL     1      30.408 -11.829 -20.840  0.00  0.00    -0.269 OA
ATOM     12  N   UNL     1      31.822 -10.012 -21.181  0.00  0.00    -0.237 N 
ATOM     13  N   UNL     1      32.611  -8.698 -19.354  0.00  0.00    -0.233 NA
ATOM     14  C   UNL     1      31.939 -10.022 -22.623  0.00  0.00    +0.158 C 
ATOM     15  C   UNL     1      32.416  -8.615 -22.953  0.00  0.00    +0.037 C 
ATOM     16  C   UNL     1      33.191  -8.169 -21.711  0.00  0.00    +0.064 C 
ATOM     17  C   UNL     1      32.530  -8.954 -20.618  0.00  0.00    +0.115 C 
ATOM     18  C   UNL     1      31.081 -10.895 -20.421  0.00  0.00    +0.256 C 
ATOM     19  C   UNL     1      31.172 -10.608 -18.965  0.00  0.00    +0.079 C 
ATOM     20  C   UNL     1      31.908  -9.565 -18.552  0.00  0.00    +0.105 C 
ENDBRANCH   9  14
ENDBRANCH   4   8
BRANCH   1  21
ATOM     21  C   UNL     1      35.352 -17.236 -23.292  0.00  0.00    +0.005 C 
BRANCH  21  24
ATOM     22  N   UNL     1      34.631 -18.904 -21.604  0.00  0.00    +0.388 N 
ATOM     23  C   UNL     1      35.259 -19.717 -20.552  0.00  0.00    -0.030 C 
ATOM     24  C   UNL     1      35.658 -17.916 -21.967  0.00  0.00    -0.057 C 
ATOM     25  C   UNL     1      36.736 -19.806 -20.934  0.00  0.00    -0.021 C 
ATOM     26  C   UNL     1      36.938 -18.739 -22.003  0.00  0.00    -0.023 C 
ATOM     27  H   UNL     1      33.795 -18.440 -21.251  0.00  0.00    -0.084 HD
ATOM     28  H   UNL     1      34.333 -19.465 -22.402  0.00  0.00    -0.084 HD
BRANCH  23  29
ATOM     29  C   UNL     1      34.596 -21.081 -20.422  0.00  0.00    +0.113 C 
BRANCH  29  30
ATOM     30  C   UNL     1      34.936 -21.760 -19.115  0.00  0.00    +0.002 C 
ATOM     31  C   UNL     1      33.956 -22.469 -18.420  0.00  0.00    -0.002 C 
ATOM     32  C   UNL     1      36.231 -21.676 -18.602  0.00  0.00    -0.002 C 
ATOM     33  C   UNL     1      34.271 -23.094 -17.214  0.00  0.00    -0.000 C 
ATOM     34  C   UNL     1      36.546 -22.301 -17.396  0.00  0.00    -0.000 C 
ATOM     35  C   UNL     1      35.566 -23.011 -16.702  0.00  0.00    -0.000 C 
ENDBRANCH  29  30
BRANCH  29  36
ATOM     36  O   UNL     1      33.179 -20.939 -20.517  0.00  0.00    -0.382 OA
ATOM     37  H   UNL     1      32.924 -20.046 -20.239  0.00  0.00    +0.211 HD
ENDBRANCH  29  36
ENDBRANCH  23  29
ENDBRANCH  21  24
ENDBRANCH   1  21
TORSDOF 7
ENDMDL
MODEL 3
REMARK VINA RESULT:     -11.3      4.912      9.416
REMARK  Name = 44472635
REMARK  7 active torsions:
REMARK  status: ('A' for Active; 'I' for Inactive)
REMARK    1  A    between atoms: C_1  and  C_21
REMARK    2  A    between atoms: C_4  and  N_8
REMARK    3  A    between atoms: C_9  and  C_14
REMARK    4  A    between atoms: C_21  and  C_24
REMARK    5  A    between atoms: C_23  and  C_29
REMARK    6  A    between atoms: C_29  and  C_30
REMARK    7  A    between atoms: C_29  and  O_36
REMARK                            x       y       z     vdW  Elec       q    Type
REMARK                         _______ _______ _______ _____ _____    ______ ____
ROOT
ATOM      1  C   UNL     1      32.240 -12.688 -21.543  0.00  0.00    -0.024 C 
ATOM      2  C   UNL     1      33.023 -12.725 -22.697  0.00  0.00    -0.003 C 
ATOM      3  C   UNL     1      32.220 -13.784 -20.680  0.00  0.00    -0.003 C 
ATOM      4  C   UNL     1      33.766 -14.951 -22.124  0.00  0.00    +0.050 C 
ATOM      5  C   UNL     1      33.786 -13.856 -22.988  0.00  0.00    +0.014 C 
ATOM      6  C   UNL     1      32.983 -14.915 -20.970  0.00  0.00    +0.014 C 
ENDROOT
BRANCH   4   8
ATOM      7  O   UNL     1      35.093 -16.937 -20.290  0.00  0.00    -0.273 OA
ATOM      8  N   UNL     1      34.539 -16.099 -22.417  0.00  0.00    -0.283 N 
ATOM      9  C   UNL     1      35.127 -16.975 -21.516  0.00  0.00    +0.245 C 
ATOM     10  H   UNL     1      34.676 -16.298 -23.372  0.00  0.00    +0.155 HD
BRANCH   9  14
ATOM     11  O   UNL     1      37.806 -18.500 -20.029  0.00  0.00    -0.269 OA
ATOM     12  N   UNL     1      35.981 -19.177 -21.304  0.00  0.00    -0.237 N 
ATOM     13  N   UNL     1      34.894 -21.262 -20.902  0.00  0.00    -0.233 NA
ATOM     14  C   UNL     1      35.865 -18.069 -22.228  0.00  0.00    +0.158 C 
ATOM     15  C   UNL     1      35.049 -18.644 -23.377  0.00  0.00    +0.037 C 
ATOM     16  C   UNL     1      34.192 -19.736 -22.732  0.00  0.00    +0.064 C 
ATOM     17  C   UNL     1      35.032 -20.162 -21.566  0.00  0.00    +0.115 C 
ATOM     18  C   UNL     1      36.922 -19.304 -20.302  0.00  0.00    +0.256 C 
ATOM     19  C   UNL     1      36.767 -20.565 -19.532  0.00  0.00    +0.079 C 
ATOM     20  C   UNL     1      35.795 -21.423 -19.876  0.00  0.00    +0.105 C 
ENDBRANCH   9  14
ENDBRANCH   4   8
BRANCH   1  21
ATOM     21  C   UNL     1      31.423 -11.480 -21.234  0.00  0.00    +0.005 C 
BRANCH  21  24
ATOM     22  N   UNL     1      31.819  -9.203 -22.130  0.00  0.00    +0.388 N 
ATOM     23  C   UNL     1      32.449  -7.955 -21.671  0.00  0.00    -0.030 C 
ATOM     24  C   UNL     1      32.264 -10.216 -21.162  0.00  0.00    -0.057 C 
ATOM     25  C   UNL     1      32.457  -8.042 -20.145  0.00  0.00    -0.021 C 
ATOM     26  C   UNL     1      32.148  -9.499 -19.825  0.00  0.00    -0.023 C 
ATOM     27  H   UNL     1      32.134  -9.440 -23.070  0.00  0.00    -0.084 HD
ATOM     28  H   UNL     1      30.804  -9.130 -22.176  0.00  0.00    -0.084 HD
BRANCH  23  29
ATOM     29  C   UNL     1      31.715  -6.728 -22.192  0.00  0.00    +0.113 C 
BRANCH  29  30
ATOM     30  C   UNL     1      32.432  -6.085 -23.358  0.00  0.00    +0.002 C 
ATOM     31  C   UNL     1      33.603  -6.655 -23.858  0.00  0.00    -0.002 C 
ATOM     32  C   UNL     1      31.923  -4.921 -23.934  0.00  0.00    -0.002 C 
ATOM     33  C   UNL     1      34.264  -6.062 -24.932  0.00  0.00    -0.000 C 
ATOM     34  C   UNL     1      32.585  -4.326 -25.008  0.00  0.00    -0.000 C 
ATOM     35  C   UNL     1      33.755  -4.898 -25.508  0.00  0.00    -0.000 C 
ENDBRANCH  29  30
BRANCH  29  36
ATOM     36  O   UNL     1      30.397  -7.092 -22.601  0.00  0.00    -0.382 OA
ATOM     37  H   UNL     1      29.790  -6.356 -22.427  0.00  0.00    +0.211 HD
ENDBRANCH  29  36
ENDBRANCH  23  29
ENDBRANCH  21  24
ENDBRANCH   1  21
TORSDOF 7
ENDMDL
MODEL 4
REMARK VINA RESULT:     -11.2      1.318      1.874
REMARK  Name = 44472635
REMARK  7 active torsions:
REMARK  status: ('A' for Active; 'I' for Inactive)
REMARK    1  A    between atoms: C_1  and  C_21
REMARK    2  A    between atoms: C_4  and  N_8
REMARK    3  A    between atoms: C_9  and  C_14
REMARK    4  A    between atoms: C_21  and  C_24
REMARK    5  A    between atoms: C_23  and  C_29
REMARK    6  A    between atoms: C_29  and  C_30
REMARK    7  A    between atoms: C_29  and  O_36
REMARK                            x       y       z     vdW  Elec       q    Type
REMARK                         _______ _______ _______ _____ _____    ______ ____
ROOT
ATOM      1  C   UNL     1      36.249 -21.183 -19.351  0.00  0.00    -0.024 C 
ATOM      2  C   UNL     1      34.970 -21.736 -19.419  0.00  0.00    -0.003 C 
ATOM      3  C   UNL     1      37.087 -21.498 -18.281  0.00  0.00    -0.003 C 
ATOM      4  C   UNL     1      35.370 -22.918 -17.350  0.00  0.00    +0.050 C 
ATOM      5  C   UNL     1      34.530 -22.603 -18.419  0.00  0.00    +0.014 C 
ATOM      6  C   UNL     1      36.649 -22.365 -17.282  0.00  0.00    +0.014 C 
ENDROOT
BRANCH   4   8
ATOM      7  O   UNL     1      35.659 -22.756 -14.357  0.00  0.00    -0.273 OA
ATOM      8  N   UNL     1      34.924 -23.797 -16.335  0.00  0.00    -0.283 N 
ATOM      9  C   UNL     1      35.095 -23.662 -14.964  0.00  0.00    +0.245 C 
ATOM     10  H   UNL     1      34.437 -24.599 -16.637  0.00  0.00    +0.155 HD
BRANCH   9  14
ATOM     11  O   UNL     1      36.208 -26.855 -15.490  0.00  0.00    -0.269 OA
ATOM     12  N   UNL     1      35.555 -25.583 -13.653  0.00  0.00    -0.237 N 
ATOM     13  N   UNL     1      36.619 -25.831 -11.533  0.00  0.00    -0.233 NA
ATOM     14  C   UNL     1      34.474 -24.809 -14.226  0.00  0.00    +0.158 C 
ATOM     15  C   UNL     1      33.688 -24.338 -13.010  0.00  0.00    +0.037 C 
ATOM     16  C   UNL     1      34.725 -24.264 -11.886  0.00  0.00    +0.064 C 
ATOM     17  C   UNL     1      35.728 -25.297 -12.302  0.00  0.00    +0.115 C 
ATOM     18  C   UNL     1      36.318 -26.525 -14.315  0.00  0.00    +0.256 C 
ATOM     19  C   UNL     1      37.347 -27.141 -13.438  0.00  0.00    +0.079 C 
ATOM     20  C   UNL     1      37.421 -26.761 -12.153  0.00  0.00    +0.105 C 
ENDBRANCH   9  14
ENDBRANCH   4   8
BRANCH   1  21
ATOM     21  C   UNL     1      36.718 -20.255 -20.419  0.00  0.00    +0.005 C 
BRANCH  21  24
ATOM     22  N   UNL     1      35.609 -18.079 -20.845  0.00  0.00    +0.388 N 
ATOM     23  C   UNL     1      34.707 -17.504 -21.855  0.00  0.00    -0.030 C 
ATOM     24  C   UNL     1      35.569 -19.527 -21.097  0.00  0.00    -0.057 C 
ATOM     25  C   UNL     1      34.883 -18.376 -23.099  0.00  0.00    -0.021 C 
ATOM     26  C   UNL     1      35.620 -19.620 -22.616  0.00  0.00    -0.023 C 
ATOM     27  H   UNL     1      35.277 -17.868 -19.905  0.00  0.00    -0.084 HD
ATOM     28  H   UNL     1      36.553 -17.700 -20.909  0.00  0.00    -0.084 HD
BRANCH  23  29
ATOM     29  C   UNL     1      35.010 -16.035 -22.112  0.00  0.00    +0.113 C 
BRANCH  29  30
ATOM     30  C   UNL     1      34.314 -15.516 -23.350  0.00  0.00    +0.002 C 
ATOM     31  C   UNL     1      33.548 -14.352 -23.285  0.00  0.00    -0.002 C 
ATOM     32  C   UNL     1      34.438 -16.203 -24.558  0.00  0.00    -0.002 C 
ATOM     33  C   UNL     1      32.907 -13.875 -24.427  0.00  0.00    -0.000 C 
ATOM     34  C   UNL     1      33.796 -15.726 -25.701  0.00  0.00    -0.000 C 
ATOM     35  C   UNL     1      33.030 -14.561 -25.635  0.00  0.00    -0.000 C 
ENDBRANCH  29  30
BRANCH  29  36
ATOM     36  O   UNL     1      34.602 -15.255 -20.988  0.00  0.00    -0.382 OA
ATOM     37  H   UNL     1      33.744 -15.575 -20.667  0.00  0.00    +0.211 HD
ENDBRANCH  29  36
ENDBRANCH  23  29
ENDBRANCH  21  24
ENDBRANCH   1  21
TORSDOF 7
ENDMDL
MODEL 5
REMARK VINA RESULT:     -10.9      1.938      2.774
REMARK  Name = 44472635
REMARK  7 active torsions:
REMARK  status: ('A' for Active; 'I' for Inactive)
REMARK    1  A    between atoms: C_1  and  C_21
REMARK    2  A    between atoms: C_4  and  N_8
REMARK    3  A    between atoms: C_9  and  C_14
REMARK    4  A    between atoms: C_21  and  C_24
REMARK    5  A    between atoms: C_23  and  C_29
REMARK    6  A    between atoms: C_29  and  C_30
REMARK    7  A    between atoms: C_29  and  O_36
REMARK                            x       y       z     vdW  Elec       q    Type
REMARK                         _______ _______ _______ _____ _____    ______ ____
ROOT
ATOM      1  C   UNL     1      34.715 -21.565 -19.238  0.00  0.00    -0.024 C 
ATOM      2  C   UNL     1      34.053 -22.365 -18.306  0.00  0.00    -0.003 C 
ATOM      3  C   UNL     1      36.096 -21.385 -19.145  0.00  0.00    -0.003 C 
ATOM      4  C   UNL     1      36.151 -22.804 -17.191  0.00  0.00    +0.050 C 
ATOM      5  C   UNL     1      34.771 -22.984 -17.282  0.00  0.00    +0.014 C 
ATOM      6  C   UNL     1      36.814 -22.005 -18.123  0.00  0.00    +0.014 C 
ENDROOT
BRANCH   4   8
ATOM      7  O   UNL     1      35.602 -22.964 -14.235  0.00  0.00    -0.273 OA
ATOM      8  N   UNL     1      36.880 -23.432 -16.154  0.00  0.00    -0.283 N 
ATOM      9  C   UNL     1      36.568 -23.465 -14.802  0.00  0.00    +0.245 C 
ATOM     10  H   UNL     1      37.704 -23.900 -16.423  0.00  0.00    +0.155 HD
BRANCH   9  14
ATOM     11  O   UNL     1      37.855 -22.189 -11.899  0.00  0.00    -0.269 OA
ATOM     12  N   UNL     1      37.150 -24.276 -12.652  0.00  0.00    -0.237 N 
ATOM     13  N   UNL     1      36.058 -25.814 -11.193  0.00  0.00    -0.233 NA
ATOM     14  C   UNL     1      37.595 -24.236 -14.028  0.00  0.00    +0.158 C 
ATOM     15  C   UNL     1      37.627 -25.701 -14.437  0.00  0.00    +0.037 C 
ATOM     16  C   UNL     1      36.564 -26.369 -13.560  0.00  0.00    +0.064 C 
ATOM     17  C   UNL     1      36.553 -25.495 -12.343  0.00  0.00    +0.115 C 
ATOM     18  C   UNL     1      37.314 -23.273 -11.716  0.00  0.00    +0.256 C 
ATOM     19  C   UNL     1      36.745 -23.633 -10.391  0.00  0.00    +0.079 C 
ATOM     20  C   UNL     1      36.175 -24.837 -10.233  0.00  0.00    +0.105 C 
ENDBRANCH   9  14
ENDBRANCH   4   8
BRANCH   1  21
ATOM     21  C   UNL     1      33.948 -20.901 -20.330  0.00  0.00    +0.005 C 
BRANCH  21  24
ATOM     22  N   UNL     1      34.343 -18.788 -21.565  0.00  0.00    +0.388 N 
ATOM     23  C   UNL     1      35.488 -18.081 -22.161  0.00  0.00    -0.030 C 
ATOM     24  C   UNL     1      34.849 -20.140 -21.289  0.00  0.00    -0.057 C 
ATOM     25  C   UNL     1      36.721 -18.634 -21.446  0.00  0.00    -0.021 C 
ATOM     26  C   UNL     1      36.239 -19.887 -20.724  0.00  0.00    -0.023 C 
ATOM     27  H   UNL     1      33.562 -18.823 -22.219  0.00  0.00    -0.084 HD
ATOM     28  H   UNL     1      33.996 -18.325 -20.726  0.00  0.00    -0.084 HD
BRANCH  23  29
ATOM     29  C   UNL     1      35.350 -16.571 -22.027  0.00  0.00    +0.113 C 
BRANCH  29  30
ATOM     30  C   UNL     1      34.598 -15.961 -23.188  0.00  0.00    +0.002 C 
ATOM     31  C   UNL     1      34.569 -16.613 -24.421  0.00  0.00    -0.002 C 
ATOM     32  C   UNL     1      33.935 -14.745 -23.027  0.00  0.00    -0.002 C 
ATOM     33  C   UNL     1      33.876 -16.049 -25.491  0.00  0.00    -0.000 C 
ATOM     34  C   UNL     1      33.242 -14.180 -24.097  0.00  0.00    -0.000 C 
ATOM     35  C   UNL     1      33.212 -14.833 -25.330  0.00  0.00    -0.000 C 
ENDBRANCH  29  30
BRANCH  29  36
ATOM     36  O   UNL     1      34.669 -16.255 -20.813  0.00  0.00    -0.382 OA
ATOM     37  H   UNL     1      34.947 -15.379 -20.505  0.00  0.00    +0.211 HD
ENDBRANCH  29  36
ENDBRANCH  23  29
ENDBRANCH  21  24
ENDBRANCH   1  21
TORSDOF 7
ENDMDL
MODEL 6
REMARK VINA RESULT:     -10.8      6.053     14.906
REMARK  Name = 44472635
REMARK  7 active torsions:
REMARK  status: ('A' for Active; 'I' for Inactive)
REMARK    1  A    between atoms: C_1  and  C_21
REMARK    2  A    between atoms: C_4  and  N_8
REMARK    3  A    between atoms: C_9  and  C_14
REMARK    4  A    between atoms: C_21  and  C_24
REMARK    5  A    between atoms: C_23  and  C_29
REMARK    6  A    between atoms: C_29  and  C_30
REMARK    7  A    between atoms: C_29  and  O_36
REMARK                            x       y       z     vdW  Elec       q    Type
REMARK                         _______ _______ _______ _____ _____    ______ ____
ROOT
ATOM      1  C   UNL     1      33.688 -12.559 -23.808  0.00  0.00    -0.024 C 
ATOM      2  C   UNL     1      34.540 -11.603 -24.362  0.00  0.00    -0.003 C 
ATOM      3  C   UNL     1      32.738 -12.180 -22.859  0.00  0.00    -0.003 C 
ATOM      4  C   UNL     1      33.489  -9.890 -23.020  0.00  0.00    +0.050 C 
ATOM      5  C   UNL     1      34.440 -10.268 -23.968  0.00  0.00    +0.014 C 
ATOM      6  C   UNL     1      32.638 -10.846 -22.466  0.00  0.00    +0.014 C 
ENDROOT
BRANCH   4   8
ATOM      7  O   UNL     1      31.397  -7.818 -23.648  0.00  0.00    -0.273 OA
ATOM      8  N   UNL     1      33.388  -8.536 -22.621  0.00  0.00    -0.283 N 
ATOM      9  C   UNL     1      32.389  -7.630 -22.951  0.00  0.00    +0.245 C 
ATOM     10  H   UNL     1      34.109  -8.198 -22.042  0.00  0.00    +0.155 HD
BRANCH   9  14
ATOM     11  O   UNL     1      33.891  -5.142 -24.759  0.00  0.00    -0.269 OA
ATOM     12  N   UNL     1      32.135  -5.291 -23.238  0.00  0.00    -0.237 N 
ATOM     13  N   UNL     1      30.190  -3.927 -23.455  0.00  0.00    -0.233 NA
ATOM     14  C   UNL     1      32.645  -6.292 -22.326  0.00  0.00    +0.158 C 
ATOM     15  C   UNL     1      31.813  -6.088 -21.068  0.00  0.00    +0.037 C 
ATOM     16  C   UNL     1      30.484  -5.522 -21.573  0.00  0.00    +0.064 C 
ATOM     17  C   UNL     1      30.889  -4.820 -22.834  0.00  0.00    +0.115 C 
ATOM     18  C   UNL     1      32.784  -4.804 -24.356  0.00  0.00    +0.256 C 
ATOM     19  C   UNL     1      31.985  -3.779 -25.076  0.00  0.00    +0.079 C 
ATOM     20  C   UNL     1      30.785  -3.429 -24.590  0.00  0.00    +0.105 C 
ENDBRANCH   9  14
ENDBRANCH   4   8
BRANCH   1  21
ATOM     21  C   UNL     1      33.796 -13.986 -24.227  0.00  0.00    +0.005 C 
BRANCH  21  24
ATOM     22  N   UNL     1      34.404 -16.199 -23.289  0.00  0.00    +0.388 N 
ATOM     23  C   UNL     1      34.518 -16.816 -21.959  0.00  0.00    -0.030 C 
ATOM     24  C   UNL     1      33.678 -14.944 -23.052  0.00  0.00    -0.057 C 
ATOM     25  C   UNL     1      34.693 -15.650 -20.985  0.00  0.00    -0.021 C 
ATOM     26  C   UNL     1      34.315 -14.405 -21.779  0.00  0.00    -0.023 C 
ATOM     27  H   UNL     1      33.881 -16.803 -23.922  0.00  0.00    -0.084 HD
ATOM     28  H   UNL     1      35.313 -16.046 -23.724  0.00  0.00    -0.084 HD
BRANCH  23  29
ATOM     29  C   UNL     1      35.662 -17.817 -21.897  0.00  0.00    +0.113 C 
BRANCH  29  30
ATOM     30  C   UNL     1      35.284 -19.071 -21.142  0.00  0.00    +0.002 C 
ATOM     31  C   UNL     1      36.278 -19.884 -20.595  0.00  0.00    -0.002 C 
ATOM     32  C   UNL     1      33.941 -19.416 -20.992  0.00  0.00    -0.002 C 
ATOM     33  C   UNL     1      35.928 -21.040 -19.899  0.00  0.00    -0.000 C 
ATOM     34  C   UNL     1      33.591 -20.573 -20.296  0.00  0.00    -0.000 C 
ATOM     35  C   UNL     1      34.585 -21.385 -19.749  0.00  0.00    -0.000 C 
ENDBRANCH  29  30
BRANCH  29  36
ATOM     36  O   UNL     1      36.063 -18.174 -23.220  0.00  0.00    -0.382 OA
ATOM     37  H   UNL     1      37.008 -17.987 -23.333  0.00  0.00    +0.211 HD
ENDBRANCH  29  36
ENDBRANCH  23  29
ENDBRANCH  21  24
ENDBRANCH   1  21
TORSDOF 7
ENDMDL
MODEL 7
REMARK VINA RESULT:     -10.6      1.990      3.658
REMARK  Name = 44472635
REMARK  7 active torsions:
REMARK  status: ('A' for Active; 'I' for Inactive)
REMARK    1  A    between atoms: C_1  and  C_21
REMARK    2  A    between atoms: C_4  and  N_8
REMARK    3  A    between atoms: C_9  and  C_14
REMARK    4  A    between atoms: C_21  and  C_24
REMARK    5  A    between atoms: C_23  and  C_29
REMARK    6  A    between atoms: C_29  and  C_30
REMARK    7  A    between atoms: C_29  and  O_36
REMARK                            x       y       z     vdW  Elec       q    Type
REMARK                         _______ _______ _______ _____ _____    ______ ____
ROOT
ATOM      1  C   UNL     1      33.964 -22.480 -18.008  0.00  0.00    -0.024 C 
ATOM      2  C   UNL     1      35.303 -22.367 -17.633  0.00  0.00    -0.003 C 
ATOM      3  C   UNL     1      33.101 -23.292 -17.272  0.00  0.00    -0.003 C 
ATOM      4  C   UNL     1      34.915 -23.877 -15.787  0.00  0.00    +0.050 C 
ATOM      5  C   UNL     1      35.779 -23.066 -16.523  0.00  0.00    +0.014 C 
ATOM      6  C   UNL     1      33.575 -23.990 -16.162  0.00  0.00    +0.014 C 
ENDROOT
BRANCH   4   8
ATOM      7  O   UNL     1      33.906 -23.959 -12.952  0.00  0.00    -0.273 OA
ATOM      8  N   UNL     1      35.396 -24.585 -14.661  0.00  0.00    -0.283 N 
ATOM      9  C   UNL     1      34.880 -24.576 -13.373  0.00  0.00    +0.245 C 
ATOM     10  H   UNL     1      36.190 -25.150 -14.809  0.00  0.00    +0.155 HD
BRANCH   9  14
ATOM     11  O   UNL     1      36.489 -27.327 -14.621  0.00  0.00    -0.269 OA
ATOM     12  N   UNL     1      36.973 -25.650 -13.080  0.00  0.00    -0.237 N 
ATOM     13  N   UNL     1      39.180 -24.776 -12.854  0.00  0.00    -0.233 NA
ATOM     14  C   UNL     1      35.677 -25.462 -12.464  0.00  0.00    +0.158 C 
ATOM     15  C   UNL     1      36.004 -24.771 -11.148  0.00  0.00    +0.037 C 
ATOM     16  C   UNL     1      37.300 -24.005 -11.426  0.00  0.00    +0.064 C 
ATOM     17  C   UNL     1      37.937 -24.828 -12.505  0.00  0.00    +0.115 C 
ATOM     18  C   UNL     1      37.271 -26.549 -14.086  0.00  0.00    +0.256 C 
ATOM     19  C   UNL     1      38.698 -26.493 -14.495  0.00  0.00    +0.079 C 
ATOM     20  C   UNL     1      39.521 -25.637 -13.870  0.00  0.00    +0.105 C 
ENDBRANCH   9  14
ENDBRANCH   4   8
BRANCH   1  21
ATOM     21  C   UNL     1      33.456 -21.735 -19.196  0.00  0.00    +0.005 C 
BRANCH  21  24
ATOM     22  N   UNL     1      34.375 -19.995 -20.703  0.00  0.00    +0.388 N 
ATOM     23  C   UNL     1      35.685 -19.632 -21.265  0.00  0.00    -0.030 C 
ATOM     24  C   UNL     1      34.571 -21.343 -20.152  0.00  0.00    -0.057 C 
ATOM     25  C   UNL     1      36.716 -20.262 -20.328  0.00  0.00    -0.021 C 
ATOM     26  C   UNL     1      35.931 -21.251 -19.474  0.00  0.00    -0.023 C 
ATOM     27  H   UNL     1      33.661 -20.004 -21.431  0.00  0.00    -0.084 HD
ATOM     28  H   UNL     1      34.058 -19.329 -19.999  0.00  0.00    -0.084 HD
BRANCH  23  29
ATOM     29  C   UNL     1      35.845 -18.125 -21.397  0.00  0.00    +0.113 C 
BRANCH  29  30
ATOM     30  C   UNL     1      35.262 -17.599 -22.688  0.00  0.00    +0.002 C 
ATOM     31  C   UNL     1      35.098 -16.226 -22.873  0.00  0.00    -0.002 C 
ATOM     32  C   UNL     1      34.885 -18.487 -23.696  0.00  0.00    -0.002 C 
ATOM     33  C   UNL     1      34.559 -15.742 -24.064  0.00  0.00    -0.000 C 
ATOM     34  C   UNL     1      34.345 -18.003 -24.888  0.00  0.00    -0.000 C 
ATOM     35  C   UNL     1      34.182 -16.630 -25.072  0.00  0.00    -0.000 C 
ENDBRANCH  29  30
BRANCH  29  36
ATOM     36  O   UNL     1      35.207 -17.474 -20.298  0.00  0.00    -0.382 OA
ATOM     37  H   UNL     1      34.540 -16.855 -20.633  0.00  0.00    +0.211 HD
ENDBRANCH  29  36
ENDBRANCH  23  29
ENDBRANCH  21  24
ENDBRANCH   1  21
TORSDOF 7
ENDMDL
MODEL 8
REMARK VINA RESULT:     -10.5      6.013     13.948
REMARK  Name = 44472635
REMARK  7 active torsions:
REMARK  status: ('A' for Active; 'I' for Inactive)
REMARK    1  A    between atoms: C_1  and  C_21
REMARK    2  A    between atoms: C_4  and  N_8
REMARK    3  A    between atoms: C_9  and  C_14
REMARK    4  A    between atoms: C_21  and  C_24
REMARK    5  A    between atoms: C_23  and  C_29
REMARK    6  A    between atoms: C_29  and  C_30
REMARK    7  A    between atoms: C_29  and  O_36
REMARK                            x       y       z     vdW  Elec       q    Type
REMARK                         _______ _______ _______ _____ _____    ______ ____
ROOT
ATOM      1  C   UNL     1      33.648 -13.711 -24.828  0.00  0.00    -0.024 C 
ATOM      2  C   UNL     1      33.202 -13.502 -23.523  0.00  0.00    -0.003 C 
ATOM      3  C   UNL     1      34.208 -12.657 -25.551  0.00  0.00    -0.003 C 
ATOM      4  C   UNL     1      33.876 -11.186 -23.664  0.00  0.00    +0.050 C 
ATOM      5  C   UNL     1      33.315 -12.239 -22.941  0.00  0.00    +0.014 C 
ATOM      6  C   UNL     1      34.322 -11.396 -24.969  0.00  0.00    +0.014 C 
ENDROOT
BRANCH   4   8
ATOM      7  O   UNL     1      31.831  -9.004 -23.310  0.00  0.00    -0.273 OA
ATOM      8  N   UNL     1      33.992  -9.905 -23.074  0.00  0.00    -0.283 N 
ATOM      9  C   UNL     1      33.002  -8.942 -22.945  0.00  0.00    +0.245 C 
ATOM     10  H   UNL     1      34.878  -9.671 -22.713  0.00  0.00    +0.155 HD
BRANCH   9  14
ATOM     11  O   UNL     1      33.954  -6.213 -24.778  0.00  0.00    -0.269 OA
ATOM     12  N   UNL     1      32.798  -6.584 -22.792  0.00  0.00    -0.237 N 
ATOM     13  N   UNL     1      30.972  -5.194 -22.143  0.00  0.00    -0.233 NA
ATOM     14  C   UNL     1      33.526  -7.716 -22.259  0.00  0.00    +0.158 C 
ATOM     15  C   UNL     1      33.172  -7.704 -20.779  0.00  0.00    +0.037 C 
ATOM     16  C   UNL     1      31.784  -7.060 -20.719  0.00  0.00    +0.064 C 
ATOM     17  C   UNL     1      31.786  -6.175 -21.928  0.00  0.00    +0.115 C 
ATOM     18  C   UNL     1      33.065  -5.936 -23.981  0.00  0.00    +0.256 C 
ATOM     19  C   UNL     1      32.131  -4.808 -24.236  0.00  0.00    +0.079 C 
ATOM     20  C   UNL     1      31.182  -4.531 -23.329  0.00  0.00    +0.105 C 
ENDBRANCH   9  14
ENDBRANCH   4   8
BRANCH   1  21
ATOM     21  C   UNL     1      33.524 -15.060 -25.452  0.00  0.00    +0.005 C 
BRANCH  21  24
ATOM     22  N   UNL     1      34.404 -15.997 -23.332  0.00  0.00    +0.388 N 
ATOM     23  C   UNL     1      35.002 -17.260 -22.873  0.00  0.00    -0.030 C 
ATOM     24  C   UNL     1      34.437 -16.085 -24.798  0.00  0.00    -0.057 C 
ATOM     25  C   UNL     1      34.556 -18.312 -23.889  0.00  0.00    -0.021 C 
ATOM     26  C   UNL     1      34.013 -17.521 -25.073  0.00  0.00    -0.023 C 
ATOM     27  H   UNL     1      34.952 -15.200 -23.006  0.00  0.00    -0.084 HD
ATOM     28  H   UNL     1      33.460 -15.862 -22.972  0.00  0.00    -0.084 HD
BRANCH  23  29
ATOM     29  C   UNL     1      34.586 -17.597 -21.448  0.00  0.00    +0.113 C 
BRANCH  29  30
ATOM     30  C   UNL     1      35.234 -18.868 -20.949  0.00  0.00    +0.002 C 
ATOM     31  C   UNL     1      34.444 -19.963 -20.599  0.00  0.00    -0.002 C 
ATOM     32  C   UNL     1      36.622 -18.947 -20.839  0.00  0.00    -0.002 C 
ATOM     33  C   UNL     1      35.042 -21.136 -20.138  0.00  0.00    -0.000 C 
ATOM     34  C   UNL     1      37.221 -20.119 -20.378  0.00  0.00    -0.000 C 
ATOM     35  C   UNL     1      36.430 -21.214 -20.028  0.00  0.00    -0.000 C 
ENDBRANCH  29  30
BRANCH  29  36
ATOM     36  O   UNL     1      34.938 -16.522 -20.577  0.00  0.00    -0.382 OA
ATOM     37  H   UNL     1      35.903 -16.483 -20.486  0.00  0.00    +0.211 HD
ENDBRANCH  29  36
ENDBRANCH  23  29
ENDBRANCH  21  24
ENDBRANCH   1  21
TORSDOF 7
ENDMDL
MODEL 9
REMARK VINA RESULT:     -10.5      1.931     11.761
REMARK  Name = 44472635
REMARK  7 active torsions:
REMARK  status: ('A' for Active; 'I' for Inactive)
REMARK    1  A    between atoms: C_1  and  C_21
REMARK    2  A    between atoms: C_4  and  N_8
REMARK    3  A    between atoms: C_9  and  C_14
REMARK    4  A    between atoms: C_21  and  C_24
REMARK    5  A    between atoms: C_23  and  C_29
REMARK    6  A    between atoms: C_29  and  C_30
REMARK    7  A    between atoms: C_29  and  O_36
REMARK                            x       y       z     vdW  Elec       q    Type
REMARK                         _______ _______ _______ _____ _____    ______ ____
ROOT
ATOM      1  C   UNL     1      35.163 -21.181 -19.896  0.00  0.00    -0.024 C 
ATOM      2  C   UNL     1      36.411 -20.582 -20.074  0.00  0.00    -0.003 C 
ATOM      3  C   UNL     1      34.010 -20.537 -20.344  0.00  0.00    -0.003 C 
ATOM      4  C   UNL     1      35.351 -18.695 -21.148  0.00  0.00    +0.050 C 
ATOM      5  C   UNL     1      36.505 -19.339 -20.700  0.00  0.00    +0.014 C 
ATOM      6  C   UNL     1      34.104 -19.294 -20.970  0.00  0.00    +0.014 C 
ENDROOT
BRANCH   4   8
ATOM      7  O   UNL     1      33.616 -16.247 -20.902  0.00  0.00    -0.273 OA
ATOM      8  N   UNL     1      35.446 -17.434 -21.784  0.00  0.00    -0.283 N 
ATOM      9  C   UNL     1      34.604 -16.342 -21.624  0.00  0.00    +0.245 C 
ATOM     10  H   UNL     1      36.196 -17.319 -22.412  0.00  0.00    +0.155 HD
BRANCH   9  14
ATOM     11  O   UNL     1      35.413 -16.840 -24.912  0.00  0.00    -0.269 OA
ATOM     12  N   UNL     1      34.257 -15.231 -23.689  0.00  0.00    -0.237 N 
ATOM     13  N   UNL     1      32.343 -14.130 -24.590  0.00  0.00    -0.233 NA
ATOM     14  C   UNL     1      35.045 -15.191 -22.476  0.00  0.00    +0.158 C 
ATOM     15  C   UNL     1      34.673 -13.853 -21.852  0.00  0.00    +0.037 C 
ATOM     16  C   UNL     1      33.248 -13.582 -22.343  0.00  0.00    +0.064 C 
ATOM     17  C   UNL     1      33.212 -14.313 -23.650  0.00  0.00    +0.115 C 
ATOM     18  C   UNL     1      34.499 -16.033 -24.787  0.00  0.00    +0.256 C 
ATOM     19  C   UNL     1      33.502 -15.830 -25.871  0.00  0.00    +0.079 C 
ATOM     20  C   UNL     1      32.528 -14.924 -25.697  0.00  0.00    +0.105 C 
ENDBRANCH   9  14
ENDBRANCH   4   8
BRANCH   1  21
ATOM     21  C   UNL     1      35.062 -22.509 -19.225  0.00  0.00    +0.005 C 
BRANCH  21  24
ATOM     22  N   UNL     1      34.598 -23.557 -17.026  0.00  0.00    +0.388 N 
ATOM     23  C   UNL     1      35.147 -23.498 -15.663  0.00  0.00    -0.030 C 
ATOM     24  C   UNL     1      35.198 -22.405 -17.714  0.00  0.00    -0.057 C 
ATOM     25  C   UNL     1      36.576 -22.977 -15.823  0.00  0.00    -0.021 C 
ATOM     26  C   UNL     1      36.646 -22.430 -17.244  0.00  0.00    -0.023 C 
ATOM     27  H   UNL     1      33.582 -23.476 -17.009  0.00  0.00    -0.084 HD
ATOM     28  H   UNL     1      34.809 -24.439 -17.491  0.00  0.00    -0.084 HD
BRANCH  23  29
ATOM     29  C   UNL     1      35.084 -24.852 -14.970  0.00  0.00    +0.113 C 
BRANCH  29  30
ATOM     30  C   UNL     1      36.340 -25.151 -14.184  0.00  0.00    +0.002 C 
ATOM     31  C   UNL     1      37.231 -26.125 -14.635  0.00  0.00    -0.002 C 
ATOM     32  C   UNL     1      36.608 -24.453 -13.006  0.00  0.00    -0.002 C 
ATOM     33  C   UNL     1      38.389 -26.400 -13.909  0.00  0.00    -0.000 C 
ATOM     34  C   UNL     1      37.766 -24.729 -12.279  0.00  0.00    -0.000 C 
ATOM     35  C   UNL     1      38.657 -25.702 -12.731  0.00  0.00    -0.000 C 
ENDBRANCH  29  30
BRANCH  29  36
ATOM     36  O   UNL     1      33.962 -24.890 -14.088  0.00  0.00    -0.382 OA
ATOM     37  H   UNL     1      33.907 -25.765 -13.673  0.00  0.00    +0.211 HD
ENDBRANCH  29  36
ENDBRANCH  23  29
ENDBRANCH  21  24
ENDBRANCH   1  21
TORSDOF 7
ENDMDL
