MODEL 1
REMARK VINA RESULT:     -11.7      0.000      0.000
REMARK  Name = 10267580
REMARK  2 active torsions:
REMARK  status: ('A' for Active; 'I' for Inactive)
REMARK    1  A    between atoms: N_1  and  C_21
REMARK    2  A    between atoms: C_7  and  C_14
REMARK                            x       y       z     vdW  Elec       q    Type
REMARK                         _______ _______ _______ _____ _____    ______ ____
ROOT
ATOM      1  N   UNL     1      35.921 -23.692 -16.307  0.00  0.00    -0.290 N 
ATOM      2  N   UNL     1      33.571 -23.623 -16.229  0.00  0.00    -0.327 NA
ATOM      3  N   UNL     1      32.320 -22.416 -17.898  0.00  0.00    -0.342 NA
ATOM      4  C   UNL     1      34.715 -22.461 -18.013  0.00  0.00    +0.143 C 
ATOM      5  C   UNL     1      34.697 -23.246 -16.864  0.00  0.00    +0.184 C 
ATOM      6  C   UNL     1      33.464 -22.057 -18.508  0.00  0.00    +0.133 C 
ATOM      7  C   UNL     1      32.435 -23.178 -16.793  0.00  0.00    +0.165 C 
ATOM      8  C   UNL     1      35.905 -22.080 -18.658  0.00  0.00    -0.011 C 
ATOM      9  C   UNL     1      33.443 -21.270 -19.656  0.00  0.00    +0.029 C 
ATOM     10  C   UNL     1      35.854 -21.292 -19.804  0.00  0.00    -0.004 C 
ATOM     11  C   UNL     1      34.621 -20.887 -20.303  0.00  0.00    +0.002 C 
ATOM     12  H   UNL     1      36.688 -23.728 -16.924  0.00  0.00    +0.154 HD
ENDROOT
BRANCH   7  14
ATOM     13  N   UNL     1      30.085 -23.025 -16.686  0.00  0.00    -0.398 NA
ATOM     14  C   UNL     1      31.206 -23.558 -16.146  0.00  0.00    +0.197 C 
ATOM     15  C   UNL     1      31.206 -24.409 -15.049  0.00  0.00    +0.098 C 
ATOM     16  C   UNL     1      28.914 -23.362 -16.099  0.00  0.00    +0.110 C 
ATOM     17  C   UNL     1      29.982 -24.732 -14.473  0.00  0.00    -0.016 C 
ATOM     18  C   UNL     1      28.810 -24.203 -15.003  0.00  0.00    +0.023 C 
ATOM     19  C   UNL     1      27.677 -22.777 -16.693  0.00  0.00    +0.066 C 
ENDBRANCH   7  14
BRANCH   1  21
ATOM     20  N   UNL     1      36.697 -24.873 -12.347  0.00  0.00    -0.242 NA
ATOM     21  C   UNL     1      36.176 -24.079 -15.005  0.00  0.00    +0.053 C 
ATOM     22  C   UNL     1      36.184 -25.436 -14.641  0.00  0.00    +0.035 C 
ATOM     23  C   UNL     1      36.436 -23.132 -14.003  0.00  0.00    +0.035 C 
ATOM     24  C   UNL     1      36.445 -25.774 -13.323  0.00  0.00    +0.100 C 
ATOM     25  C   UNL     1      36.685 -23.572 -12.713  0.00  0.00    +0.100 C 
ENDBRANCH   1  21
TORSDOF 2
ENDMDL
MODEL 2
REMARK VINA RESULT:     -11.2      1.464      6.755
REMARK  Name = 10267580
REMARK  2 active torsions:
REMARK  status: ('A' for Active; 'I' for Inactive)
REMARK    1  A    between atoms: N_1  and  C_21
REMARK    2  A    between atoms: C_7  and  C_14
REMARK                            x       y       z     vdW  Elec       q    Type
REMARK                         _______ _______ _______ _____ _____    ______ ____
ROOT
ATOM      1  N   UNL     1      32.691 -22.629 -18.180  0.00  0.00    -0.290 N 
ATOM      2  N   UNL     1      34.210 -23.463 -16.589  0.00  0.00    -0.327 NA
ATOM      3  N   UNL     1      33.432 -24.306 -14.471  0.00  0.00    -0.342 NA
ATOM      4  C   UNL     1      31.851 -23.465 -16.065  0.00  0.00    +0.143 C 
ATOM      5  C   UNL     1      32.928 -23.203 -16.907  0.00  0.00    +0.184 C 
ATOM      6  C   UNL     1      32.162 -24.034 -14.819  0.00  0.00    +0.133 C 
ATOM      7  C   UNL     1      34.386 -24.006 -15.373  0.00  0.00    +0.165 C 
ATOM      8  C   UNL     1      30.519 -23.183 -16.419  0.00  0.00    -0.011 C 
ATOM      9  C   UNL     1      31.110 -24.310 -13.950  0.00  0.00    +0.029 C 
ATOM     10  C   UNL     1      29.488 -23.470 -15.530  0.00  0.00    -0.004 C 
ATOM     11  C   UNL     1      29.784 -24.033 -14.294  0.00  0.00    +0.002 C 
ATOM     12  H   UNL     1      31.788 -22.761 -18.551  0.00  0.00    +0.154 HD
ENDROOT
BRANCH   7  14
ATOM     13  N   UNL     1      35.887 -25.340 -14.138  0.00  0.00    -0.398 NA
ATOM     14  C   UNL     1      35.743 -24.300 -14.993  0.00  0.00    +0.197 C 
ATOM     15  C   UNL     1      36.805 -23.553 -15.484  0.00  0.00    +0.098 C 
ATOM     16  C   UNL     1      37.151 -25.641 -13.761  0.00  0.00    +0.110 C 
ATOM     17  C   UNL     1      38.089 -23.893 -15.073  0.00  0.00    -0.016 C 
ATOM     18  C   UNL     1      38.274 -24.955 -14.196  0.00  0.00    +0.023 C 
ATOM     19  C   UNL     1      37.311 -26.786 -12.819  0.00  0.00    +0.066 C 
ENDBRANCH   7  14
BRANCH   1  21
ATOM     20  N   UNL     1      35.353 -20.427 -20.577  0.00  0.00    -0.242 NA
ATOM     21  C   UNL     1      33.567 -21.905 -18.968  0.00  0.00    +0.053 C 
ATOM     22  C   UNL     1      33.099 -20.926 -19.860  0.00  0.00    +0.035 C 
ATOM     23  C   UNL     1      34.951 -22.125 -18.903  0.00  0.00    +0.035 C 
ATOM     24  C   UNL     1      34.017 -20.228 -20.628  0.00  0.00    +0.100 C 
ATOM     25  C   UNL     1      35.787 -21.373 -19.714  0.00  0.00    +0.100 C 
ENDBRANCH   1  21
TORSDOF 2
ENDMDL
MODEL 3
REMARK VINA RESULT:     -10.4      1.426      6.541
REMARK  Name = 10267580
REMARK  2 active torsions:
REMARK  status: ('A' for Active; 'I' for Inactive)
REMARK    1  A    between atoms: N_1  and  C_21
REMARK    2  A    between atoms: C_7  and  C_14
REMARK                            x       y       z     vdW  Elec       q    Type
REMARK                         _______ _______ _______ _____ _____    ______ ____
ROOT
ATOM      1  N   UNL     1      32.540 -22.707 -18.100  0.00  0.00    -0.290 N 
ATOM      2  N   UNL     1      33.873 -23.518 -16.339  0.00  0.00    -0.327 NA
ATOM      3  N   UNL     1      32.872 -24.240 -14.270  0.00  0.00    -0.342 NA
ATOM      4  C   UNL     1      31.477 -23.419 -16.040  0.00  0.00    +0.143 C 
ATOM      5  C   UNL     1      32.636 -23.231 -16.787  0.00  0.00    +0.184 C 
ATOM      6  C   UNL     1      31.650 -23.943 -14.748  0.00  0.00    +0.133 C 
ATOM      7  C   UNL     1      33.916 -24.012 -15.091  0.00  0.00    +0.165 C 
ATOM      8  C   UNL     1      30.195 -23.111 -16.530  0.00  0.00    -0.011 C 
ATOM      9  C   UNL     1      30.513 -24.145 -13.971  0.00  0.00    +0.029 C 
ATOM     10  C   UNL     1      29.076 -23.323 -15.731  0.00  0.00    -0.004 C 
ATOM     11  C   UNL     1      29.235 -23.841 -14.451  0.00  0.00    +0.002 C 
ATOM     12  H   UNL     1      31.671 -22.825 -18.548  0.00  0.00    +0.154 HD
ENDROOT
BRANCH   7  14
ATOM     13  N   UNL     1      36.260 -23.862 -15.300  0.00  0.00    -0.398 NA
ATOM     14  C   UNL     1      35.220 -24.333 -14.572  0.00  0.00    +0.197 C 
ATOM     15  C   UNL     1      35.366 -25.074 -13.407  0.00  0.00    +0.098 C 
ATOM     16  C   UNL     1      37.498 -24.149 -14.839  0.00  0.00    +0.110 C 
ATOM     17  C   UNL     1      36.656 -25.348 -12.965  0.00  0.00    -0.016 C 
ATOM     18  C   UNL     1      37.747 -24.880 -13.688  0.00  0.00    +0.023 C 
ATOM     19  C   UNL     1      38.645 -23.631 -15.640  0.00  0.00    +0.066 C 
ENDBRANCH   7  14
BRANCH   1  21
ATOM     20  N   UNL     1      35.496 -20.704 -20.320  0.00  0.00    -0.242 NA
ATOM     21  C   UNL     1      33.511 -22.048 -18.830  0.00  0.00    +0.053 C 
ATOM     22  C   UNL     1      34.871 -22.373 -18.687  0.00  0.00    +0.035 C 
ATOM     23  C   UNL     1      33.173 -21.033 -19.738  0.00  0.00    +0.035 C 
ATOM     24  C   UNL     1      35.806 -21.684 -19.441  0.00  0.00    +0.100 C 
ATOM     25  C   UNL     1      34.184 -20.403 -20.446  0.00  0.00    +0.100 C 
ENDBRANCH   1  21
TORSDOF 2
ENDMDL
MODEL 4
REMARK VINA RESULT:     -10.3      1.466      2.200
REMARK  Name = 10267580
REMARK  2 active torsions:
REMARK  status: ('A' for Active; 'I' for Inactive)
REMARK    1  A    between atoms: N_1  and  C_21
REMARK    2  A    between atoms: C_7  and  C_14
REMARK                            x       y       z     vdW  Elec       q    Type
REMARK                         _______ _______ _______ _____ _____    ______ ____
ROOT
ATOM      1  N   UNL     1      36.359 -23.876 -14.082  0.00  0.00    -0.290 N 
ATOM      2  N   UNL     1      34.064 -24.131 -14.535  0.00  0.00    -0.327 NA
ATOM      3  N   UNL     1      33.135 -23.391 -16.631  0.00  0.00    -0.342 NA
ATOM      4  C   UNL     1      35.479 -23.113 -16.209  0.00  0.00    +0.143 C 
ATOM      5  C   UNL     1      35.265 -23.702 -14.967  0.00  0.00    +0.184 C 
ATOM      6  C   UNL     1      34.349 -22.974 -17.032  0.00  0.00    +0.133 C 
ATOM      7  C   UNL     1      33.058 -23.947 -15.406  0.00  0.00    +0.165 C 
ATOM      8  C   UNL     1      36.744 -22.672 -16.638  0.00  0.00    -0.011 C 
ATOM      9  C   UNL     1      34.524 -22.388 -18.283  0.00  0.00    +0.029 C 
ATOM     10  C   UNL     1      36.889 -22.090 -17.893  0.00  0.00    -0.004 C 
ATOM     11  C   UNL     1      35.778 -21.948 -18.716  0.00  0.00    +0.002 C 
ATOM     12  H   UNL     1      37.251 -23.899 -14.499  0.00  0.00    +0.154 HD
ENDROOT
BRANCH   7  14
ATOM     13  N   UNL     1      30.737 -24.049 -15.809  0.00  0.00    -0.398 NA
ATOM     14  C   UNL     1      31.755 -24.391 -14.984  0.00  0.00    +0.197 C 
ATOM     15  C   UNL     1      31.588 -25.115 -13.812  0.00  0.00    +0.098 C 
ATOM     16  C   UNL     1      29.500 -24.451 -15.439  0.00  0.00    +0.110 C 
ATOM     17  C   UNL     1      30.301 -25.511 -13.466  0.00  0.00    -0.016 C 
ATOM     18  C   UNL     1      29.232 -25.177 -14.290  0.00  0.00    +0.023 C 
ATOM     19  C   UNL     1      28.377 -24.075 -16.347  0.00  0.00    +0.066 C 
ENDBRANCH   7  14
BRANCH   1  21
ATOM     20  N   UNL     1      36.279 -24.294  -9.899  0.00  0.00    -0.242 NA
ATOM     21  C   UNL     1      36.332 -24.014 -12.707  0.00  0.00    +0.053 C 
ATOM     22  C   UNL     1      37.093 -23.171 -11.880  0.00  0.00    +0.035 C 
ATOM     23  C   UNL     1      35.544 -24.999 -12.092  0.00  0.00    +0.035 C 
ATOM     24  C   UNL     1      37.033 -23.350 -10.507  0.00  0.00    +0.100 C 
ATOM     25  C   UNL     1      35.553 -25.096 -10.709  0.00  0.00    +0.100 C 
ENDBRANCH   1  21
TORSDOF 2
ENDMDL
MODEL 5
REMARK VINA RESULT:     -10.2      1.694      6.492
REMARK  Name = 10267580
REMARK  2 active torsions:
REMARK  status: ('A' for Active; 'I' for Inactive)
REMARK    1  A    between atoms: N_1  and  C_21
REMARK    2  A    between atoms: C_7  and  C_14
REMARK                            x       y       z     vdW  Elec       q    Type
REMARK                         _______ _______ _______ _____ _____    ______ ____
ROOT
ATOM      1  N   UNL     1      32.911 -24.951 -13.414  0.00  0.00    -0.290 N 
ATOM      2  N   UNL     1      34.224 -23.873 -15.042  0.00  0.00    -0.327 NA
ATOM      3  N   UNL     1      36.520 -23.302 -14.589  0.00  0.00    -0.342 NA
ATOM      4  C   UNL     1      35.217 -24.401 -12.903  0.00  0.00    +0.143 C 
ATOM      5  C   UNL     1      34.153 -24.390 -13.801  0.00  0.00    +0.184 C 
ATOM      6  C   UNL     1      36.417 -23.828 -13.356  0.00  0.00    +0.133 C 
ATOM      7  C   UNL     1      35.419 -23.353 -15.365  0.00  0.00    +0.165 C 
ATOM      8  C   UNL     1      35.119 -24.947 -11.610  0.00  0.00    -0.011 C 
ATOM      9  C   UNL     1      37.502 -23.820 -12.484  0.00  0.00    +0.029 C 
ATOM     10  C   UNL     1      36.221 -24.925 -10.761  0.00  0.00    -0.004 C 
ATOM     11  C   UNL     1      37.413 -24.361 -11.198  0.00  0.00    +0.002 C 
ATOM     12  H   UNL     1      32.946 -25.618 -12.689  0.00  0.00    +0.154 HD
ENDROOT
BRANCH   7  14
ATOM     13  N   UNL     1      34.385 -22.734 -17.391  0.00  0.00    -0.398 NA
ATOM     14  C   UNL     1      35.538 -22.788 -16.684  0.00  0.00    +0.197 C 
ATOM     15  C   UNL     1      36.761 -22.340 -17.165  0.00  0.00    +0.098 C 
ATOM     16  C   UNL     1      34.465 -22.210 -18.635  0.00  0.00    +0.110 C 
ATOM     17  C   UNL     1      36.802 -21.807 -18.449  0.00  0.00    -0.016 C 
ATOM     18  C   UNL     1      35.637 -21.737 -19.204  0.00  0.00    +0.023 C 
ATOM     19  C   UNL     1      33.196 -22.149 -19.417  0.00  0.00    +0.066 C 
ENDBRANCH   7  14
BRANCH   1  21
ATOM     20  N   UNL     1      29.091 -24.127 -14.964  0.00  0.00    -0.242 NA
ATOM     21  C   UNL     1      31.655 -24.679 -13.923  0.00  0.00    +0.053 C 
ATOM     22  C   UNL     1      30.731 -25.710 -14.161  0.00  0.00    +0.035 C 
ATOM     23  C   UNL     1      31.261 -23.365 -14.220  0.00  0.00    +0.035 C 
ATOM     24  C   UNL     1      29.485 -25.387 -14.673  0.00  0.00    +0.100 C 
ATOM     25  C   UNL     1      29.991 -23.146 -14.730  0.00  0.00    +0.100 C 
ENDBRANCH   1  21
TORSDOF 2
ENDMDL
MODEL 6
REMARK VINA RESULT:     -10.1      1.710      6.688
REMARK  Name = 10267580
REMARK  2 active torsions:
REMARK  status: ('A' for Active; 'I' for Inactive)
REMARK    1  A    between atoms: N_1  and  C_21
REMARK    2  A    between atoms: C_7  and  C_14
REMARK                            x       y       z     vdW  Elec       q    Type
REMARK                         _______ _______ _______ _____ _____    ______ ____
ROOT
ATOM      1  N   UNL     1      33.525 -23.483 -17.077  0.00  0.00    -0.290 N 
ATOM      2  N   UNL     1      34.646 -23.912 -15.053  0.00  0.00    -0.327 NA
ATOM      3  N   UNL     1      33.421 -24.560 -13.083  0.00  0.00    -0.342 NA
ATOM      4  C   UNL     1      32.240 -24.132 -15.126  0.00  0.00    +0.143 C 
ATOM      5  C   UNL     1      33.472 -23.853 -15.710  0.00  0.00    +0.184 C 
ATOM      6  C   UNL     1      32.266 -24.492 -13.768  0.00  0.00    +0.133 C 
ATOM      7  C   UNL     1      34.547 -24.267 -13.762  0.00  0.00    +0.165 C 
ATOM      8  C   UNL     1      31.027 -24.063 -15.833  0.00  0.00    -0.011 C 
ATOM      9  C   UNL     1      31.052 -24.778 -13.149  0.00  0.00    +0.029 C 
ATOM     10  C   UNL     1      29.828 -24.354 -15.188  0.00  0.00    -0.004 C 
ATOM     11  C   UNL     1      29.841 -24.711 -13.845  0.00  0.00    +0.002 C 
ATOM     12  H   UNL     1      32.763 -23.770 -17.631  0.00  0.00    +0.154 HD
ENDROOT
BRANCH   7  14
ATOM     13  N   UNL     1      36.811 -24.921 -13.680  0.00  0.00    -0.398 NA
ATOM     14  C   UNL     1      35.780 -24.343 -13.021  0.00  0.00    +0.197 C 
ATOM     15  C   UNL     1      35.870 -23.849 -11.727  0.00  0.00    +0.098 C 
ATOM     16  C   UNL     1      37.982 -25.008 -13.010  0.00  0.00    +0.110 C 
ATOM     17  C   UNL     1      37.092 -23.957 -11.070  0.00  0.00    -0.016 C 
ATOM     18  C   UNL     1      38.172 -24.546 -11.717  0.00  0.00    +0.023 C 
ATOM     19  C   UNL     1      39.120 -25.645 -13.735  0.00  0.00    +0.066 C 
ENDBRANCH   7  14
BRANCH   1  21
ATOM     20  N   UNL     1      36.521 -21.306 -19.068  0.00  0.00    -0.242 NA
ATOM     21  C   UNL     1      34.511 -22.767 -17.731  0.00  0.00    +0.053 C 
ATOM     22  C   UNL     1      34.268 -22.178 -18.983  0.00  0.00    +0.035 C 
ATOM     23  C   UNL     1      35.786 -22.606 -17.167  0.00  0.00    +0.035 C 
ATOM     24  C   UNL     1      35.288 -21.471 -19.598  0.00  0.00    +0.100 C 
ATOM     25  C   UNL     1      36.739 -21.880 -17.863  0.00  0.00    +0.100 C 
ENDBRANCH   1  21
TORSDOF 2
ENDMDL
MODEL 7
REMARK VINA RESULT:      -9.9      1.336      5.220
REMARK  Name = 10267580
REMARK  2 active torsions:
REMARK  status: ('A' for Active; 'I' for Inactive)
REMARK    1  A    between atoms: N_1  and  C_21
REMARK    2  A    between atoms: C_7  and  C_14
REMARK                            x       y       z     vdW  Elec       q    Type
REMARK                         _______ _______ _______ _____ _____    ______ ____
ROOT
ATOM      1  N   UNL     1      34.358 -24.328 -14.169  0.00  0.00    -0.290 N 
ATOM      2  N   UNL     1      33.915 -23.251 -16.213  0.00  0.00    -0.327 NA
ATOM      3  N   UNL     1      31.671 -23.141 -17.084  0.00  0.00    -0.342 NA
ATOM      4  C   UNL     1      32.080 -24.248 -14.997  0.00  0.00    +0.143 C 
ATOM      5  C   UNL     1      33.425 -23.929 -15.158  0.00  0.00    +0.184 C 
ATOM      6  C   UNL     1      31.214 -23.820 -16.017  0.00  0.00    +0.133 C 
ATOM      7  C   UNL     1      32.995 -22.893 -17.124  0.00  0.00    +0.165 C 
ATOM      8  C   UNL     1      31.592 -24.959 -13.886  0.00  0.00    -0.011 C 
ATOM      9  C   UNL     1      29.861 -24.121 -15.890  0.00  0.00    +0.029 C 
ATOM     10  C   UNL     1      30.234 -25.246 -13.786  0.00  0.00    -0.004 C 
ATOM     11  C   UNL     1      29.369 -24.827 -14.789  0.00  0.00    +0.002 C 
ATOM     12  H   UNL     1      33.988 -24.496 -13.272  0.00  0.00    +0.154 HD
ENDROOT
BRANCH   7  14
ATOM     13  N   UNL     1      34.820 -22.176 -18.434  0.00  0.00    -0.398 NA
ATOM     14  C   UNL     1      33.476 -22.165 -18.270  0.00  0.00    +0.197 C 
ATOM     15  C   UNL     1      32.599 -21.511 -19.124  0.00  0.00    +0.098 C 
ATOM     16  C   UNL     1      35.303 -21.499 -19.501  0.00  0.00    +0.110 C 
ATOM     17  C   UNL     1      33.134 -20.826 -20.211  0.00  0.00    -0.016 C 
ATOM     18  C   UNL     1      34.510 -20.816 -20.409  0.00  0.00    +0.023 C 
ATOM     19  C   UNL     1      36.783 -21.510 -19.684  0.00  0.00    +0.066 C 
ENDBRANCH   7  14
BRANCH   1  21
ATOM     20  N   UNL     1      38.503 -24.897 -14.583  0.00  0.00    -0.242 NA
ATOM     21  C   UNL     1      35.721 -24.515 -14.306  0.00  0.00    +0.053 C 
ATOM     22  C   UNL     1      36.307 -25.771 -14.075  0.00  0.00    +0.035 C 
ATOM     23  C   UNL     1      36.564 -23.457 -14.679  0.00  0.00    +0.035 C 
ATOM     24  C   UNL     1      37.677 -25.906 -14.224  0.00  0.00    +0.100 C 
ATOM     25  C   UNL     1      37.924 -23.696 -14.801  0.00  0.00    +0.100 C 
ENDBRANCH   1  21
TORSDOF 2
ENDMDL
MODEL 8
REMARK VINA RESULT:      -9.7      1.569      5.164
REMARK  Name = 10267580
REMARK  2 active torsions:
REMARK  status: ('A' for Active; 'I' for Inactive)
REMARK    1  A    between atoms: N_1  and  C_21
REMARK    2  A    between atoms: C_7  and  C_14
REMARK                            x       y       z     vdW  Elec       q    Type
REMARK                         _______ _______ _______ _____ _____    ______ ____
ROOT
ATOM      1  N   UNL     1      36.515 -22.923 -16.436  0.00  0.00    -0.290 N 
ATOM      2  N   UNL     1      34.601 -23.752 -15.348  0.00  0.00    -0.327 NA
ATOM      3  N   UNL     1      34.802 -25.339 -13.546  0.00  0.00    -0.342 NA
ATOM      4  C   UNL     1      36.777 -24.518 -14.629  0.00  0.00    +0.143 C 
ATOM      5  C   UNL     1      35.944 -23.755 -15.442  0.00  0.00    +0.184 C 
ATOM      6  C   UNL     1      36.141 -25.318 -13.666  0.00  0.00    +0.133 C 
ATOM      7  C   UNL     1      34.105 -24.555 -14.392  0.00  0.00    +0.165 C 
ATOM      8  C   UNL     1      38.179 -24.505 -14.746  0.00  0.00    -0.011 C 
ATOM      9  C   UNL     1      36.943 -26.096 -12.834  0.00  0.00    +0.029 C 
ATOM     10  C   UNL     1      38.955 -25.292 -13.902  0.00  0.00    -0.004 C 
ATOM     11  C   UNL     1      38.336 -26.088 -12.945  0.00  0.00    +0.002 C 
ATOM     12  H   UNL     1      37.450 -22.652 -16.287  0.00  0.00    +0.154 HD
ENDROOT
BRANCH   7  14
ATOM     13  N   UNL     1      31.994 -23.857 -15.178  0.00  0.00    -0.398 NA
ATOM     14  C   UNL     1      32.671 -24.583 -14.257  0.00  0.00    +0.197 C 
ATOM     15  C   UNL     1      32.060 -25.309 -13.245  0.00  0.00    +0.098 C 
ATOM     16  C   UNL     1      30.646 -23.862 -15.077  0.00  0.00    +0.110 C 
ATOM     17  C   UNL     1      30.671 -25.289 -13.174  0.00  0.00    -0.016 C 
ATOM     18  C   UNL     1      29.944 -24.555 -14.104  0.00  0.00    +0.023 C 
ATOM     19  C   UNL     1      29.897 -23.063 -16.091  0.00  0.00    +0.066 C 
ENDBRANCH   7  14
BRANCH   1  21
ATOM     20  N   UNL     1      34.720 -21.466 -19.948  0.00  0.00    -0.242 NA
ATOM     21  C   UNL     1      35.925 -22.443 -17.591  0.00  0.00    +0.053 C 
ATOM     22  C   UNL     1      34.566 -22.674 -17.859  0.00  0.00    +0.035 C 
ATOM     23  C   UNL     1      36.664 -21.711 -18.533  0.00  0.00    +0.035 C 
ATOM     24  C   UNL     1      34.022 -22.173 -19.031  0.00  0.00    +0.100 C 
ATOM     25  C   UNL     1      36.026 -21.253 -19.675  0.00  0.00    +0.100 C 
ENDBRANCH   1  21
TORSDOF 2
ENDMDL
MODEL 9
REMARK VINA RESULT:      -9.7      1.447      5.836
REMARK  Name = 10267580
REMARK  2 active torsions:
REMARK  status: ('A' for Active; 'I' for Inactive)
REMARK    1  A    between atoms: N_1  and  C_21
REMARK    2  A    between atoms: C_7  and  C_14
REMARK                            x       y       z     vdW  Elec       q    Type
REMARK                         _______ _______ _______ _____ _____    ______ ____
ROOT
ATOM      1  N   UNL     1      31.874 -23.190 -16.355  0.00  0.00    -0.290 N 
ATOM      2  N   UNL     1      33.823 -23.733 -15.154  0.00  0.00    -0.327 NA
ATOM      3  N   UNL     1      36.002 -23.292 -16.082  0.00  0.00    -0.342 NA
ATOM      4  C   UNL     1      34.041 -22.723 -17.339  0.00  0.00    +0.143 C 
ATOM      5  C   UNL     1      33.289 -23.218 -16.277  0.00  0.00    +0.184 C 
ATOM      6  C   UNL     1      35.437 -22.783 -17.191  0.00  0.00    +0.133 C 
ATOM      7  C   UNL     1      35.166 -23.739 -15.124  0.00  0.00    +0.165 C 
ATOM      8  C   UNL     1      33.459 -22.190 -18.503  0.00  0.00    -0.011 C 
ATOM      9  C   UNL     1      36.222 -22.298 -18.233  0.00  0.00    +0.029 C 
ATOM     10  C   UNL     1      34.269 -21.713 -19.529  0.00  0.00    -0.004 C 
ATOM     11  C   UNL     1      35.651 -21.767 -19.393  0.00  0.00    +0.002 C 
ATOM     12  H   UNL     1      31.490 -22.526 -16.973  0.00  0.00    +0.154 HD
ENDROOT
BRANCH   7  14
ATOM     13  N   UNL     1      37.057 -24.703 -14.097  0.00  0.00    -0.398 NA
ATOM     14  C   UNL     1      35.780 -24.281 -13.940  0.00  0.00    +0.197 C 
ATOM     15  C   UNL     1      35.085 -24.353 -12.741  0.00  0.00    +0.098 C 
ATOM     16  C   UNL     1      37.660 -25.219 -13.002  0.00  0.00    +0.110 C 
ATOM     17  C   UNL     1      35.740 -24.890 -11.637  0.00  0.00    -0.016 C 
ATOM     18  C   UNL     1      37.052 -25.333 -11.763  0.00  0.00    +0.023 C 
ATOM     19  C   UNL     1      39.068 -25.684 -13.173  0.00  0.00    +0.066 C 
ENDBRANCH   7  14
BRANCH   1  21
ATOM     20  N   UNL     1      29.108 -25.587 -14.286  0.00  0.00    -0.242 NA
ATOM     21  C   UNL     1      30.966 -23.978 -15.674  0.00  0.00    +0.053 C 
ATOM     22  C   UNL     1      29.631 -24.079 -16.102  0.00  0.00    +0.035 C 
ATOM     23  C   UNL     1      31.344 -24.703 -14.534  0.00  0.00    +0.035 C 
ATOM     24  C   UNL     1      28.759 -24.882 -15.386  0.00  0.00    +0.100 C 
ATOM     25  C   UNL     1      30.395 -25.478 -13.887  0.00  0.00    +0.100 C 
ENDBRANCH   1  21
TORSDOF 2
ENDMDL
