MODEL 1
REMARK VINA RESULT:     -11.5      0.000      0.000
REMARK  Name = 5326930
REMARK  4 active torsions:
REMARK  status: ('A' for Active; 'I' for Inactive)
REMARK    1  A    between atoms: C_7  and  C_21
REMARK    2  A    between atoms: C_21  and  C_22
REMARK    3  A    between atoms: C_22  and  C_23
REMARK    4  A    between atoms: C_28  and  O_29
REMARK                            x       y       z     vdW  Elec       q    Type
REMARK                         _______ _______ _______ _____ _____    ______ ____
ROOT
ATOM      1  O   UNL     1      34.542 -24.822 -11.726  0.00  0.00    -0.209 OA
ATOM      2  N   UNL     1      35.540 -24.330 -15.574  0.00  0.00    -0.275 N 
ATOM      3  N   UNL     1      30.236 -23.448 -14.407  0.00  0.00    -0.315 N 
ATOM      4  N   UNL     1      30.822 -23.182 -16.533  0.00  0.00    -0.316 N 
ATOM      5  N   UNL     1      36.165 -24.864 -13.341  0.00  0.00    -0.302 NA
ATOM      6  N   UNL     1      37.718 -24.865 -15.096  0.00  0.00    -0.320 N 
ATOM      7  C   UNL     1      33.255 -23.747 -16.192  0.00  0.00    +0.007 C 
ATOM      8  C   UNL     1      34.202 -24.118 -15.226  0.00  0.00    +0.060 C 
ATOM      9  C   UNL     1      31.922 -23.544 -15.791  0.00  0.00    +0.056 C 
ATOM     10  C   UNL     1      31.581 -23.718 -14.453  0.00  0.00    +0.060 C 
ATOM     11  C   UNL     1      33.820 -24.282 -13.886  0.00  0.00    +0.109 C 
ATOM     12  C   UNL     1      32.496 -24.086 -13.465  0.00  0.00    +0.029 C 
ATOM     13  C   UNL     1      34.868 -24.676 -12.901  0.00  0.00    +0.208 C 
ATOM     14  C   UNL     1      29.830 -23.134 -15.674  0.00  0.00    +0.182 C 
ATOM     15  C   UNL     1      36.448 -24.693 -14.605  0.00  0.00    +0.248 C 
ATOM     16  H   UNL     1      35.831 -24.221 -16.509  0.00  0.00    +0.156 HD
ATOM     17  H   UNL     1      29.667 -23.477 -13.605  0.00  0.00    +0.148 HD
ATOM     18  H   UNL     1      30.787 -22.999 -17.501  0.00  0.00    +0.148 HD
ATOM     19  H   UNL     1      37.899 -24.728 -16.054  0.00  0.00    +0.146 HD
ATOM     20  H   UNL     1      38.449 -25.125 -14.489  0.00  0.00    +0.146 HD
ENDROOT
BRANCH   7  21
ATOM     21  C   UNL     1      33.656 -23.570 -17.623  0.00  0.00    +0.034 C 
BRANCH  21  22
ATOM     22  C   UNL     1      32.926 -22.417 -18.337  0.00  0.00    +0.031 C 
BRANCH  22  23
ATOM     23  C   UNL     1      33.830 -21.601 -19.228  0.00  0.00    -0.022 C 
ATOM     24  C   UNL     1      33.272 -20.687 -20.107  0.00  0.00    -0.001 C 
ATOM     25  C   UNL     1      35.201 -21.783 -19.153  0.00  0.00    -0.001 C 
ATOM     26  C   UNL     1      34.106 -19.932 -20.931  0.00  0.00    +0.037 C 
ATOM     27  C   UNL     1      36.037 -21.028 -19.978  0.00  0.00    +0.037 C 
ATOM     28  C   UNL     1      35.489 -20.103 -20.867  0.00  0.00    +0.139 C 
BRANCH  28  29
ATOM     29  O   UNL     1      36.304 -19.368 -21.671  0.00  0.00    -0.471 OA
ATOM     30  C   UNL     1      35.697 -18.329 -22.437  0.00  0.00    +0.252 C 
ENDBRANCH  28  29
ENDBRANCH  22  23
ENDBRANCH  21  22
ENDBRANCH   7  21
TORSDOF 4
ENDMDL
MODEL 2
REMARK VINA RESULT:     -11.2      1.122      3.970
REMARK  Name = 5326930
REMARK  4 active torsions:
REMARK  status: ('A' for Active; 'I' for Inactive)
REMARK    1  A    between atoms: C_7  and  C_21
REMARK    2  A    between atoms: C_21  and  C_22
REMARK    3  A    between atoms: C_22  and  C_23
REMARK    4  A    between atoms: C_28  and  O_29
REMARK                            x       y       z     vdW  Elec       q    Type
REMARK                         _______ _______ _______ _____ _____    ______ ____
ROOT
ATOM      1  O   UNL     1      30.653 -24.173 -12.398  0.00  0.00    -0.209 OA
ATOM      2  N   UNL     1      31.197 -23.311 -16.271  0.00  0.00    -0.275 N 
ATOM      3  N   UNL     1      35.746 -24.774 -13.543  0.00  0.00    -0.315 N 
ATOM      4  N   UNL     1      36.015 -24.291 -15.695  0.00  0.00    -0.316 N 
ATOM      5  N   UNL     1      29.746 -23.523 -14.397  0.00  0.00    -0.302 NA
ATOM      6  N   UNL     1      28.960 -22.867 -16.505  0.00  0.00    -0.320 N 
ATOM      7  C   UNL     1      33.590 -23.761 -16.134  0.00  0.00    +0.007 C 
ATOM      8  C   UNL     1      32.324 -23.689 -15.533  0.00  0.00    +0.060 C 
ATOM      9  C   UNL     1      34.692 -24.146 -15.348  0.00  0.00    +0.056 C 
ATOM     10  C   UNL     1      34.496 -24.443 -14.003  0.00  0.00    +0.060 C 
ATOM     11  C   UNL     1      32.167 -23.997 -14.173  0.00  0.00    +0.109 C 
ATOM     12  C   UNL     1      33.253 -24.383 -13.372  0.00  0.00    +0.029 C 
ATOM     13  C   UNL     1      30.799 -23.905 -13.587  0.00  0.00    +0.208 C 
ATOM     14  C   UNL     1      36.618 -24.667 -14.590  0.00  0.00    +0.182 C 
ATOM     15  C   UNL     1      29.968 -23.250 -15.656  0.00  0.00    +0.248 C 
ATOM     16  H   UNL     1      31.285 -23.091 -17.227  0.00  0.00    +0.156 HD
ATOM     17  H   UNL     1      35.973 -25.040 -12.623  0.00  0.00    +0.148 HD
ATOM     18  H   UNL     1      36.422 -24.144 -16.580  0.00  0.00    +0.148 HD
ATOM     19  H   UNL     1      29.160 -22.669 -17.448  0.00  0.00    +0.146 HD
ATOM     20  H   UNL     1      28.037 -22.790 -16.170  0.00  0.00    +0.146 HD
ENDROOT
BRANCH   7  21
ATOM     21  C   UNL     1      33.765 -23.433 -17.583  0.00  0.00    +0.034 C 
BRANCH  21  22
ATOM     22  C   UNL     1      35.073 -22.686 -17.901  0.00  0.00    +0.031 C 
BRANCH  22  23
ATOM     23  C   UNL     1      34.945 -21.727 -19.059  0.00  0.00    -0.022 C 
ATOM     24  C   UNL     1      36.091 -21.224 -19.654  0.00  0.00    -0.001 C 
ATOM     25  C   UNL     1      33.685 -21.366 -19.506  0.00  0.00    -0.001 C 
ATOM     26  C   UNL     1      35.974 -20.338 -20.724  0.00  0.00    +0.037 C 
ATOM     27  C   UNL     1      33.567 -20.479 -20.577  0.00  0.00    +0.037 C 
ATOM     28  C   UNL     1      34.712 -19.965 -21.186  0.00  0.00    +0.139 C 
BRANCH  28  29
ATOM     29  O   UNL     1      34.596 -19.099 -22.229  0.00  0.00    -0.471 OA
ATOM     30  C   UNL     1      35.593 -18.086 -22.346  0.00  0.00    +0.252 C 
ENDBRANCH  28  29
ENDBRANCH  22  23
ENDBRANCH  21  22
ENDBRANCH   7  21
TORSDOF 4
ENDMDL
MODEL 3
REMARK VINA RESULT:     -10.5      3.186      6.508
REMARK  Name = 5326930
REMARK  4 active torsions:
REMARK  status: ('A' for Active; 'I' for Inactive)
REMARK    1  A    between atoms: C_7  and  C_21
REMARK    2  A    between atoms: C_21  and  C_22
REMARK    3  A    between atoms: C_22  and  C_23
REMARK    4  A    between atoms: C_28  and  O_29
REMARK                            x       y       z     vdW  Elec       q    Type
REMARK                         _______ _______ _______ _____ _____    ______ ____
ROOT
ATOM      1  O   UNL     1      37.339 -21.868 -17.136  0.00  0.00    -0.209 OA
ATOM      2  N   UNL     1      33.837 -23.663 -16.391  0.00  0.00    -0.275 N 
ATOM      3  N   UNL     1      37.422 -23.716 -12.217  0.00  0.00    -0.315 N 
ATOM      4  N   UNL     1      35.469 -24.703 -11.835  0.00  0.00    -0.316 N 
ATOM      5  N   UNL     1      35.261 -22.477 -17.883  0.00  0.00    -0.302 NA
ATOM      6  N   UNL     1      33.110 -23.165 -18.507  0.00  0.00    -0.320 N 
ATOM      7  C   UNL     1      34.508 -24.243 -14.119  0.00  0.00    +0.007 C 
ATOM      8  C   UNL     1      34.783 -23.650 -15.361  0.00  0.00    +0.060 C 
ATOM      9  C   UNL     1      35.493 -24.202 -13.116  0.00  0.00    +0.056 C 
ATOM     10  C   UNL     1      36.708 -23.578 -13.382  0.00  0.00    +0.060 C 
ATOM     11  C   UNL     1      36.021 -23.029 -15.590  0.00  0.00    +0.109 C 
ATOM     12  C   UNL     1      37.017 -22.978 -14.603  0.00  0.00    +0.029 C 
ATOM     13  C   UNL     1      36.259 -22.414 -16.928  0.00  0.00    +0.208 C 
ATOM     14  C   UNL     1      36.640 -24.394 -11.326  0.00  0.00    +0.182 C 
ATOM     15  C   UNL     1      34.134 -23.073 -17.598  0.00  0.00    +0.248 C 
ATOM     16  H   UNL     1      32.962 -24.093 -16.252  0.00  0.00    +0.156 HD
ATOM     17  H   UNL     1      38.335 -23.386 -12.056  0.00  0.00    +0.148 HD
ATOM     18  H   UNL     1      34.733 -25.187 -11.395  0.00  0.00    +0.148 HD
ATOM     19  H   UNL     1      32.272 -23.619 -18.262  0.00  0.00    +0.146 HD
ATOM     20  H   UNL     1      33.214 -22.775 -19.406  0.00  0.00    +0.146 HD
ENDROOT
BRANCH   7  21
ATOM     21  C   UNL     1      33.191 -24.907 -13.868  0.00  0.00    +0.034 C 
BRANCH  21  22
ATOM     22  C   UNL     1      32.067 -23.932 -13.470  0.00  0.00    +0.031 C 
BRANCH  22  23
ATOM     23  C   UNL     1      30.884 -23.972 -14.406  0.00  0.00    -0.022 C 
ATOM     24  C   UNL     1      30.018 -25.052 -14.361  0.00  0.00    -0.001 C 
ATOM     25  C   UNL     1      30.686 -22.927 -15.294  0.00  0.00    -0.001 C 
ATOM     26  C   UNL     1      28.925 -25.090 -15.226  0.00  0.00    +0.037 C 
ATOM     27  C   UNL     1      29.592 -22.964 -16.160  0.00  0.00    +0.037 C 
ATOM     28  C   UNL     1      28.712 -24.045 -16.126  0.00  0.00    +0.139 C 
BRANCH  28  29
ATOM     29  O   UNL     1      27.646 -24.082 -16.971  0.00  0.00    -0.471 OA
ATOM     30  C   UNL     1      27.053 -22.833 -17.323  0.00  0.00    +0.252 C 
ENDBRANCH  28  29
ENDBRANCH  22  23
ENDBRANCH  21  22
ENDBRANCH   7  21
TORSDOF 4
ENDMDL
MODEL 4
REMARK VINA RESULT:     -10.4      3.753      6.091
REMARK  Name = 5326930
REMARK  4 active torsions:
REMARK  status: ('A' for Active; 'I' for Inactive)
REMARK    1  A    between atoms: C_7  and  C_21
REMARK    2  A    between atoms: C_21  and  C_22
REMARK    3  A    between atoms: C_22  and  C_23
REMARK    4  A    between atoms: C_28  and  O_29
REMARK                            x       y       z     vdW  Elec       q    Type
REMARK                         _______ _______ _______ _____ _____    ______ ____
ROOT
ATOM      1  O   UNL     1      38.537 -22.849 -11.612  0.00  0.00    -0.209 OA
ATOM      2  N   UNL     1      35.011 -24.748 -11.551  0.00  0.00    -0.275 N 
ATOM      3  N   UNL     1      36.407 -22.571 -16.407  0.00  0.00    -0.315 N 
ATOM      4  N   UNL     1      34.456 -23.632 -16.341  0.00  0.00    -0.316 N 
ATOM      5  N   UNL     1      36.979 -24.032 -10.421  0.00  0.00    -0.302 NA
ATOM      6  N   UNL     1      35.299 -25.250  -9.333  0.00  0.00    -0.320 N 
ATOM      7  C   UNL     1      34.604 -24.270 -13.907  0.00  0.00    +0.007 C 
ATOM      8  C   UNL     1      35.412 -24.176 -12.763  0.00  0.00    +0.060 C 
ATOM      9  C   UNL     1      35.052 -23.679 -15.103  0.00  0.00    +0.056 C 
ATOM     10  C   UNL     1      36.278 -23.020 -15.117  0.00  0.00    +0.060 C 
ATOM     11  C   UNL     1      36.642 -23.504 -12.818  0.00  0.00    +0.109 C 
ATOM     12  C   UNL     1      37.106 -22.907 -14.000  0.00  0.00    +0.029 C 
ATOM     13  C   UNL     1      37.459 -23.436 -11.573  0.00  0.00    +0.208 C 
ATOM     14  C   UNL     1      35.294 -22.961 -17.098  0.00  0.00    +0.182 C 
ATOM     15  C   UNL     1      35.823 -24.641 -10.445  0.00  0.00    +0.248 C 
ATOM     16  H   UNL     1      34.151 -25.224 -11.490  0.00  0.00    +0.156 HD
ATOM     17  H   UNL     1      37.165 -22.059 -16.769  0.00  0.00    +0.148 HD
ATOM     18  H   UNL     1      33.589 -24.019 -16.603  0.00  0.00    +0.148 HD
ATOM     19  H   UNL     1      34.426 -25.701  -9.383  0.00  0.00    +0.146 HD
ATOM     20  H   UNL     1      35.797 -25.235  -8.483  0.00  0.00    +0.146 HD
ENDROOT
BRANCH   7  21
ATOM     21  C   UNL     1      33.291 -24.986 -13.856  0.00  0.00    +0.034 C 
BRANCH  21  22
ATOM     22  C   UNL     1      32.119 -24.105 -13.385  0.00  0.00    +0.031 C 
BRANCH  22  23
ATOM     23  C   UNL     1      30.960 -24.089 -14.352  0.00  0.00    -0.022 C 
ATOM     24  C   UNL     1      29.938 -25.011 -14.203  0.00  0.00    -0.001 C 
ATOM     25  C   UNL     1      30.941 -23.152 -15.373  0.00  0.00    -0.001 C 
ATOM     26  C   UNL     1      28.867 -24.997 -15.097  0.00  0.00    +0.037 C 
ATOM     27  C   UNL     1      29.870 -23.137 -16.267  0.00  0.00    +0.037 C 
ATOM     28  C   UNL     1      28.833 -24.059 -16.129  0.00  0.00    +0.139 C 
BRANCH  28  29
ATOM     29  O   UNL     1      27.789 -24.045 -17.001  0.00  0.00    -0.471 OA
ATOM     30  C   UNL     1      27.098 -22.808 -17.168  0.00  0.00    +0.252 C 
ENDBRANCH  28  29
ENDBRANCH  22  23
ENDBRANCH  21  22
ENDBRANCH   7  21
TORSDOF 4
ENDMDL
MODEL 5
REMARK VINA RESULT:     -10.2      3.207      7.462
REMARK  Name = 5326930
REMARK  4 active torsions:
REMARK  status: ('A' for Active; 'I' for Inactive)
REMARK    1  A    between atoms: C_7  and  C_21
REMARK    2  A    between atoms: C_21  and  C_22
REMARK    3  A    between atoms: C_22  and  C_23
REMARK    4  A    between atoms: C_28  and  O_29
REMARK                            x       y       z     vdW  Elec       q    Type
REMARK                         _______ _______ _______ _____ _____    ______ ____
ROOT
ATOM      1  O   UNL     1      33.362 -19.720 -21.668  0.00  0.00    -0.209 OA
ATOM      2  N   UNL     1      36.859 -20.462 -19.861  0.00  0.00    -0.275 N 
ATOM      3  N   UNL     1      32.547 -23.202 -17.817  0.00  0.00    -0.315 N 
ATOM      4  N   UNL     1      34.502 -23.592 -16.837  0.00  0.00    -0.316 N 
ATOM      5  N   UNL     1      35.613 -19.318 -21.534  0.00  0.00    -0.302 NA
ATOM      6  N   UNL     1      37.921 -19.007 -21.279  0.00  0.00    -0.320 N 
ATOM      7  C   UNL     1      35.830 -22.032 -18.304  0.00  0.00    +0.007 C 
ATOM      8  C   UNL     1      35.731 -21.134 -19.378  0.00  0.00    +0.060 C 
ATOM      9  C   UNL     1      34.667 -22.683 -17.855  0.00  0.00    +0.056 C 
ATOM     10  C   UNL     1      33.455 -22.419 -18.487  0.00  0.00    +0.060 C 
ATOM     11  C   UNL     1      34.491 -20.896 -19.989  0.00  0.00    +0.109 C 
ATOM     12  C   UNL     1      33.319 -21.535 -19.557  0.00  0.00    +0.029 C 
ATOM     13  C   UNL     1      34.444 -19.934 -21.128  0.00  0.00    +0.208 C 
ATOM     14  C   UNL     1      33.221 -23.882 -16.842  0.00  0.00    +0.182 C 
ATOM     15  C   UNL     1      36.732 -19.589 -20.917  0.00  0.00    +0.248 C 
ATOM     16  H   UNL     1      37.739 -20.614 -19.447  0.00  0.00    +0.156 HD
ATOM     17  H   UNL     1      31.583 -23.260 -18.006  0.00  0.00    +0.148 HD
ATOM     18  H   UNL     1      35.195 -23.950 -16.235  0.00  0.00    +0.148 HD
ATOM     19  H   UNL     1      38.748 -19.232 -20.794  0.00  0.00    +0.146 HD
ATOM     20  H   UNL     1      37.947 -18.364 -22.025  0.00  0.00    +0.146 HD
ENDROOT
BRANCH   7  21
ATOM     21  C   UNL     1      37.150 -22.290 -17.647  0.00  0.00    +0.034 C 
BRANCH  21  22
ATOM     22  C   UNL     1      37.204 -21.870 -16.167  0.00  0.00    +0.031 C 
BRANCH  22  23
ATOM     23  C   UNL     1      37.508 -23.015 -15.233  0.00  0.00    -0.022 C 
ATOM     24  C   UNL     1      36.705 -23.218 -14.123  0.00  0.00    -0.001 C 
ATOM     25  C   UNL     1      38.587 -23.842 -15.501  0.00  0.00    -0.001 C 
ATOM     26  C   UNL     1      36.985 -24.276 -13.258  0.00  0.00    +0.037 C 
ATOM     27  C   UNL     1      38.868 -24.901 -14.637  0.00  0.00    +0.037 C 
ATOM     28  C   UNL     1      38.067 -25.117 -13.516  0.00  0.00    +0.139 C 
BRANCH  28  29
ATOM     29  O   UNL     1      38.343 -26.149 -12.673  0.00  0.00    -0.471 OA
ATOM     30  C   UNL     1      37.273 -26.626 -11.857  0.00  0.00    +0.252 C 
ENDBRANCH  28  29
ENDBRANCH  22  23
ENDBRANCH  21  22
ENDBRANCH   7  21
TORSDOF 4
ENDMDL
MODEL 6
REMARK VINA RESULT:     -10.1      1.508      3.539
REMARK  Name = 5326930
REMARK  4 active torsions:
REMARK  status: ('A' for Active; 'I' for Inactive)
REMARK    1  A    between atoms: C_7  and  C_21
REMARK    2  A    between atoms: C_21  and  C_22
REMARK    3  A    between atoms: C_22  and  C_23
REMARK    4  A    between atoms: C_28  and  O_29
REMARK                            x       y       z     vdW  Elec       q    Type
REMARK                         _______ _______ _______ _____ _____    ______ ____
ROOT
ATOM      1  O   UNL     1      34.328 -25.051 -11.578  0.00  0.00    -0.209 OA
ATOM      2  N   UNL     1      32.223 -24.223 -14.884  0.00  0.00    -0.275 N 
ATOM      3  N   UNL     1      37.564 -22.924 -15.131  0.00  0.00    -0.315 N 
ATOM      4  N   UNL     1      36.368 -22.478 -16.949  0.00  0.00    -0.316 N 
ATOM      5  N   UNL     1      32.312 -25.077 -12.665  0.00  0.00    -0.302 NA
ATOM      6  N   UNL     1      30.321 -25.040 -13.899  0.00  0.00    -0.320 N 
ATOM      7  C   UNL     1      34.185 -23.332 -16.026  0.00  0.00    +0.007 C 
ATOM      8  C   UNL     1      33.587 -23.911 -14.896  0.00  0.00    +0.060 C 
ATOM      9  C   UNL     1      35.560 -23.038 -15.988  0.00  0.00    +0.056 C 
ATOM     10  C   UNL     1      36.285 -23.327 -14.836  0.00  0.00    +0.060 C 
ATOM     11  C   UNL     1      34.352 -24.188 -13.753  0.00  0.00    +0.109 C 
ATOM     12  C   UNL     1      35.724 -23.902 -13.695  0.00  0.00    +0.029 C 
ATOM     13  C   UNL     1      33.665 -24.805 -12.582  0.00  0.00    +0.208 C 
ATOM     14  C   UNL     1      37.562 -22.424 -16.403  0.00  0.00    +0.182 C 
ATOM     15  C   UNL     1      31.663 -24.791 -13.762  0.00  0.00    +0.248 C 
ATOM     16  H   UNL     1      31.667 -24.037 -15.675  0.00  0.00    +0.156 HD
ATOM     17  H   UNL     1      38.342 -22.984 -14.531  0.00  0.00    +0.148 HD
ATOM     18  H   UNL     1      36.109 -22.182 -17.853  0.00  0.00    +0.148 HD
ATOM     19  H   UNL     1      29.861 -24.813 -14.739  0.00  0.00    +0.146 HD
ATOM     20  H   UNL     1      29.818 -25.446 -13.156  0.00  0.00    +0.146 HD
ENDROOT
BRANCH   7  21
ATOM     21  C   UNL     1      33.374 -23.034 -17.248  0.00  0.00    +0.034 C 
BRANCH  21  22
ATOM     22  C   UNL     1      34.119 -23.296 -18.570  0.00  0.00    +0.031 C 
BRANCH  22  23
ATOM     23  C   UNL     1      34.292 -22.056 -19.412  0.00  0.00    -0.022 C 
ATOM     24  C   UNL     1      33.174 -21.334 -19.796  0.00  0.00    -0.001 C 
ATOM     25  C   UNL     1      35.566 -21.663 -19.788  0.00  0.00    -0.001 C 
ATOM     26  C   UNL     1      33.332 -20.188 -20.575  0.00  0.00    +0.037 C 
ATOM     27  C   UNL     1      35.726 -20.517 -20.568  0.00  0.00    +0.037 C 
ATOM     28  C   UNL     1      34.609 -19.779 -20.961  0.00  0.00    +0.139 C 
BRANCH  28  29
ATOM     29  O   UNL     1      34.765 -18.662 -21.722  0.00  0.00    -0.471 OA
ATOM     30  C   UNL     1      35.906 -18.611 -22.576  0.00  0.00    +0.252 C 
ENDBRANCH  28  29
ENDBRANCH  22  23
ENDBRANCH  21  22
ENDBRANCH   7  21
TORSDOF 4
ENDMDL
MODEL 7
REMARK VINA RESULT:     -10.0      2.930      5.956
REMARK  Name = 5326930
REMARK  4 active torsions:
REMARK  status: ('A' for Active; 'I' for Inactive)
REMARK    1  A    between atoms: C_7  and  C_21
REMARK    2  A    between atoms: C_21  and  C_22
REMARK    3  A    between atoms: C_22  and  C_23
REMARK    4  A    between atoms: C_28  and  O_29
REMARK                            x       y       z     vdW  Elec       q    Type
REMARK                         _______ _______ _______ _____ _____    ______ ____
ROOT
ATOM      1  O   UNL     1      38.326 -22.961 -15.530  0.00  0.00    -0.209 OA
ATOM      2  N   UNL     1      34.794 -24.578 -14.553  0.00  0.00    -0.275 N 
ATOM      3  N   UNL     1      34.811 -21.648 -19.209  0.00  0.00    -0.315 N 
ATOM      4  N   UNL     1      32.867 -22.559 -18.640  0.00  0.00    -0.316 N 
ATOM      5  N   UNL     1      37.097 -24.227 -14.070  0.00  0.00    -0.302 NA
ATOM      6  N   UNL     1      35.718 -25.501 -12.669  0.00  0.00    -0.320 N 
ATOM      7  C   UNL     1      33.711 -23.645 -16.529  0.00  0.00    +0.007 C 
ATOM      8  C   UNL     1      34.851 -23.823 -15.729  0.00  0.00    +0.060 C 
ATOM      9  C   UNL     1      33.821 -22.877 -17.702  0.00  0.00    +0.056 C 
ATOM     10  C   UNL     1      35.050 -22.316 -18.035  0.00  0.00    +0.060 C 
ATOM     11  C   UNL     1      36.074 -23.242 -16.099  0.00  0.00    +0.109 C 
ATOM     12  C   UNL     1      36.203 -22.473 -17.265  0.00  0.00    +0.029 C 
ATOM     13  C   UNL     1      37.252 -23.465 -15.213  0.00  0.00    +0.208 C 
ATOM     14  C   UNL     1      33.494 -21.822 -19.529  0.00  0.00    +0.182 C 
ATOM     15  C   UNL     1      35.927 -24.736 -13.789  0.00  0.00    +0.248 C 
ATOM     16  H   UNL     1      33.947 -24.994 -14.274  0.00  0.00    +0.156 HD
ATOM     17  H   UNL     1      35.471 -21.134 -19.728  0.00  0.00    +0.148 HD
ATOM     18  H   UNL     1      31.919 -22.827 -18.645  0.00  0.00    +0.148 HD
ATOM     19  H   UNL     1      34.824 -25.871 -12.485  0.00  0.00    +0.146 HD
ATOM     20  H   UNL     1      36.462 -25.679 -12.048  0.00  0.00    +0.146 HD
ENDROOT
BRANCH   7  21
ATOM     21  C   UNL     1      32.405 -24.261 -16.139  0.00  0.00    +0.034 C 
BRANCH  21  22
ATOM     22  C   UNL     1      31.679 -23.519 -15.002  0.00  0.00    +0.031 C 
BRANCH  22  23
ATOM     23  C   UNL     1      30.228 -23.239 -15.303  0.00  0.00    -0.022 C 
ATOM     24  C   UNL     1      29.723 -23.543 -16.557  0.00  0.00    -0.001 C 
ATOM     25  C   UNL     1      29.425 -22.681 -14.321  0.00  0.00    -0.001 C 
ATOM     26  C   UNL     1      28.381 -23.284 -16.837  0.00  0.00    +0.037 C 
ATOM     27  C   UNL     1      28.083 -22.422 -14.600  0.00  0.00    +0.037 C 
ATOM     28  C   UNL     1      27.561 -22.724 -15.858  0.00  0.00    +0.139 C 
BRANCH  28  29
ATOM     29  O   UNL     1      26.252 -22.470 -16.130  0.00  0.00    -0.471 OA
ATOM     30  C   UNL     1      25.969 -21.687 -17.288  0.00  0.00    +0.252 C 
ENDBRANCH  28  29
ENDBRANCH  22  23
ENDBRANCH  21  22
ENDBRANCH   7  21
TORSDOF 4
ENDMDL
MODEL 8
REMARK VINA RESULT:     -10.0      2.783      6.975
REMARK  Name = 5326930
REMARK  4 active torsions:
REMARK  status: ('A' for Active; 'I' for Inactive)
REMARK    1  A    between atoms: C_7  and  C_21
REMARK    2  A    between atoms: C_21  and  C_22
REMARK    3  A    between atoms: C_22  and  C_23
REMARK    4  A    between atoms: C_28  and  O_29
REMARK                            x       y       z     vdW  Elec       q    Type
REMARK                         _______ _______ _______ _____ _____    ______ ____
ROOT
ATOM      1  O   UNL     1      37.158 -20.590 -19.457  0.00  0.00    -0.209 OA
ATOM      2  N   UNL     1      33.696 -22.314 -18.415  0.00  0.00    -0.275 N 
ATOM      3  N   UNL     1      37.974 -23.522 -15.173  0.00  0.00    -0.315 N 
ATOM      4  N   UNL     1      36.038 -24.462 -14.621  0.00  0.00    -0.316 N 
ATOM      5  N   UNL     1      34.928 -20.896 -19.876  0.00  0.00    -0.302 NA
ATOM      6  N   UNL     1      32.640 -21.302 -20.180  0.00  0.00    -0.320 N 
ATOM      7  C   UNL     1      34.719 -23.437 -16.507  0.00  0.00    +0.007 C 
ATOM      8  C   UNL     1      34.815 -22.589 -17.622  0.00  0.00    +0.060 C 
ATOM      9  C   UNL     1      35.873 -23.683 -15.742  0.00  0.00    +0.056 C 
ATOM     10  C   UNL     1      37.073 -23.082 -16.110  0.00  0.00    +0.060 C 
ATOM     11  C   UNL     1      36.043 -22.002 -17.960  0.00  0.00    +0.109 C 
ATOM     12  C   UNL     1      37.206 -22.234 -17.210  0.00  0.00    +0.029 C 
ATOM     13  C   UNL     1      36.088 -21.108 -19.154  0.00  0.00    +0.208 C 
ATOM     14  C   UNL     1      37.309 -24.344 -14.307  0.00  0.00    +0.182 C 
ATOM     15  C   UNL     1      33.820 -21.478 -19.501  0.00  0.00    +0.248 C 
ATOM     16  H   UNL     1      32.824 -22.716 -18.196  0.00  0.00    +0.156 HD
ATOM     17  H   UNL     1      38.929 -23.289 -15.134  0.00  0.00    +0.148 HD
ATOM     18  H   UNL     1      35.353 -24.994 -14.155  0.00  0.00    +0.148 HD
ATOM     19  H   UNL     1      31.822 -21.754 -19.873  0.00  0.00    +0.146 HD
ATOM     20  H   UNL     1      32.613 -20.722 -20.976  0.00  0.00    +0.146 HD
ENDROOT
BRANCH   7  21
ATOM     21  C   UNL     1      33.412 -24.068 -16.141  0.00  0.00    +0.034 C 
BRANCH  21  22
ATOM     22  C   UNL     1      32.713 -23.402 -14.941  0.00  0.00    +0.031 C 
BRANCH  22  23
ATOM     23  C   UNL     1      31.215 -23.317 -15.097  0.00  0.00    -0.022 C 
ATOM     24  C   UNL     1      30.677 -22.986 -16.331  0.00  0.00    -0.001 C 
ATOM     25  C   UNL     1      30.403 -23.568 -14.003  0.00  0.00    -0.001 C 
ATOM     26  C   UNL     1      29.293 -22.907 -16.476  0.00  0.00    +0.037 C 
ATOM     27  C   UNL     1      29.017 -23.489 -14.147  0.00  0.00    +0.037 C 
ATOM     28  C   UNL     1      28.462 -23.158 -15.383  0.00  0.00    +0.139 C 
BRANCH  28  29
ATOM     29  O   UNL     1      27.111 -23.080 -15.523  0.00  0.00    -0.471 OA
ATOM     30  C   UNL     1      26.615 -22.364 -16.653  0.00  0.00    +0.252 C 
ENDBRANCH  28  29
ENDBRANCH  22  23
ENDBRANCH  21  22
ENDBRANCH   7  21
TORSDOF 4
ENDMDL
MODEL 9
REMARK VINA RESULT:      -9.5      3.260      6.873
REMARK  Name = 5326930
REMARK  4 active torsions:
REMARK  status: ('A' for Active; 'I' for Inactive)
REMARK    1  A    between atoms: C_7  and  C_21
REMARK    2  A    between atoms: C_21  and  C_22
REMARK    3  A    between atoms: C_22  and  C_23
REMARK    4  A    between atoms: C_28  and  O_29
REMARK                            x       y       z     vdW  Elec       q    Type
REMARK                         _______ _______ _______ _____ _____    ______ ____
ROOT
ATOM      1  O   UNL     1      29.268 -22.998 -16.782  0.00  0.00    -0.209 OA
ATOM      2  N   UNL     1      31.990 -24.273 -14.134  0.00  0.00    -0.275 N 
ATOM      3  N   UNL     1      34.058 -22.190 -18.788  0.00  0.00    -0.315 N 
ATOM      4  N   UNL     1      35.542 -22.905 -17.297  0.00  0.00    -0.316 N 
ATOM      5  N   UNL     1      29.713 -23.941 -14.743  0.00  0.00    -0.302 NA
ATOM      6  N   UNL     1      30.320 -24.894 -12.691  0.00  0.00    -0.320 N 
ATOM      7  C   UNL     1      33.842 -23.648 -15.592  0.00  0.00    +0.007 C 
ATOM      8  C   UNL     1      32.465 -23.734 -15.334  0.00  0.00    +0.060 C 
ATOM      9  C   UNL     1      34.269 -23.098 -16.814  0.00  0.00    +0.056 C 
ATOM     10  C   UNL     1      33.318 -22.658 -17.730  0.00  0.00    +0.060 C 
ATOM     11  C   UNL     1      31.537 -23.279 -16.284  0.00  0.00    +0.109 C 
ATOM     12  C   UNL     1      31.943 -22.728 -17.508  0.00  0.00    +0.029 C 
ATOM     13  C   UNL     1      30.086 -23.394 -15.957  0.00  0.00    +0.208 C 
ATOM     14  C   UNL     1      35.379 -22.360 -18.481  0.00  0.00    +0.182 C 
ATOM     15  C   UNL     1      30.634 -24.345 -13.908  0.00  0.00    +0.248 C 
ATOM     16  H   UNL     1      32.623 -24.598 -13.454  0.00  0.00    +0.156 HD
ATOM     17  H   UNL     1      33.699 -21.803 -19.618  0.00  0.00    +0.148 HD
ATOM     18  H   UNL     1      36.392 -23.128 -16.852  0.00  0.00    +0.148 HD
ATOM     19  H   UNL     1      31.037 -25.188 -12.083  0.00  0.00    +0.146 HD
ATOM     20  H   UNL     1      29.377 -24.994 -12.424  0.00  0.00    +0.146 HD
ENDROOT
BRANCH   7  21
ATOM     21  C   UNL     1      34.836 -24.131 -14.584  0.00  0.00    +0.034 C 
BRANCH  21  22
ATOM     22  C   UNL     1      35.357 -25.555 -14.854  0.00  0.00    +0.031 C 
BRANCH  22  23
ATOM     23  C   UNL     1      36.842 -25.699 -14.633  0.00  0.00    -0.022 C 
ATOM     24  C   UNL     1      37.666 -24.601 -14.818  0.00  0.00    -0.001 C 
ATOM     25  C   UNL     1      37.356 -26.927 -14.249  0.00  0.00    -0.001 C 
ATOM     26  C   UNL     1      39.040 -24.733 -14.613  0.00  0.00    +0.037 C 
ATOM     27  C   UNL     1      38.730 -27.060 -14.044  0.00  0.00    +0.037 C 
ATOM     28  C   UNL     1      39.571 -25.963 -14.226  0.00  0.00    +0.139 C 
BRANCH  28  29
ATOM     29  O   UNL     1      40.911 -26.093 -14.028  0.00  0.00    -0.471 OA
ATOM     30  C   UNL     1      41.375 -27.343 -13.519  0.00  0.00    +0.252 C 
ENDBRANCH  28  29
ENDBRANCH  22  23
ENDBRANCH  21  22
ENDBRANCH   7  21
TORSDOF 4
ENDMDL
