MODEL 1
REMARK VINA RESULT:     -11.8      0.000      0.000
REMARK  Name = 5287739
REMARK  3 active torsions:
REMARK  status: ('A' for Active; 'I' for Inactive)
REMARK    1  A    between atoms: C_2  and  O_21
REMARK    2  A    between atoms: C_3  and  O_23
REMARK    3  A    between atoms: C_4  and  O_25
REMARK                            x       y       z     vdW  Elec       q    Type
REMARK                         _______ _______ _______ _____ _____    ______ ____
ROOT
ATOM      1  C   UNL     1      35.663 -24.146 -13.305  0.00  0.00    -0.021 C 
ATOM      2  C   UNL     1      37.211 -25.243 -11.086  0.00  0.00    +0.168 C 
ATOM      3  C   UNL     1      37.905 -24.292 -12.063  0.00  0.00    +0.162 C 
ATOM      4  C   UNL     1      35.784 -24.770 -10.825  0.00  0.00    +0.144 C 
ATOM      5  C   UNL     1      34.959 -24.762 -12.110  0.00  0.00    +0.058 C 
ATOM      6  C   UNL     1      37.059 -23.940 -13.269  0.00  0.00    +0.003 C 
ATOM      7  C   UNL     1      34.927 -23.817 -14.484  0.00  0.00    -0.004 C 
ATOM      8  C   UNL     1      35.606 -23.244 -15.591  0.00  0.00    -0.000 C 
ATOM      9  C   UNL     1      36.997 -23.016 -15.529  0.00  0.00    -0.000 C 
ATOM     10  C   UNL     1      37.703 -23.368 -14.376  0.00  0.00    -0.002 C 
ATOM     11  C   UNL     1      34.901 -22.895 -16.777  0.00  0.00    -0.000 C 
ATOM     12  C   UNL     1      33.539 -24.035 -14.621  0.00  0.00    -0.000 C 
ATOM     13  C   UNL     1      33.510 -23.123 -16.869  0.00  0.00    -0.000 C 
ATOM     14  C   UNL     1      35.585 -22.320 -17.874  0.00  0.00    -0.000 C 
ATOM     15  C   UNL     1      37.660 -22.446 -16.624  0.00  0.00    -0.000 C 
ATOM     16  C   UNL     1      32.845 -23.696 -15.785  0.00  0.00    -0.000 C 
ATOM     17  C   UNL     1      36.964 -22.100 -17.782  0.00  0.00    -0.000 C 
ATOM     18  C   UNL     1      32.825 -22.775 -18.042  0.00  0.00    -0.000 C 
ATOM     19  C   UNL     1      34.875 -21.981 -19.035  0.00  0.00    -0.000 C 
ATOM     20  C   UNL     1      33.503 -22.207 -19.117  0.00  0.00    +0.000 C 
ENDROOT
BRANCH   2  21
ATOM     21  O   UNL     1      37.189 -26.562 -11.631  0.00  0.00    -0.379 OA
ATOM     22  H   UNL     1      37.758 -26.597 -12.415  0.00  0.00    +0.211 HD
ENDBRANCH   2  21
BRANCH   3  23
ATOM     23  O   UNL     1      38.225 -23.073 -11.394  0.00  0.00    -0.377 OA
ATOM     24  H   UNL     1      37.665 -22.360 -11.738  0.00  0.00    +0.211 HD
ENDBRANCH   3  23
BRANCH   4  25
ATOM     25  O   UNL     1      35.148 -25.628  -9.882  0.00  0.00    -0.382 OA
ATOM     26  H   UNL     1      34.304 -25.940 -10.245  0.00  0.00    +0.210 HD
ENDBRANCH   4  25
TORSDOF 3
ENDMDL
MODEL 2
REMARK VINA RESULT:     -11.0      0.929      3.151
REMARK  Name = 5287739
REMARK  3 active torsions:
REMARK  status: ('A' for Active; 'I' for Inactive)
REMARK    1  A    between atoms: C_2  and  O_21
REMARK    2  A    between atoms: C_3  and  O_23
REMARK    3  A    between atoms: C_4  and  O_25
REMARK                            x       y       z     vdW  Elec       q    Type
REMARK                         _______ _______ _______ _____ _____    ______ ____
ROOT
ATOM      1  C   UNL     1      36.562 -23.515 -13.822  0.00  0.00    -0.021 C 
ATOM      2  C   UNL     1      36.840 -23.972 -10.951  0.00  0.00    +0.168 C 
ATOM      3  C   UNL     1      35.562 -24.445 -11.647  0.00  0.00    +0.162 C 
ATOM      4  C   UNL     1      38.045 -24.215 -11.855  0.00  0.00    +0.144 C 
ATOM      5  C   UNL     1      37.925 -23.430 -13.161  0.00  0.00    +0.058 C 
ATOM      6  C   UNL     1      35.453 -23.987 -13.087  0.00  0.00    +0.003 C 
ATOM      7  C   UNL     1      36.386 -23.073 -15.168  0.00  0.00    -0.004 C 
ATOM      8  C   UNL     1      35.101 -23.158 -15.766  0.00  0.00    -0.000 C 
ATOM      9  C   UNL     1      34.008 -23.661 -15.029  0.00  0.00    -0.000 C 
ATOM     10  C   UNL     1      34.195 -24.065 -13.705  0.00  0.00    -0.002 C 
ATOM     11  C   UNL     1      34.893 -22.736 -17.109  0.00  0.00    -0.000 C 
ATOM     12  C   UNL     1      37.430 -22.543 -15.956  0.00  0.00    -0.000 C 
ATOM     13  C   UNL     1      35.967 -22.219 -17.865  0.00  0.00    -0.000 C 
ATOM     14  C   UNL     1      33.610 -22.830 -17.699  0.00  0.00    -0.000 C 
ATOM     15  C   UNL     1      32.743 -23.747 -15.627  0.00  0.00    -0.000 C 
ATOM     16  C   UNL     1      37.228 -22.126 -17.274  0.00  0.00    -0.000 C 
ATOM     17  C   UNL     1      32.546 -23.338 -16.946  0.00  0.00    -0.000 C 
ATOM     18  C   UNL     1      35.752 -21.807 -19.188  0.00  0.00    -0.000 C 
ATOM     19  C   UNL     1      33.422 -22.410 -19.024  0.00  0.00    -0.000 C 
ATOM     20  C   UNL     1      34.488 -21.903 -19.763  0.00  0.00    +0.000 C 
ENDROOT
BRANCH   2  21
ATOM     21  O   UNL     1      36.738 -22.581 -10.649  0.00  0.00    -0.379 OA
ATOM     22  H   UNL     1      36.797 -22.068 -11.469  0.00  0.00    +0.211 HD
ENDBRANCH   2  21
BRANCH   3  23
ATOM     23  O   UNL     1      35.520 -25.871 -11.646  0.00  0.00    -0.377 OA
ATOM     24  H   UNL     1      36.378 -26.219 -11.935  0.00  0.00    +0.211 HD
ENDBRANCH   3  23
BRANCH   4  25
ATOM     25  O   UNL     1      39.242 -23.816 -11.194  0.00  0.00    -0.382 OA
ATOM     26  H   UNL     1      39.302 -24.262 -10.335  0.00  0.00    +0.210 HD
ENDBRANCH   4  25
TORSDOF 3
ENDMDL
MODEL 3
REMARK VINA RESULT:     -10.5      3.066      4.986
REMARK  Name = 5287739
REMARK  3 active torsions:
REMARK  status: ('A' for Active; 'I' for Inactive)
REMARK    1  A    between atoms: C_2  and  O_21
REMARK    2  A    between atoms: C_3  and  O_23
REMARK    3  A    between atoms: C_4  and  O_25
REMARK                            x       y       z     vdW  Elec       q    Type
REMARK                         _______ _______ _______ _____ _____    ______ ____
ROOT
ATOM      1  C   UNL     1      31.738 -23.968 -15.357  0.00  0.00    -0.021 C 
ATOM      2  C   UNL     1      29.753 -25.415 -13.778  0.00  0.00    +0.168 C 
ATOM      3  C   UNL     1      31.061 -24.996 -13.104  0.00  0.00    +0.162 C 
ATOM      4  C   UNL     1      29.280 -24.315 -14.725  0.00  0.00    +0.144 C 
ATOM      5  C   UNL     1      30.300 -24.064 -15.835  0.00  0.00    +0.058 C 
ATOM      6  C   UNL     1      32.081 -24.423 -14.067  0.00  0.00    +0.003 C 
ATOM      7  C   UNL     1      32.753 -23.463 -16.226  0.00  0.00    -0.004 C 
ATOM      8  C   UNL     1      34.091 -23.385 -15.760  0.00  0.00    -0.000 C 
ATOM      9  C   UNL     1      34.415 -23.816 -14.456  0.00  0.00    -0.000 C 
ATOM     10  C   UNL     1      33.412 -24.330 -13.630  0.00  0.00    -0.002 C 
ATOM     11  C   UNL     1      35.125 -22.877 -16.596  0.00  0.00    -0.000 C 
ATOM     12  C   UNL     1      32.503 -23.032 -17.547  0.00  0.00    -0.000 C 
ATOM     13  C   UNL     1      34.830 -22.449 -17.909  0.00  0.00    -0.000 C 
ATOM     14  C   UNL     1      36.456 -22.798 -16.121  0.00  0.00    -0.000 C 
ATOM     15  C   UNL     1      35.738 -23.732 -14.001  0.00  0.00    -0.000 C 
ATOM     16  C   UNL     1      33.516 -22.536 -18.370  0.00  0.00    -0.000 C 
ATOM     17  C   UNL     1      36.746 -23.227 -14.822  0.00  0.00    -0.000 C 
ATOM     18  C   UNL     1      35.856 -21.950 -18.725  0.00  0.00    -0.000 C 
ATOM     19  C   UNL     1      37.463 -22.294 -16.958  0.00  0.00    -0.000 C 
ATOM     20  C   UNL     1      37.163 -21.872 -18.251  0.00  0.00    +0.000 C 
ENDROOT
BRANCH   2  21
ATOM     21  O   UNL     1      29.953 -26.625 -14.508  0.00  0.00    -0.379 OA
ATOM     22  H   UNL     1      29.575 -26.532 -15.396  0.00  0.00    +0.211 HD
ENDBRANCH   2  21
BRANCH   3  23
ATOM     23  O   UNL     1      30.791 -23.998 -12.121  0.00  0.00    -0.377 OA
ATOM     24  H   UNL     1      30.752 -23.127 -12.548  0.00  0.00    +0.211 HD
ENDBRANCH   3  23
BRANCH   4  25
ATOM     25  O   UNL     1      28.040 -24.682 -15.322  0.00  0.00    -0.382 OA
ATOM     26  H   UNL     1      28.006 -24.346 -16.232  0.00  0.00    +0.210 HD
ENDBRANCH   4  25
TORSDOF 3
ENDMDL
MODEL 4
REMARK VINA RESULT:     -10.1      1.531      3.772
REMARK  Name = 5287739
REMARK  3 active torsions:
REMARK  status: ('A' for Active; 'I' for Inactive)
REMARK    1  A    between atoms: C_2  and  O_21
REMARK    2  A    between atoms: C_3  and  O_23
REMARK    3  A    between atoms: C_4  and  O_25
REMARK                            x       y       z     vdW  Elec       q    Type
REMARK                         _______ _______ _______ _____ _____    ______ ____
ROOT
ATOM      1  C   UNL     1      36.473 -23.609 -15.713  0.00  0.00    -0.021 C 
ATOM      2  C   UNL     1      36.943 -24.788 -13.083  0.00  0.00    +0.168 C 
ATOM      3  C   UNL     1      35.571 -24.974 -13.734  0.00  0.00    +0.162 C 
ATOM      4  C   UNL     1      38.039 -24.887 -14.140  0.00  0.00    +0.144 C 
ATOM      5  C   UNL     1      37.889 -23.795 -15.198  0.00  0.00    +0.058 C 
ATOM      6  C   UNL     1      35.389 -24.165 -15.002  0.00  0.00    +0.003 C 
ATOM      7  C   UNL     1      36.231 -22.833 -16.887  0.00  0.00    -0.004 C 
ATOM      8  C   UNL     1      34.899 -22.669 -17.349  0.00  0.00    -0.000 C 
ATOM      9  C   UNL     1      33.826 -23.256 -16.645  0.00  0.00    -0.000 C 
ATOM     10  C   UNL     1      34.082 -23.990 -15.484  0.00  0.00    -0.002 C 
ATOM     11  C   UNL     1      34.623 -21.911 -18.521  0.00  0.00    -0.000 C 
ATOM     12  C   UNL     1      37.254 -22.203 -17.628  0.00  0.00    -0.000 C 
ATOM     13  C   UNL     1      35.677 -21.304 -19.239  0.00  0.00    -0.000 C 
ATOM     14  C   UNL     1      33.292 -21.757 -18.978  0.00  0.00    -0.000 C 
ATOM     15  C   UNL     1      32.514 -23.094 -17.110  0.00  0.00    -0.000 C 
ATOM     16  C   UNL     1      36.985 -21.456 -18.778  0.00  0.00    -0.000 C 
ATOM     17  C   UNL     1      32.250 -22.355 -18.263  0.00  0.00    -0.000 C 
ATOM     18  C   UNL     1      35.395 -20.560 -20.393  0.00  0.00    -0.000 C 
ATOM     19  C   UNL     1      33.038 -21.007 -20.136  0.00  0.00    -0.000 C 
ATOM     20  C   UNL     1      34.083 -20.414 -20.839  0.00  0.00    +0.000 C 
ENDROOT
BRANCH   2  21
ATOM     21  O   UNL     1      37.004 -23.512 -12.445  0.00  0.00    -0.379 OA
ATOM     22  H   UNL     1      37.572 -23.570 -11.661  0.00  0.00    +0.211 HD
ENDBRANCH   2  21
BRANCH   3  23
ATOM     23  O   UNL     1      35.388 -26.348 -14.073  0.00  0.00    -0.377 OA
ATOM     24  H   UNL     1      36.096 -26.876 -13.672  0.00  0.00    +0.211 HD
ENDBRANCH   3  23
BRANCH   4  25
ATOM     25  O   UNL     1      39.320 -24.758 -13.531  0.00  0.00    -0.382 OA
ATOM     26  H   UNL     1      39.345 -23.949 -12.997  0.00  0.00    +0.210 HD
ENDBRANCH   4  25
TORSDOF 3
ENDMDL
MODEL 5
REMARK VINA RESULT:     -10.1      1.367      3.423
REMARK  Name = 5287739
REMARK  3 active torsions:
REMARK  status: ('A' for Active; 'I' for Inactive)
REMARK    1  A    between atoms: C_2  and  O_21
REMARK    2  A    between atoms: C_3  and  O_23
REMARK    3  A    between atoms: C_4  and  O_25
REMARK                            x       y       z     vdW  Elec       q    Type
REMARK                         _______ _______ _______ _____ _____    ______ ____
ROOT
ATOM      1  C   UNL     1      37.023 -24.116 -15.013  0.00  0.00    -0.021 C 
ATOM      2  C   UNL     1      38.030 -25.166 -12.481  0.00  0.00    +0.168 C 
ATOM      3  C   UNL     1      36.583 -25.471 -12.876  0.00  0.00    +0.162 C 
ATOM      4  C   UNL     1      38.929 -25.226 -13.712  0.00  0.00    +0.144 C 
ATOM      5  C   UNL     1      38.516 -24.185 -14.751  0.00  0.00    +0.058 C 
ATOM      6  C   UNL     1      36.123 -24.721 -14.110  0.00  0.00    +0.003 C 
ATOM      7  C   UNL     1      36.522 -23.401 -16.143  0.00  0.00    -0.004 C 
ATOM      8  C   UNL     1      35.122 -23.347 -16.367  0.00  0.00    -0.000 C 
ATOM      9  C   UNL     1      34.235 -23.982 -15.472  0.00  0.00    -0.000 C 
ATOM     10  C   UNL     1      34.743 -24.655 -14.358  0.00  0.00    -0.002 C 
ATOM     11  C   UNL     1      34.590 -22.652 -17.489  0.00  0.00    -0.000 C 
ATOM     12  C   UNL     1      37.350 -22.728 -17.067  0.00  0.00    -0.000 C 
ATOM     13  C   UNL     1      35.454 -21.998 -18.394  0.00  0.00    -0.000 C 
ATOM     14  C   UNL     1      33.192 -22.607 -17.708  0.00  0.00    -0.000 C 
ATOM     15  C   UNL     1      32.854 -23.928 -15.702  0.00  0.00    -0.000 C 
ATOM     16  C   UNL     1      36.831 -22.043 -18.168  0.00  0.00    -0.000 C 
ATOM     17  C   UNL     1      32.338 -23.251 -16.807  0.00  0.00    -0.000 C 
ATOM     18  C   UNL     1      34.921 -21.317 -19.497  0.00  0.00    -0.000 C 
ATOM     19  C   UNL     1      32.685 -21.918 -18.819  0.00  0.00    -0.000 C 
ATOM     20  C   UNL     1      33.545 -21.278 -19.708  0.00  0.00    +0.000 C 
ENDROOT
BRANCH   2  21
ATOM     21  O   UNL     1      38.105 -23.868 -11.892  0.00  0.00    -0.379 OA
ATOM     22  H   UNL     1      39.034 -23.637 -11.737  0.00  0.00    +0.211 HD
ENDBRANCH   2  21
BRANCH   3  23
ATOM     23  O   UNL     1      36.447 -26.865 -13.146  0.00  0.00    -0.377 OA
ATOM     24  H   UNL     1      36.841 -27.065 -14.010  0.00  0.00    +0.211 HD
ENDBRANCH   3  23
BRANCH   4  25
ATOM     25  O   UNL     1      40.284 -24.986 -13.341  0.00  0.00    -0.382 OA
ATOM     26  H   UNL     1      40.828 -24.901 -14.140  0.00  0.00    +0.210 HD
ENDBRANCH   4  25
TORSDOF 3
ENDMDL
MODEL 6
REMARK VINA RESULT:      -9.8      2.060      3.599
REMARK  Name = 5287739
REMARK  3 active torsions:
REMARK  status: ('A' for Active; 'I' for Inactive)
REMARK    1  A    between atoms: C_2  and  O_21
REMARK    2  A    between atoms: C_3  and  O_23
REMARK    3  A    between atoms: C_4  and  O_25
REMARK                            x       y       z     vdW  Elec       q    Type
REMARK                         _______ _______ _______ _____ _____    ______ ____
ROOT
ATOM      1  C   UNL     1      35.083 -24.810 -13.776  0.00  0.00    -0.021 C 
ATOM      2  C   UNL     1      37.944 -25.398 -13.769  0.00  0.00    +0.168 C 
ATOM      3  C   UNL     1      37.410 -24.372 -14.770  0.00  0.00    +0.162 C 
ATOM      4  C   UNL     1      37.220 -25.247 -12.434  0.00  0.00    +0.144 C 
ATOM      5  C   UNL     1      35.721 -25.501 -12.584  0.00  0.00    +0.058 C 
ATOM      6  C   UNL     1      35.897 -24.291 -14.806  0.00  0.00    +0.003 C 
ATOM      7  C   UNL     1      33.662 -24.726 -13.884  0.00  0.00    -0.004 C 
ATOM      8  C   UNL     1      33.087 -24.078 -15.008  0.00  0.00    -0.000 C 
ATOM      9  C   UNL     1      33.914 -23.537 -16.016  0.00  0.00    -0.000 C 
ATOM     10  C   UNL     1      35.302 -23.652 -15.904  0.00  0.00    -0.002 C 
ATOM     11  C   UNL     1      31.674 -23.967 -15.141  0.00  0.00    -0.000 C 
ATOM     12  C   UNL     1      32.776 -25.260 -12.924  0.00  0.00    -0.000 C 
ATOM     13  C   UNL     1      30.823 -24.509 -14.154  0.00  0.00    -0.000 C 
ATOM     14  C   UNL     1      31.109 -23.315 -16.264  0.00  0.00    -0.000 C 
ATOM     15  C   UNL     1      33.339 -22.895 -17.121  0.00  0.00    -0.000 C 
ATOM     16  C   UNL     1      31.389 -25.155 -13.053  0.00  0.00    -0.000 C 
ATOM     17  C   UNL     1      31.954 -22.784 -17.243  0.00  0.00    -0.000 C 
ATOM     18  C   UNL     1      29.433 -24.394 -14.293  0.00  0.00    -0.000 C 
ATOM     19  C   UNL     1      29.715 -23.214 -16.379  0.00  0.00    -0.000 C 
ATOM     20  C   UNL     1      28.883 -23.749 -15.399  0.00  0.00    +0.000 C 
ENDROOT
BRANCH   2  21
ATOM     21  O   UNL     1      37.745 -26.716 -14.277  0.00  0.00    -0.379 OA
ATOM     22  H   UNL     1      38.497 -26.963 -14.836  0.00  0.00    +0.211 HD
ENDBRANCH   2  21
BRANCH   3  23
ATOM     23  O   UNL     1      37.900 -23.076 -14.431  0.00  0.00    -0.377 OA
ATOM     24  H   UNL     1      37.652 -22.445 -15.125  0.00  0.00    +0.211 HD
ENDBRANCH   3  23
BRANCH   4  25
ATOM     25  O   UNL     1      37.744 -26.171 -11.485  0.00  0.00    -0.382 OA
ATOM     26  H   UNL     1      37.653 -25.805 -10.591  0.00  0.00    +0.210 HD
ENDBRANCH   4  25
TORSDOF 3
ENDMDL
MODEL 7
REMARK VINA RESULT:      -9.8      2.150      4.532
REMARK  Name = 5287739
REMARK  3 active torsions:
REMARK  status: ('A' for Active; 'I' for Inactive)
REMARK    1  A    between atoms: C_2  and  O_21
REMARK    2  A    between atoms: C_3  and  O_23
REMARK    3  A    between atoms: C_4  and  O_25
REMARK                            x       y       z     vdW  Elec       q    Type
REMARK                         _______ _______ _______ _____ _____    ______ ____
ROOT
ATOM      1  C   UNL     1      35.271 -24.267 -14.659  0.00  0.00    -0.021 C 
ATOM      2  C   UNL     1      37.830 -24.558 -13.283  0.00  0.00    +0.168 C 
ATOM      3  C   UNL     1      36.604 -25.266 -12.705  0.00  0.00    +0.162 C 
ATOM      4  C   UNL     1      37.802 -24.629 -14.807  0.00  0.00    +0.144 C 
ATOM      5  C   UNL     1      36.568 -23.928 -15.372  0.00  0.00    +0.058 C 
ATOM      6  C   UNL     1      35.308 -24.890 -13.394  0.00  0.00    +0.003 C 
ATOM      7  C   UNL     1      34.016 -23.914 -15.242  0.00  0.00    -0.004 C 
ATOM      8  C   UNL     1      32.816 -24.238 -14.557  0.00  0.00    -0.000 C 
ATOM      9  C   UNL     1      32.867 -24.889 -13.306  0.00  0.00    -0.000 C 
ATOM     10  C   UNL     1      34.105 -25.203 -12.741  0.00  0.00    -0.002 C 
ATOM     11  C   UNL     1      31.548 -23.911 -15.114  0.00  0.00    -0.000 C 
ATOM     12  C   UNL     1      33.893 -23.247 -16.480  0.00  0.00    -0.000 C 
ATOM     13  C   UNL     1      31.469 -23.249 -16.359  0.00  0.00    -0.000 C 
ATOM     14  C   UNL     1      30.356 -24.242 -14.426  0.00  0.00    -0.000 C 
ATOM     15  C   UNL     1      31.678 -25.210 -12.637  0.00  0.00    -0.000 C 
ATOM     16  C   UNL     1      32.650 -22.922 -17.028  0.00  0.00    -0.000 C 
ATOM     17  C   UNL     1      30.438 -24.892 -13.191  0.00  0.00    -0.000 C 
ATOM     18  C   UNL     1      30.215 -22.932 -16.900  0.00  0.00    -0.000 C 
ATOM     19  C   UNL     1      29.115 -23.913 -14.990  0.00  0.00    -0.000 C 
ATOM     20  C   UNL     1      29.046 -23.263 -16.220  0.00  0.00    +0.000 C 
ENDROOT
BRANCH   2  21
ATOM     21  O   UNL     1      37.840 -23.193 -12.865  0.00  0.00    -0.379 OA
ATOM     22  H   UNL     1      36.931 -22.899 -12.703  0.00  0.00    +0.211 HD
ENDBRANCH   2  21
BRANCH   3  23
ATOM     23  O   UNL     1      36.764 -26.678 -12.835  0.00  0.00    -0.377 OA
ATOM     24  H   UNL     1      36.512 -27.109 -12.003  0.00  0.00    +0.211 HD
ENDBRANCH   3  23
BRANCH   4  25
ATOM     25  O   UNL     1      38.965 -24.009 -15.348  0.00  0.00    -0.382 OA
ATOM     26  H   UNL     1      38.979 -24.130 -16.311  0.00  0.00    +0.210 HD
ENDBRANCH   4  25
TORSDOF 3
ENDMDL
MODEL 8
REMARK VINA RESULT:      -9.5      1.439      3.636
REMARK  Name = 5287739
REMARK  3 active torsions:
REMARK  status: ('A' for Active; 'I' for Inactive)
REMARK    1  A    between atoms: C_2  and  O_21
REMARK    2  A    between atoms: C_3  and  O_23
REMARK    3  A    between atoms: C_4  and  O_25
REMARK                            x       y       z     vdW  Elec       q    Type
REMARK                         _______ _______ _______ _____ _____    ______ ____
ROOT
ATOM      1  C   UNL     1      35.275 -23.884 -14.761  0.00  0.00    -0.021 C 
ATOM      2  C   UNL     1      34.322 -24.877 -12.186  0.00  0.00    +0.168 C 
ATOM      3  C   UNL     1      33.343 -24.832 -13.361  0.00  0.00    +0.162 C 
ATOM      4  C   UNL     1      35.702 -25.307 -12.675  0.00  0.00    +0.144 C 
ATOM      5  C   UNL     1      36.263 -24.314 -13.692  0.00  0.00    +0.058 C 
ATOM      6  C   UNL     1      33.897 -24.128 -14.583  0.00  0.00    +0.003 C 
ATOM      7  C   UNL     1      35.729 -23.192 -15.924  0.00  0.00    -0.004 C 
ATOM      8  C   UNL     1      34.788 -22.796 -16.910  0.00  0.00    -0.000 C 
ATOM      9  C   UNL     1      33.416 -23.074 -16.733  0.00  0.00    -0.000 C 
ATOM     10  C   UNL     1      32.989 -23.730 -15.576  0.00  0.00    -0.002 C 
ATOM     11  C   UNL     1      35.208 -22.114 -18.086  0.00  0.00    -0.000 C 
ATOM     12  C   UNL     1      37.083 -22.866 -16.157  0.00  0.00    -0.000 C 
ATOM     13  C   UNL     1      36.574 -21.814 -18.284  0.00  0.00    -0.000 C 
ATOM     14  C   UNL     1      34.263 -21.727 -19.067  0.00  0.00    -0.000 C 
ATOM     15  C   UNL     1      32.493 -22.684 -17.712  0.00  0.00    -0.000 C 
ATOM     16  C   UNL     1      37.498 -22.194 -17.309  0.00  0.00    -0.000 C 
ATOM     17  C   UNL     1      32.910 -22.021 -18.866  0.00  0.00    -0.000 C 
ATOM     18  C   UNL     1      36.978 -21.142 -19.446  0.00  0.00    -0.000 C 
ATOM     19  C   UNL     1      34.694 -21.056 -20.220  0.00  0.00    -0.000 C 
ATOM     20  C   UNL     1      36.043 -20.766 -20.408  0.00  0.00    +0.000 C 
ENDROOT
BRANCH   2  21
ATOM     21  O   UNL     1      34.406 -23.588 -11.579  0.00  0.00    -0.379 OA
ATOM     22  H   UNL     1      35.327 -23.285 -11.592  0.00  0.00    +0.211 HD
ENDBRANCH   2  21
BRANCH   3  23
ATOM     23  O   UNL     1      33.005 -26.163 -13.749  0.00  0.00    -0.377 OA
ATOM     24  H   UNL     1      32.051 -26.216 -13.921  0.00  0.00    +0.211 HD
ENDBRANCH   3  23
BRANCH   4  25
ATOM     25  O   UNL     1      36.606 -25.392 -11.577  0.00  0.00    -0.382 OA
ATOM     26  H   UNL     1      36.152 -25.129 -10.762  0.00  0.00    +0.210 HD
ENDBRANCH   4  25
TORSDOF 3
ENDMDL
MODEL 9
REMARK VINA RESULT:      -9.4     13.712     16.697
REMARK  Name = 5287739
REMARK  3 active torsions:
REMARK  status: ('A' for Active; 'I' for Inactive)
REMARK    1  A    between atoms: C_2  and  O_21
REMARK    2  A    between atoms: C_3  and  O_23
REMARK    3  A    between atoms: C_4  and  O_25
REMARK                            x       y       z     vdW  Elec       q    Type
REMARK                         _______ _______ _______ _____ _____    ______ ____
ROOT
ATOM      1  C   UNL     1      32.762  -8.760 -22.572  0.00  0.00    -0.021 C 
ATOM      2  C   UNL     1      31.713  -6.049 -22.295  0.00  0.00    +0.168 C 
ATOM      3  C   UNL     1      31.608  -7.000 -21.101  0.00  0.00    +0.162 C 
ATOM      4  C   UNL     1      33.048  -6.252 -23.006  0.00  0.00    +0.144 C 
ATOM      5  C   UNL     1      33.176  -7.674 -23.549  0.00  0.00    +0.058 C 
ATOM      6  C   UNL     1      32.012  -8.424 -21.425  0.00  0.00    +0.003 C 
ATOM      7  C   UNL     1      33.088 -10.125 -22.834  0.00  0.00    -0.004 C 
ATOM      8  C   UNL     1      32.690 -11.125 -21.908  0.00  0.00    -0.000 C 
ATOM      9  C   UNL     1      31.966 -10.771 -20.749  0.00  0.00    -0.000 C 
ATOM     10  C   UNL     1      31.635  -9.432 -20.525  0.00  0.00    -0.002 C 
ATOM     11  C   UNL     1      33.007 -12.494 -22.133  0.00  0.00    -0.000 C 
ATOM     12  C   UNL     1      33.793 -10.552 -23.980  0.00  0.00    -0.000 C 
ATOM     13  C   UNL     1      33.721 -12.877 -23.289  0.00  0.00    -0.000 C 
ATOM     14  C   UNL     1      32.610 -13.484 -21.202  0.00  0.00    -0.000 C 
ATOM     15  C   UNL     1      31.580 -11.763 -19.838  0.00  0.00    -0.000 C 
ATOM     16  C   UNL     1      34.104 -11.895 -24.204  0.00  0.00    -0.000 C 
ATOM     17  C   UNL     1      31.899 -13.102 -20.059  0.00  0.00    -0.000 C 
ATOM     18  C   UNL     1      34.029 -14.228 -23.501  0.00  0.00    -0.000 C 
ATOM     19  C   UNL     1      32.932 -14.828 -21.438  0.00  0.00    -0.000 C 
ATOM     20  C   UNL     1      33.638 -15.197 -22.580  0.00  0.00    +0.000 C 
ENDROOT
BRANCH   2  21
ATOM     21  O   UNL     1      30.641  -6.296 -23.204  0.00  0.00    -0.379 OA
ATOM     22  H   UNL     1      30.641  -7.232 -23.455  0.00  0.00    +0.211 HD
ENDBRANCH   2  21
BRANCH   3  23
ATOM     23  O   UNL     1      32.458  -6.542 -20.051  0.00  0.00    -0.377 OA
ATOM     24  H   UNL     1      32.406  -5.575 -19.993  0.00  0.00    +0.211 HD
ENDBRANCH   3  23
BRANCH   4  25
ATOM     25  O   UNL     1      33.169  -5.338 -24.092  0.00  0.00    -0.382 OA
ATOM     26  H   UNL     1      32.698  -5.688 -24.864  0.00  0.00    +0.210 HD
ENDBRANCH   4  25
TORSDOF 3
ENDMDL
