MODEL 1
REMARK VINA RESULT:     -13.0      0.000      0.000
REMARK  Name = 5288641
REMARK  1 active torsions:
REMARK  status: ('A' for Active; 'I' for Inactive)
REMARK    1  A    between atoms: C_14  and  S_23
REMARK                            x       y       z     vdW  Elec       q    Type
REMARK                         _______ _______ _______ _____ _____    ______ ____
ROOT
ATOM      1  O   UNL     1      35.486 -24.733 -14.259  0.00  0.00    -0.270 OA
ATOM      2  O   UNL     1      32.026 -22.664 -17.649  0.00  0.00    -0.285 OA
ATOM      3  N   UNL     1      35.374 -23.156 -16.773  0.00  0.00    -0.310 N 
ATOM      4  N   UNL     1      33.298 -25.236 -13.522  0.00  0.00    -0.280 N 
ATOM      5  C   UNL     1      33.487 -24.020 -15.452  0.00  0.00    +0.071 C 
ATOM      6  C   UNL     1      32.068 -24.218 -15.176  0.00  0.00    +0.020 C 
ATOM      7  C   UNL     1      34.053 -23.370 -16.470  0.00  0.00    +0.092 C 
ATOM      8  C   UNL     1      32.011 -24.962 -13.994  0.00  0.00    +0.051 C 
ATOM      9  C   UNL     1      34.274 -24.690 -14.363  0.00  0.00    +0.251 C 
ATOM     10  C   UNL     1      34.219 -22.115 -18.465  0.00  0.00    +0.054 C 
ATOM     11  C   UNL     1      35.485 -22.418 -17.945  0.00  0.00    +0.051 C 
ATOM     12  C   UNL     1      33.233 -22.709 -17.545  0.00  0.00    +0.210 C 
ATOM     13  C   UNL     1      30.910 -23.832 -15.824  0.00  0.00    +0.020 C 
ATOM     14  C   UNL     1      29.687 -24.210 -15.258  0.00  0.00    +0.112 C 
ATOM     15  C   UNL     1      30.815 -25.345 -13.419  0.00  0.00    +0.016 C 
ATOM     16  C   UNL     1      29.640 -24.959 -14.068  0.00  0.00    +0.020 C 
ATOM     17  C   UNL     1      34.031 -21.390 -19.622  0.00  0.00    +0.004 C 
ATOM     18  C   UNL     1      36.621 -21.986 -18.598  0.00  0.00    +0.015 C 
ATOM     19  C   UNL     1      35.179 -20.953 -20.283  0.00  0.00    +0.000 C 
ATOM     20  C   UNL     1      36.461 -21.248 -19.776  0.00  0.00    +0.001 C 
ATOM     21  H   UNL     1      36.135 -23.478 -16.238  0.00  0.00    +0.152 HD
ATOM     22  H   UNL     1      33.494 -25.748 -12.703  0.00  0.00    +0.155 HD
ENDROOT
BRANCH  14  23
ATOM     23  S   UNL     1      28.195 -23.744 -16.041  0.00  0.00    +0.042 S 
ATOM     24  O   UNL     1      28.569 -22.419 -16.922  0.00  0.00    -0.065 OA
ATOM     25  O   UNL     1      27.836 -24.794 -16.982  0.00  0.00    -0.065 OA
ATOM     26  O   UNL     1      27.274 -23.343 -14.989  0.00  0.00    -0.065 OA
ENDBRANCH  14  23
TORSDOF 1
ENDMDL
MODEL 2
REMARK VINA RESULT:     -11.5      1.123      1.318
REMARK  Name = 5288641
REMARK  1 active torsions:
REMARK  status: ('A' for Active; 'I' for Inactive)
REMARK    1  A    between atoms: C_14  and  S_23
REMARK                            x       y       z     vdW  Elec       q    Type
REMARK                         _______ _______ _______ _____ _____    ______ ____
ROOT
ATOM      1  O   UNL     1      36.525 -24.006 -15.539  0.00  0.00    -0.270 OA
ATOM      2  O   UNL     1      32.165 -22.213 -17.891  0.00  0.00    -0.285 OA
ATOM      3  N   UNL     1      35.653 -22.444 -17.911  0.00  0.00    -0.310 N 
ATOM      4  N   UNL     1      34.643 -24.676 -14.277  0.00  0.00    -0.280 N 
ATOM      5  C   UNL     1      34.239 -23.450 -16.167  0.00  0.00    +0.071 C 
ATOM      6  C   UNL     1      32.956 -23.757 -15.542  0.00  0.00    +0.020 C 
ATOM      7  C   UNL     1      34.475 -22.759 -17.283  0.00  0.00    +0.092 C 
ATOM      8  C   UNL     1      33.261 -24.502 -14.398  0.00  0.00    +0.051 C 
ATOM      9  C   UNL     1      35.327 -24.056 -15.329  0.00  0.00    +0.251 C 
ATOM     10  C   UNL     1      34.029 -21.497 -19.230  0.00  0.00    +0.054 C 
ATOM     11  C   UNL     1      35.405 -21.701 -19.058  0.00  0.00    +0.051 C 
ATOM     12  C   UNL     1      33.358 -22.165 -18.100  0.00  0.00    +0.210 C 
ATOM     13  C   UNL     1      31.646 -23.463 -15.864  0.00  0.00    +0.020 C 
ATOM     14  C   UNL     1      30.641 -23.933 -15.011  0.00  0.00    +0.112 C 
ATOM     15  C   UNL     1      32.284 -24.976 -13.544  0.00  0.00    +0.016 C 
ATOM     16  C   UNL     1      30.957 -24.682 -13.863  0.00  0.00    +0.020 C 
ATOM     17  C   UNL     1      33.496 -20.790 -20.287  0.00  0.00    +0.004 C 
ATOM     18  C   UNL     1      36.299 -21.184 -19.971  0.00  0.00    +0.015 C 
ATOM     19  C   UNL     1      34.400 -20.267 -21.211  0.00  0.00    +0.000 C 
ATOM     20  C   UNL     1      35.788 -20.461 -21.056  0.00  0.00    +0.001 C 
ATOM     21  H   UNL     1      36.547 -22.706 -17.594  0.00  0.00    +0.152 HD
ATOM     22  H   UNL     1      35.080 -25.170 -13.544  0.00  0.00    +0.155 HD
ENDROOT
BRANCH  14  23
ATOM     23  S   UNL     1      28.967 -23.584 -15.377  0.00  0.00    +0.042 S 
ATOM     24  O   UNL     1      28.948 -23.192 -16.964  0.00  0.00    -0.065 OA
ATOM     25  O   UNL     1      28.211 -24.819 -15.234  0.00  0.00    -0.065 OA
ATOM     26  O   UNL     1      28.606 -22.400 -14.614  0.00  0.00    -0.065 OA
ENDBRANCH  14  23
TORSDOF 1
ENDMDL
MODEL 3
REMARK VINA RESULT:     -11.1      3.506      6.806
REMARK  Name = 5288641
REMARK  1 active torsions:
REMARK  status: ('A' for Active; 'I' for Inactive)
REMARK    1  A    between atoms: C_14  and  S_23
REMARK                            x       y       z     vdW  Elec       q    Type
REMARK                         _______ _______ _______ _____ _____    ______ ____
ROOT
ATOM      1  O   UNL     1      34.555 -22.418 -18.049  0.00  0.00    -0.270 OA
ATOM      2  O   UNL     1      33.011 -24.620 -13.519  0.00  0.00    -0.285 OA
ATOM      3  N   UNL     1      32.095 -23.191 -16.575  0.00  0.00    -0.310 N 
ATOM      4  N   UNL     1      36.467 -22.970 -16.776  0.00  0.00    -0.280 N 
ATOM      5  C   UNL     1      34.431 -23.467 -15.856  0.00  0.00    +0.071 C 
ATOM      6  C   UNL     1      35.468 -23.884 -14.917  0.00  0.00    +0.020 C 
ATOM      7  C   UNL     1      33.107 -23.565 -15.728  0.00  0.00    +0.092 C 
ATOM      8  C   UNL     1      36.684 -23.559 -15.526  0.00  0.00    +0.051 C 
ATOM      9  C   UNL     1      35.101 -22.873 -17.061  0.00  0.00    +0.251 C 
ATOM     10  C   UNL     1      31.019 -24.090 -14.755  0.00  0.00    +0.054 C 
ATOM     11  C   UNL     1      30.861 -23.494 -16.014  0.00  0.00    +0.051 C 
ATOM     12  C   UNL     1      32.469 -24.167 -14.504  0.00  0.00    +0.210 C 
ATOM     13  C   UNL     1      35.440 -24.479 -13.671  0.00  0.00    +0.020 C 
ATOM     14  C   UNL     1      36.663 -24.743 -13.044  0.00  0.00    +0.112 C 
ATOM     15  C   UNL     1      37.902 -23.811 -14.925  0.00  0.00    +0.016 C 
ATOM     16  C   UNL     1      37.881 -24.413 -13.665  0.00  0.00    +0.020 C 
ATOM     17  C   UNL     1      29.959 -24.493 -13.971  0.00  0.00    +0.004 C 
ATOM     18  C   UNL     1      29.597 -23.286 -16.525  0.00  0.00    +0.015 C 
ATOM     19  C   UNL     1      28.680 -24.283 -14.488  0.00  0.00    +0.000 C 
ATOM     20  C   UNL     1      28.501 -23.685 -15.752  0.00  0.00    +0.001 C 
ATOM     21  H   UNL     1      32.223 -22.767 -17.454  0.00  0.00    +0.152 HD
ATOM     22  H   UNL     1      37.184 -22.663 -17.378  0.00  0.00    +0.155 HD
ENDROOT
BRANCH  14  23
ATOM     23  S   UNL     1      36.678 -25.494 -11.465  0.00  0.00    +0.042 S 
ATOM     24  O   UNL     1      35.133 -25.416 -10.938  0.00  0.00    -0.065 OA
ATOM     25  O   UNL     1      36.997 -26.902 -11.643  0.00  0.00    -0.065 OA
ATOM     26  O   UNL     1      37.493 -24.651 -10.605  0.00  0.00    -0.065 OA
ENDBRANCH  14  23
TORSDOF 1
ENDMDL
MODEL 4
REMARK VINA RESULT:     -10.9      2.694      5.064
REMARK  Name = 5288641
REMARK  1 active torsions:
REMARK  status: ('A' for Active; 'I' for Inactive)
REMARK    1  A    between atoms: C_14  and  S_23
REMARK                            x       y       z     vdW  Elec       q    Type
REMARK                         _______ _______ _______ _____ _____    ______ ____
ROOT
ATOM      1  O   UNL     1      30.489 -22.829 -16.884  0.00  0.00    -0.270 OA
ATOM      2  O   UNL     1      35.742 -22.781 -17.278  0.00  0.00    -0.285 OA
ATOM      3  N   UNL     1      32.666 -21.819 -18.634  0.00  0.00    -0.310 N 
ATOM      4  N   UNL     1      31.404 -24.006 -15.051  0.00  0.00    -0.280 N 
ATOM      5  C   UNL     1      32.883 -23.122 -16.558  0.00  0.00    +0.071 C 
ATOM      6  C   UNL     1      33.647 -23.801 -15.516  0.00  0.00    +0.020 C 
ATOM      7  C   UNL     1      33.337 -22.470 -17.630  0.00  0.00    +0.092 C 
ATOM      8  C   UNL     1      32.700 -24.319 -14.628  0.00  0.00    +0.051 C 
ATOM      9  C   UNL     1      31.424 -23.266 -16.239  0.00  0.00    +0.251 C 
ATOM     10  C   UNL     1      34.887 -21.567 -19.169  0.00  0.00    +0.054 C 
ATOM     11  C   UNL     1      33.567 -21.283 -19.546  0.00  0.00    +0.051 C 
ATOM     12  C   UNL     1      34.810 -22.345 -17.919  0.00  0.00    +0.210 C 
ATOM     13  C   UNL     1      34.998 -23.988 -15.295  0.00  0.00    +0.020 C 
ATOM     14  C   UNL     1      35.382 -24.711 -14.160  0.00  0.00    +0.112 C 
ATOM     15  C   UNL     1      33.057 -25.034 -13.502  0.00  0.00    +0.016 C 
ATOM     16  C   UNL     1      34.421 -25.228 -13.272  0.00  0.00    +0.020 C 
ATOM     17  C   UNL     1      35.985 -21.157 -19.893  0.00  0.00    +0.004 C 
ATOM     18  C   UNL     1      33.318 -20.559 -20.693  0.00  0.00    +0.015 C 
ATOM     19  C   UNL     1      35.733 -20.425 -21.054  0.00  0.00    +0.000 C 
ATOM     20  C   UNL     1      34.413 -20.129 -21.450  0.00  0.00    +0.001 C 
ATOM     21  H   UNL     1      31.688 -21.742 -18.700  0.00  0.00    +0.152 HD
ATOM     22  H   UNL     1      30.584 -24.272 -14.576  0.00  0.00    +0.155 HD
ENDROOT
BRANCH  14  23
ATOM     23  S   UNL     1      37.080 -24.975 -13.839  0.00  0.00    +0.042 S 
ATOM     24  O   UNL     1      37.150 -25.472 -12.284  0.00  0.00    -0.065 OA
ATOM     25  O   UNL     1      37.522 -26.090 -14.663  0.00  0.00    -0.065 OA
ATOM     26  O   UNL     1      37.733 -23.679 -13.931  0.00  0.00    -0.065 OA
ENDBRANCH  14  23
TORSDOF 1
ENDMDL
MODEL 5
REMARK VINA RESULT:     -10.2      2.975      5.558
REMARK  Name = 5288641
REMARK  1 active torsions:
REMARK  status: ('A' for Active; 'I' for Inactive)
REMARK    1  A    between atoms: C_14  and  S_23
REMARK                            x       y       z     vdW  Elec       q    Type
REMARK                         _______ _______ _______ _____ _____    ______ ____
ROOT
ATOM      1  O   UNL     1      31.424 -24.097 -15.769  0.00  0.00    -0.270 OA
ATOM      2  O   UNL     1      36.543 -22.855 -15.773  0.00  0.00    -0.285 OA
ATOM      3  N   UNL     1      33.503 -22.868 -17.498  0.00  0.00    -0.310 N 
ATOM      4  N   UNL     1      32.368 -24.734 -13.699  0.00  0.00    -0.280 N 
ATOM      5  C   UNL     1      33.771 -23.757 -15.220  0.00  0.00    +0.071 C 
ATOM      6  C   UNL     1      34.546 -24.071 -14.024  0.00  0.00    +0.020 C 
ATOM      7  C   UNL     1      34.185 -23.183 -16.351  0.00  0.00    +0.092 C 
ATOM      8  C   UNL     1      33.645 -24.662 -13.133  0.00  0.00    +0.051 C 
ATOM      9  C   UNL     1      32.354 -24.197 -14.991  0.00  0.00    +0.251 C 
ATOM     10  C   UNL     1      35.656 -22.176 -17.902  0.00  0.00    +0.054 C 
ATOM     11  C   UNL     1      34.357 -22.275 -18.419  0.00  0.00    +0.051 C 
ATOM     12  C   UNL     1      35.615 -22.755 -16.547  0.00  0.00    +0.210 C 
ATOM     13  C   UNL     1      35.871 -23.896 -13.674  0.00  0.00    +0.020 C 
ATOM     14  C   UNL     1      36.276 -24.328 -12.407  0.00  0.00    +0.112 C 
ATOM     15  C   UNL     1      34.024 -25.096 -11.878  0.00  0.00    +0.016 C 
ATOM     16  C   UNL     1      35.362 -24.922 -11.518  0.00  0.00    +0.020 C 
ATOM     17  C   UNL     1      36.709 -21.628 -18.603  0.00  0.00    +0.004 C 
ATOM     18  C   UNL     1      34.082 -21.810 -19.689  0.00  0.00    +0.015 C 
ATOM     19  C   UNL     1      36.431 -21.158 -19.886  0.00  0.00    +0.000 C 
ATOM     20  C   UNL     1      35.132 -21.248 -20.424  0.00  0.00    +0.001 C 
ATOM     21  H   UNL     1      32.545 -23.038 -17.649  0.00  0.00    +0.152 HD
ATOM     22  H   UNL     1      31.579 -25.115 -13.247  0.00  0.00    +0.155 HD
ENDROOT
BRANCH  14  23
ATOM     23  S   UNL     1      37.944 -24.128 -11.920  0.00  0.00    +0.042 S 
ATOM     24  O   UNL     1      38.825 -24.552 -13.230  0.00  0.00    -0.065 OA
ATOM     25  O   UNL     1      38.176 -22.711 -11.691  0.00  0.00    -0.065 OA
ATOM     26  O   UNL     1      38.196 -25.102 -10.870  0.00  0.00    -0.065 OA
ENDBRANCH  14  23
TORSDOF 1
ENDMDL
MODEL 6
REMARK VINA RESULT:     -10.2      2.410      3.031
REMARK  Name = 5288641
REMARK  1 active torsions:
REMARK  status: ('A' for Active; 'I' for Inactive)
REMARK    1  A    between atoms: C_14  and  S_23
REMARK                            x       y       z     vdW  Elec       q    Type
REMARK                         _______ _______ _______ _____ _____    ______ ____
ROOT
ATOM      1  O   UNL     1      38.378 -23.143 -15.804  0.00  0.00    -0.270 OA
ATOM      2  O   UNL     1      33.253 -22.800 -16.975  0.00  0.00    -0.285 OA
ATOM      3  N   UNL     1      36.552 -22.116 -17.910  0.00  0.00    -0.310 N 
ATOM      4  N   UNL     1      37.127 -24.145 -14.068  0.00  0.00    -0.280 N 
ATOM      5  C   UNL     1      35.947 -23.269 -15.822  0.00  0.00    +0.071 C 
ATOM      6  C   UNL     1      34.995 -23.832 -14.870  0.00  0.00    +0.020 C 
ATOM      7  C   UNL     1      35.699 -22.660 -16.983  0.00  0.00    +0.092 C 
ATOM      8  C   UNL     1      35.765 -24.350 -13.825  0.00  0.00    +0.051 C 
ATOM      9  C   UNL     1      37.331 -23.481 -15.283  0.00  0.00    +0.251 C 
ATOM     10  C   UNL     1      34.455 -21.766 -18.782  0.00  0.00    +0.054 C 
ATOM     11  C   UNL     1      35.832 -21.586 -18.973  0.00  0.00    +0.051 C 
ATOM     12  C   UNL     1      34.296 -22.464 -17.494  0.00  0.00    +0.210 C 
ATOM     13  C   UNL     1      33.616 -23.924 -14.844  0.00  0.00    +0.020 C 
ATOM     14  C   UNL     1      33.023 -24.549 -13.741  0.00  0.00    +0.112 C 
ATOM     15  C   UNL     1      35.200 -24.971 -12.728  0.00  0.00    +0.016 C 
ATOM     16  C   UNL     1      33.807 -25.067 -12.694  0.00  0.00    +0.020 C 
ATOM     17  C   UNL     1      33.504 -21.335 -19.683  0.00  0.00    +0.004 C 
ATOM     18  C   UNL     1      36.295 -20.951 -20.107  0.00  0.00    +0.015 C 
ATOM     19  C   UNL     1      33.972 -20.693 -20.830  0.00  0.00    +0.000 C 
ATOM     20  C   UNL     1      35.352 -20.503 -21.040  0.00  0.00    +0.001 C 
ATOM     21  H   UNL     1      37.533 -22.102 -17.833  0.00  0.00    +0.152 HD
ATOM     22  H   UNL     1      37.850 -24.430 -13.462  0.00  0.00    +0.155 HD
ENDROOT
BRANCH  14  23
ATOM     23  S   UNL     1      31.282 -24.688 -13.662  0.00  0.00    +0.042 S 
ATOM     24  O   UNL     1      30.720 -23.689 -14.827  0.00  0.00    -0.065 OA
ATOM     25  O   UNL     1      30.923 -26.043 -14.052  0.00  0.00    -0.065 OA
ATOM     26  O   UNL     1      30.875 -24.154 -12.372  0.00  0.00    -0.065 OA
ENDBRANCH  14  23
TORSDOF 1
ENDMDL
