MODEL 1
REMARK VINA RESULT:     -12.4      0.000      0.000
REMARK  Name = 5287728
REMARK  9 active torsions:
REMARK  status: ('A' for Active; 'I' for Inactive)
REMARK    1  A    between atoms: S_1  and  N_4
REMARK    2  A    between atoms: S_1  and  N_22
REMARK    3  A    between atoms: C_5  and  N_10
REMARK    4  A    between atoms: N_10  and  C_13
REMARK    5  A    between atoms: C_13  and  C_14
REMARK    6  A    between atoms: C_15  and  O_20
REMARK    7  A    between atoms: N_22  and  C_24
REMARK    8  A    between atoms: C_27  and  O_30
REMARK    9  A    between atoms: O_30  and  C_32
REMARK                            x       y       z     vdW  Elec       q    Type
REMARK                         _______ _______ _______ _____ _____    ______ ____
ROOT
ATOM      1  S   UNL     1      36.145 -18.997 -20.932  0.00  0.00    +0.113 S 
ATOM      2  O   UNL     1      35.554 -17.754 -20.470  0.00  0.00    -0.138 OA
ATOM      3  O   UNL     1      37.585 -19.175 -20.898  0.00  0.00    -0.138 OA
ENDROOT
BRANCH   1   4
ATOM      4  N   UNL     1      35.415 -20.286 -20.068  0.00  0.00    -0.143 NA
ATOM      5  C   UNL     1      34.252 -22.803 -19.193  0.00  0.00    -0.059 C 
ATOM      6  C   UNL     1      33.390 -21.575 -19.501  0.00  0.00    -0.002 C 
ATOM      7  C   UNL     1      35.661 -22.370 -18.771  0.00  0.00    -0.002 C 
ATOM      8  C   UNL     1      34.058 -20.684 -20.545  0.00  0.00    +0.095 C 
ATOM      9  C   UNL     1      36.295 -21.467 -19.825  0.00  0.00    +0.095 C 
BRANCH   5  10
ATOM     10  N   UNL     1      33.634 -23.597 -18.135  0.00  0.00    +0.388 N 
ATOM     11  H   UNL     1      33.885 -24.578 -18.261  0.00  0.00    -0.084 HD
ATOM     12  H   UNL     1      32.622 -23.481 -18.186  0.00  0.00    -0.084 HD
BRANCH  10  13
ATOM     13  C   UNL     1      34.089 -23.154 -16.825  0.00  0.00    -0.051 C 
BRANCH  13  14
ATOM     14  C   UNL     1      33.161 -23.604 -15.728  0.00  0.00    -0.010 C 
ATOM     15  C   UNL     1      31.794 -23.382 -15.830  0.00  0.00    +0.128 C 
ATOM     16  C   UNL     1      33.698 -24.243 -14.617  0.00  0.00    -0.003 C 
ATOM     17  C   UNL     1      30.949 -23.805 -14.804  0.00  0.00    +0.036 C 
ATOM     18  C   UNL     1      32.853 -24.665 -13.591  0.00  0.00    -0.000 C 
ATOM     19  C   UNL     1      31.479 -24.447 -13.685  0.00  0.00    +0.003 C 
BRANCH  15  20
ATOM     20  O   UNL     1      31.260 -22.756 -16.917  0.00  0.00    -0.506 OA
ATOM     21  H   UNL     1      31.823 -22.345 -17.544  0.00  0.00    +0.292 HD
ENDBRANCH  15  20
ENDBRANCH  13  14
ENDBRANCH  10  13
ENDBRANCH   5  10
ENDBRANCH   1   4
BRANCH   1  22
ATOM     22  N   UNL     1      35.548 -19.299 -22.523  0.00  0.00    -0.205 N 
ATOM     23  H   UNL     1      35.524 -20.208 -22.902  0.00  0.00    +0.175 HD
BRANCH  22  24
ATOM     24  C   UNL     1      35.088 -18.159 -23.272  0.00  0.00    +0.069 C 
ATOM     25  C   UNL     1      35.263 -16.882 -22.754  0.00  0.00    +0.053 C 
ATOM     26  C   UNL     1      34.473 -18.349 -24.503  0.00  0.00    +0.016 C 
ATOM     27  C   UNL     1      34.815 -15.777 -23.479  0.00  0.00    +0.147 C 
ATOM     28  C   UNL     1      34.026 -17.245 -25.228  0.00  0.00    +0.004 C 
ATOM     29  C   UNL     1      34.198 -15.959 -24.716  0.00  0.00    +0.038 C 
BRANCH  27  30
ATOM     30  O   UNL     1      34.982 -14.522 -22.979  0.00  0.00    -0.453 OA
BRANCH  30  32
ATOM     31  F   UNL     1      30.823 -12.334 -20.139  0.00  0.00    -0.204 F 
ATOM     32  C   UNL     1      33.932 -13.970 -22.263  0.00  0.00    +0.145 C 
ATOM     33  C   UNL     1      33.306 -12.837 -22.750  0.00  0.00    +0.040 C 
ATOM     34  C   UNL     1      33.537 -14.567 -21.079  0.00  0.00    +0.040 C 
ATOM     35  C   UNL     1      32.250 -12.282 -22.029  0.00  0.00    +0.033 C 
ATOM     36  C   UNL     1      32.482 -14.011 -20.357  0.00  0.00    +0.033 C 
ATOM     37  C   UNL     1      31.838 -12.868 -20.832  0.00  0.00    +0.140 C 
ENDBRANCH  30  32
ENDBRANCH  27  30
ENDBRANCH  22  24
ENDBRANCH   1  22
TORSDOF 9
ENDMDL
MODEL 2
REMARK VINA RESULT:     -12.3      1.658      2.316
REMARK  Name = 5287728
REMARK  9 active torsions:
REMARK  status: ('A' for Active; 'I' for Inactive)
REMARK    1  A    between atoms: S_1  and  N_4
REMARK    2  A    between atoms: S_1  and  N_22
REMARK    3  A    between atoms: C_5  and  N_10
REMARK    4  A    between atoms: N_10  and  C_13
REMARK    5  A    between atoms: C_13  and  C_14
REMARK    6  A    between atoms: C_15  and  O_20
REMARK    7  A    between atoms: N_22  and  C_24
REMARK    8  A    between atoms: C_27  and  O_30
REMARK    9  A    between atoms: O_30  and  C_32
REMARK                            x       y       z     vdW  Elec       q    Type
REMARK                         _______ _______ _______ _____ _____    ______ ____
ROOT
ATOM      1  S   UNL     1      35.578 -18.672 -21.562  0.00  0.00    +0.113 S 
ATOM      2  O   UNL     1      37.005 -18.656 -21.827  0.00  0.00    -0.138 OA
ATOM      3  O   UNL     1      34.636 -18.801 -22.659  0.00  0.00    -0.138 OA
ENDROOT
BRANCH   1   4
ATOM      4  N   UNL     1      35.262 -19.914 -20.423  0.00  0.00    -0.143 NA
ATOM      5  C   UNL     1      34.793 -22.425 -19.035  0.00  0.00    -0.059 C 
ATOM      6  C   UNL     1      33.654 -21.455 -19.362  0.00  0.00    -0.002 C 
ATOM      7  C   UNL     1      36.118 -21.665 -18.911  0.00  0.00    -0.002 C 
ATOM      8  C   UNL     1      33.972 -20.639 -20.614  0.00  0.00    +0.095 C 
ATOM      9  C   UNL     1      36.400 -20.847 -20.167  0.00  0.00    +0.095 C 
BRANCH   5  10
ATOM     10  N   UNL     1      34.504 -23.135 -17.791  0.00  0.00    +0.388 N 
ATOM     11  H   UNL     1      34.784 -22.554 -17.001  0.00  0.00    -0.084 HD
ATOM     12  H   UNL     1      35.022 -24.014 -17.787  0.00  0.00    -0.084 HD
BRANCH  10  13
ATOM     13  C   UNL     1      33.083 -23.431 -17.685  0.00  0.00    -0.051 C 
BRANCH  13  14
ATOM     14  C   UNL     1      32.630 -23.496 -16.250  0.00  0.00    -0.010 C 
ATOM     15  C   UNL     1      31.329 -23.148 -15.909  0.00  0.00    +0.128 C 
ATOM     16  C   UNL     1      33.535 -23.908 -15.280  0.00  0.00    -0.003 C 
ATOM     17  C   UNL     1      30.926 -23.213 -14.576  0.00  0.00    +0.036 C 
ATOM     18  C   UNL     1      33.132 -23.973 -13.946  0.00  0.00    -0.000 C 
ATOM     19  C   UNL     1      31.828 -23.626 -13.595  0.00  0.00    +0.003 C 
BRANCH  15  20
ATOM     20  O   UNL     1      30.436 -22.743 -16.856  0.00  0.00    -0.506 OA
ATOM     21  H   UNL     1      30.155 -21.849 -16.882  0.00  0.00    +0.292 HD
ENDBRANCH  15  20
ENDBRANCH  13  14
ENDBRANCH  10  13
ENDBRANCH   5  10
ENDBRANCH   1   4
BRANCH   1  22
ATOM     22  N   UNL     1      35.205 -17.273 -20.623  0.00  0.00    -0.205 N 
ATOM     23  H   UNL     1      35.450 -17.209 -19.671  0.00  0.00    +0.175 HD
BRANCH  22  24
ATOM     24  C   UNL     1      34.519 -16.202 -21.297  0.00  0.00    +0.069 C 
ATOM     25  C   UNL     1      33.428 -15.594 -20.686  0.00  0.00    +0.053 C 
ATOM     26  C   UNL     1      34.954 -15.789 -22.550  0.00  0.00    +0.016 C 
ATOM     27  C   UNL     1      32.763 -14.557 -21.341  0.00  0.00    +0.147 C 
ATOM     28  C   UNL     1      34.288 -14.752 -23.203  0.00  0.00    +0.004 C 
ATOM     29  C   UNL     1      33.194 -14.136 -22.599  0.00  0.00    +0.038 C 
BRANCH  27  30
ATOM     30  O   UNL     1      31.693 -13.957 -20.751  0.00  0.00    -0.453 OA
BRANCH  30  32
ATOM     31  F   UNL     1      31.885  -8.515 -20.050  0.00  0.00    -0.204 F 
ATOM     32  C   UNL     1      31.741 -12.584 -20.574  0.00  0.00    +0.145 C 
ATOM     33  C   UNL     1      31.758 -11.762 -21.686  0.00  0.00    +0.040 C 
ATOM     34  C   UNL     1      31.771 -12.071 -19.290  0.00  0.00    +0.040 C 
ATOM     35  C   UNL     1      31.807 -10.380 -21.508  0.00  0.00    +0.033 C 
ATOM     36  C   UNL     1      31.821 -10.689 -19.111  0.00  0.00    +0.033 C 
ATOM     37  C   UNL     1      31.838  -9.843 -20.221  0.00  0.00    +0.140 C 
ENDBRANCH  30  32
ENDBRANCH  27  30
ENDBRANCH  22  24
ENDBRANCH   1  22
TORSDOF 9
ENDMDL
MODEL 3
REMARK VINA RESULT:     -12.2      3.600      6.383
REMARK  Name = 5287728
REMARK  9 active torsions:
REMARK  status: ('A' for Active; 'I' for Inactive)
REMARK    1  A    between atoms: S_1  and  N_4
REMARK    2  A    between atoms: S_1  and  N_22
REMARK    3  A    between atoms: C_5  and  N_10
REMARK    4  A    between atoms: N_10  and  C_13
REMARK    5  A    between atoms: C_13  and  C_14
REMARK    6  A    between atoms: C_15  and  O_20
REMARK    7  A    between atoms: N_22  and  C_24
REMARK    8  A    between atoms: C_27  and  O_30
REMARK    9  A    between atoms: O_30  and  C_32
REMARK                            x       y       z     vdW  Elec       q    Type
REMARK                         _______ _______ _______ _____ _____    ______ ____
ROOT
ATOM      1  S   UNL     1      33.349 -14.076 -23.087  0.00  0.00    +0.113 S 
ATOM      2  O   UNL     1      34.317 -13.031 -22.810  0.00  0.00    -0.138 OA
ATOM      3  O   UNL     1      32.765 -14.196 -24.412  0.00  0.00    -0.138 OA
ENDROOT
BRANCH   1   4
ATOM      4  N   UNL     1      34.055 -15.581 -22.666  0.00  0.00    -0.143 NA
ATOM      5  C   UNL     1      35.828 -17.768 -21.937  0.00  0.00    -0.059 C 
ATOM      6  C   UNL     1      35.261 -17.621 -23.353  0.00  0.00    -0.002 C 
ATOM      7  C   UNL     1      34.890 -17.111 -20.919  0.00  0.00    -0.002 C 
ATOM      8  C   UNL     1      34.984 -16.155 -23.683  0.00  0.00    +0.095 C 
ATOM      9  C   UNL     1      34.618 -15.655 -21.285  0.00  0.00    +0.095 C 
BRANCH   5  10
ATOM     10  N   UNL     1      36.009 -19.181 -21.614  0.00  0.00    +0.388 N 
ATOM     11  H   UNL     1      36.534 -19.261 -20.744  0.00  0.00    -0.084 HD
ATOM     12  H   UNL     1      36.515 -19.630 -22.378  0.00  0.00    -0.084 HD
BRANCH  10  13
ATOM     13  C   UNL     1      34.721 -19.842 -21.456  0.00  0.00    -0.051 C 
BRANCH  13  14
ATOM     14  C   UNL     1      34.728 -20.813 -20.306  0.00  0.00    -0.010 C 
ATOM     15  C   UNL     1      33.533 -21.306 -19.797  0.00  0.00    +0.128 C 
ATOM     16  C   UNL     1      35.947 -21.203 -19.766  0.00  0.00    -0.003 C 
ATOM     17  C   UNL     1      33.557 -22.204 -18.731  0.00  0.00    +0.036 C 
ATOM     18  C   UNL     1      35.971 -22.102 -18.699  0.00  0.00    -0.000 C 
ATOM     19  C   UNL     1      34.777 -22.602 -18.182  0.00  0.00    +0.003 C 
BRANCH  15  20
ATOM     20  O   UNL     1      32.334 -20.927 -20.322  0.00  0.00    -0.506 OA
ATOM     21  H   UNL     1      31.805 -21.551 -20.781  0.00  0.00    +0.292 HD
ENDBRANCH  15  20
ENDBRANCH  13  14
ENDBRANCH  10  13
ENDBRANCH   5  10
ENDBRANCH   1   4
BRANCH   1  22
ATOM     22  N   UNL     1      32.103 -13.963 -21.899  0.00  0.00    -0.205 N 
ATOM     23  H   UNL     1      31.557 -14.743 -21.647  0.00  0.00    +0.175 HD
BRANCH  22  24
ATOM     24  C   UNL     1      31.898 -12.673 -21.293  0.00  0.00    +0.069 C 
ATOM     25  C   UNL     1      31.434 -11.617 -22.068  0.00  0.00    +0.053 C 
ATOM     26  C   UNL     1      32.168 -12.499 -19.942  0.00  0.00    +0.016 C 
ATOM     27  C   UNL     1      31.238 -10.367 -21.480  0.00  0.00    +0.147 C 
ATOM     28  C   UNL     1      31.971 -11.249 -19.355  0.00  0.00    +0.004 C 
ATOM     29  C   UNL     1      31.506 -10.184 -20.124  0.00  0.00    +0.038 C 
BRANCH  27  30
ATOM     30  O   UNL     1      30.785  -9.326 -22.232  0.00  0.00    -0.453 OA
BRANCH  30  32
ATOM     31  F   UNL     1      34.494  -5.773 -24.170  0.00  0.00    -0.204 F 
ATOM     32  C   UNL     1      31.720  -8.430 -22.721  0.00  0.00    +0.145 C 
ATOM     33  C   UNL     1      31.294  -7.364 -23.493  0.00  0.00    +0.040 C 
ATOM     34  C   UNL     1      33.057  -8.623 -22.424  0.00  0.00    +0.040 C 
ATOM     35  C   UNL     1      32.236  -6.462 -23.985  0.00  0.00    +0.033 C 
ATOM     36  C   UNL     1      34.000  -7.721 -22.917  0.00  0.00    +0.033 C 
ATOM     37  C   UNL     1      33.589  -6.640 -23.697  0.00  0.00    +0.140 C 
ENDBRANCH  30  32
ENDBRANCH  27  30
ENDBRANCH  22  24
ENDBRANCH   1  22
TORSDOF 9
ENDMDL
MODEL 4
REMARK VINA RESULT:     -12.0      3.155     10.086
REMARK  Name = 5287728
REMARK  9 active torsions:
REMARK  status: ('A' for Active; 'I' for Inactive)
REMARK    1  A    between atoms: S_1  and  N_4
REMARK    2  A    between atoms: S_1  and  N_22
REMARK    3  A    between atoms: C_5  and  N_10
REMARK    4  A    between atoms: N_10  and  C_13
REMARK    5  A    between atoms: C_13  and  C_14
REMARK    6  A    between atoms: C_15  and  O_20
REMARK    7  A    between atoms: N_22  and  C_24
REMARK    8  A    between atoms: C_27  and  O_30
REMARK    9  A    between atoms: O_30  and  C_32
REMARK                            x       y       z     vdW  Elec       q    Type
REMARK                         _______ _______ _______ _____ _____    ______ ____
ROOT
ATOM      1  S   UNL     1      35.443 -18.479 -21.636  0.00  0.00    +0.113 S 
ATOM      2  O   UNL     1      35.793 -19.051 -22.924  0.00  0.00    -0.138 OA
ATOM      3  O   UNL     1      36.454 -18.338 -20.603  0.00  0.00    -0.138 OA
ENDROOT
BRANCH   1   4
ATOM      4  N   UNL     1      34.729 -16.945 -21.913  0.00  0.00    -0.143 NA
ATOM      5  C   UNL     1      34.133 -14.113 -22.202  0.00  0.00    -0.059 C 
ATOM      6  C   UNL     1      33.618 -14.934 -21.015  0.00  0.00    -0.002 C 
ATOM      7  C   UNL     1      34.362 -15.022 -23.415  0.00  0.00    -0.002 C 
ATOM      8  C   UNL     1      34.561 -16.093 -20.700  0.00  0.00    +0.095 C 
ATOM      9  C   UNL     1      35.293 -16.179 -23.064  0.00  0.00    +0.095 C 
BRANCH   5  10
ATOM     10  N   UNL     1      33.176 -13.061 -22.537  0.00  0.00    +0.388 N 
ATOM     11  H   UNL     1      32.899 -13.159 -23.514  0.00  0.00    -0.084 HD
ATOM     12  H   UNL     1      33.618 -12.155 -22.382  0.00  0.00    -0.084 HD
BRANCH  10  13
ATOM     13  C   UNL     1      31.993 -13.154 -21.694  0.00  0.00    -0.051 C 
BRANCH  13  14
ATOM     14  C   UNL     1      31.850 -11.954 -20.796  0.00  0.00    -0.010 C 
ATOM     15  C   UNL     1      31.944 -10.671 -21.319  0.00  0.00    +0.128 C 
ATOM     16  C   UNL     1      31.624 -12.157 -19.440  0.00  0.00    -0.003 C 
ATOM     17  C   UNL     1      31.809  -9.571 -20.472  0.00  0.00    +0.036 C 
ATOM     18  C   UNL     1      31.490 -11.056 -18.593  0.00  0.00    -0.000 C 
ATOM     19  C   UNL     1      31.582  -9.764 -19.109  0.00  0.00    +0.003 C 
BRANCH  15  20
ATOM     20  O   UNL     1      32.165 -10.466 -22.648  0.00  0.00    -0.506 OA
ATOM     21  H   UNL     1      31.881  -9.669 -23.052  0.00  0.00    +0.292 HD
ENDBRANCH  15  20
ENDBRANCH  13  14
ENDBRANCH  10  13
ENDBRANCH   5  10
ENDBRANCH   1   4
BRANCH   1  22
ATOM     22  N   UNL     1      34.090 -19.357 -21.025  0.00  0.00    -0.205 N 
ATOM     23  H   UNL     1      33.165 -19.073 -21.208  0.00  0.00    +0.175 HD
BRANCH  22  24
ATOM     24  C   UNL     1      34.377 -20.525 -20.233  0.00  0.00    +0.069 C 
ATOM     25  C   UNL     1      33.330 -21.251 -19.677  0.00  0.00    +0.053 C 
ATOM     26  C   UNL     1      35.696 -20.912 -20.035  0.00  0.00    +0.016 C 
ATOM     27  C   UNL     1      33.610 -22.382 -18.910  0.00  0.00    +0.147 C 
ATOM     28  C   UNL     1      35.974 -22.043 -19.268  0.00  0.00    +0.004 C 
ATOM     29  C   UNL     1      34.931 -22.778 -18.706  0.00  0.00    +0.038 C 
BRANCH  27  30
ATOM     30  O   UNL     1      32.591 -23.098 -18.360  0.00  0.00    -0.453 OA
BRANCH  30  32
ATOM     31  F   UNL     1      32.523 -23.655 -12.898  0.00  0.00    -0.204 F 
ATOM     32  C   UNL     1      32.574 -23.239 -16.982  0.00  0.00    +0.145 C 
ATOM     33  C   UNL     1      31.377 -23.089 -16.304  0.00  0.00    +0.040 C 
ATOM     34  C   UNL     1      33.754 -23.526 -16.319  0.00  0.00    +0.040 C 
ATOM     35  C   UNL     1      31.360 -23.231 -14.917  0.00  0.00    +0.033 C 
ATOM     36  C   UNL     1      33.737 -23.666 -14.932  0.00  0.00    +0.033 C 
ATOM     37  C   UNL     1      32.540 -23.519 -14.231  0.00  0.00    +0.140 C 
ENDBRANCH  30  32
ENDBRANCH  27  30
ENDBRANCH  22  24
ENDBRANCH   1  22
TORSDOF 9
ENDMDL
MODEL 5
REMARK VINA RESULT:     -11.9      3.708      6.451
REMARK  Name = 5287728
REMARK  9 active torsions:
REMARK  status: ('A' for Active; 'I' for Inactive)
REMARK    1  A    between atoms: S_1  and  N_4
REMARK    2  A    between atoms: S_1  and  N_22
REMARK    3  A    between atoms: C_5  and  N_10
REMARK    4  A    between atoms: N_10  and  C_13
REMARK    5  A    between atoms: C_13  and  C_14
REMARK    6  A    between atoms: C_15  and  O_20
REMARK    7  A    between atoms: N_22  and  C_24
REMARK    8  A    between atoms: C_27  and  O_30
REMARK    9  A    between atoms: O_30  and  C_32
REMARK                            x       y       z     vdW  Elec       q    Type
REMARK                         _______ _______ _______ _____ _____    ______ ____
ROOT
ATOM      1  S   UNL     1      33.341 -14.076 -23.533  0.00  0.00    +0.113 S 
ATOM      2  O   UNL     1      34.312 -13.013 -23.350  0.00  0.00    -0.138 OA
ATOM      3  O   UNL     1      32.776 -14.327 -24.847  0.00  0.00    -0.138 OA
ENDROOT
BRANCH   1   4
ATOM      4  N   UNL     1      34.030 -15.533 -22.948  0.00  0.00    -0.143 NA
ATOM      5  C   UNL     1      35.781 -17.653 -22.003  0.00  0.00    -0.059 C 
ATOM      6  C   UNL     1      35.175 -17.668 -23.410  0.00  0.00    -0.002 C 
ATOM      7  C   UNL     1      34.885 -16.855 -21.049  0.00  0.00    -0.002 C 
ATOM      8  C   UNL     1      34.917 -16.249 -23.911  0.00  0.00    +0.095 C 
ATOM      9  C   UNL     1      34.631 -15.449 -21.584  0.00  0.00    +0.095 C 
BRANCH   5  10
ATOM     10  N   UNL     1      35.943 -19.020 -21.513  0.00  0.00    +0.388 N 
ATOM     11  H   UNL     1      36.404 -18.997 -20.603  0.00  0.00    -0.084 HD
ATOM     12  H   UNL     1      36.506 -19.544 -22.183  0.00  0.00    -0.084 HD
BRANCH  10  13
ATOM     13  C   UNL     1      34.650 -19.675 -21.376  0.00  0.00    -0.051 C 
BRANCH  13  14
ATOM     14  C   UNL     1      34.663 -20.717 -20.289  0.00  0.00    -0.010 C 
ATOM     15  C   UNL     1      33.470 -21.230 -19.795  0.00  0.00    +0.128 C 
ATOM     16  C   UNL     1      35.885 -21.152 -19.792  0.00  0.00    -0.003 C 
ATOM     17  C   UNL     1      33.500 -22.194 -18.789  0.00  0.00    +0.036 C 
ATOM     18  C   UNL     1      35.914 -22.116 -18.784  0.00  0.00    -0.000 C 
ATOM     19  C   UNL     1      34.722 -22.637 -18.283  0.00  0.00    +0.003 C 
BRANCH  15  20
ATOM     20  O   UNL     1      32.268 -20.808 -20.278  0.00  0.00    -0.506 OA
ATOM     21  H   UNL     1      32.216 -20.022 -20.787  0.00  0.00    +0.292 HD
ENDBRANCH  15  20
ENDBRANCH  13  14
ENDBRANCH  10  13
ENDBRANCH   5  10
ENDBRANCH   1   4
BRANCH   1  22
ATOM     22  N   UNL     1      32.078 -13.833 -22.383  0.00  0.00    -0.205 N 
ATOM     23  H   UNL     1      31.404 -14.528 -22.201  0.00  0.00    +0.175 HD
BRANCH  22  24
ATOM     24  C   UNL     1      32.055 -12.565 -21.700  0.00  0.00    +0.069 C 
ATOM     25  C   UNL     1      32.486 -11.422 -22.362  0.00  0.00    +0.053 C 
ATOM     26  C   UNL     1      31.603 -12.501 -20.388  0.00  0.00    +0.016 C 
ATOM     27  C   UNL     1      32.464 -10.195 -21.700  0.00  0.00    +0.147 C 
ATOM     28  C   UNL     1      31.582 -11.273 -19.727  0.00  0.00    +0.004 C 
ATOM     29  C   UNL     1      32.012 -10.120 -20.383  0.00  0.00    +0.038 C 
BRANCH  27  30
ATOM     30  O   UNL     1      32.886  -9.070 -22.340  0.00  0.00    -0.453 OA
BRANCH  30  32
ATOM     31  F   UNL     1      29.970  -4.474 -21.616  0.00  0.00    -0.204 F 
ATOM     32  C   UNL     1      32.150  -7.911 -22.157  0.00  0.00    +0.145 C 
ATOM     33  C   UNL     1      30.988  -7.729 -22.885  0.00  0.00    +0.040 C 
ATOM     34  C   UNL     1      32.597  -6.966 -21.252  0.00  0.00    +0.040 C 
ATOM     35  C   UNL     1      30.248  -6.561 -22.701  0.00  0.00    +0.033 C 
ATOM     36  C   UNL     1      31.857  -5.798 -21.068  0.00  0.00    +0.033 C 
ATOM     37  C   UNL     1      30.682  -5.596 -21.793  0.00  0.00    +0.140 C 
ENDBRANCH  30  32
ENDBRANCH  27  30
ENDBRANCH  22  24
ENDBRANCH   1  22
TORSDOF 9
ENDMDL
MODEL 6
REMARK VINA RESULT:     -11.8      3.087     10.366
REMARK  Name = 5287728
REMARK  9 active torsions:
REMARK  status: ('A' for Active; 'I' for Inactive)
REMARK    1  A    between atoms: S_1  and  N_4
REMARK    2  A    between atoms: S_1  and  N_22
REMARK    3  A    between atoms: C_5  and  N_10
REMARK    4  A    between atoms: N_10  and  C_13
REMARK    5  A    between atoms: C_13  and  C_14
REMARK    6  A    between atoms: C_15  and  O_20
REMARK    7  A    between atoms: N_22  and  C_24
REMARK    8  A    between atoms: C_27  and  O_30
REMARK    9  A    between atoms: O_30  and  C_32
REMARK                            x       y       z     vdW  Elec       q    Type
REMARK                         _______ _______ _______ _____ _____    ______ ____
ROOT
ATOM      1  S   UNL     1      33.610 -23.363 -17.958  0.00  0.00    +0.113 S 
ATOM      2  O   UNL     1      32.404 -22.918 -17.285  0.00  0.00    -0.138 OA
ATOM      3  O   UNL     1      33.673 -24.693 -18.538  0.00  0.00    -0.138 OA
ENDROOT
BRANCH   1   4
ATOM      4  N   UNL     1      33.991 -22.219 -19.178  0.00  0.00    -0.143 NA
ATOM      5  C   UNL     1      34.668 -19.847 -20.719  0.00  0.00    -0.059 C 
ATOM      6  C   UNL     1      33.251 -20.431 -20.708  0.00  0.00    -0.002 C 
ATOM      7  C   UNL     1      35.696 -20.946 -20.427  0.00  0.00    -0.002 C 
ATOM      8  C   UNL     1      32.967 -21.155 -19.394  0.00  0.00    +0.095 C 
ATOM      9  C   UNL     1      35.375 -21.663 -19.119  0.00  0.00    +0.095 C 
BRANCH   5  10
ATOM     10  N   UNL     1      34.946 -19.231 -22.014  0.00  0.00    +0.388 N 
ATOM     11  H   UNL     1      34.067 -18.930 -22.437  0.00  0.00    -0.084 HD
ATOM     12  H   UNL     1      35.411 -19.916 -22.610  0.00  0.00    -0.084 HD
BRANCH  10  13
ATOM     13  C   UNL     1      35.819 -18.078 -21.859  0.00  0.00    -0.051 C 
BRANCH  13  14
ATOM     14  C   UNL     1      35.062 -16.782 -21.971  0.00  0.00    -0.010 C 
ATOM     15  C   UNL     1      34.876 -16.183 -23.210  0.00  0.00    +0.128 C 
ATOM     16  C   UNL     1      34.555 -16.200 -20.815  0.00  0.00    -0.003 C 
ATOM     17  C   UNL     1      34.171 -14.983 -23.296  0.00  0.00    +0.036 C 
ATOM     18  C   UNL     1      33.851 -14.999 -20.902  0.00  0.00    -0.000 C 
ATOM     19  C   UNL     1      33.659 -14.391 -22.141  0.00  0.00    +0.003 C 
BRANCH  15  20
ATOM     20  O   UNL     1      35.370 -16.748 -24.348  0.00  0.00    -0.506 OA
ATOM     21  H   UNL     1      35.130 -16.402 -25.185  0.00  0.00    +0.292 HD
ENDBRANCH  15  20
ENDBRANCH  13  14
ENDBRANCH  10  13
ENDBRANCH   5  10
ENDBRANCH   1   4
BRANCH   1  22
ATOM     22  N   UNL     1      34.932 -23.126 -16.873  0.00  0.00    -0.205 N 
ATOM     23  H   UNL     1      35.729 -22.610 -17.135  0.00  0.00    +0.175 HD
BRANCH  22  24
ATOM     24  C   UNL     1      34.814 -23.719 -15.567  0.00  0.00    +0.069 C 
ATOM     25  C   UNL     1      33.594 -23.676 -14.902  0.00  0.00    +0.053 C 
ATOM     26  C   UNL     1      35.920 -24.327 -14.986  0.00  0.00    +0.016 C 
ATOM     27  C   UNL     1      33.481 -24.250 -13.635  0.00  0.00    +0.147 C 
ATOM     28  C   UNL     1      35.805 -24.901 -13.721  0.00  0.00    +0.004 C 
ATOM     29  C   UNL     1      34.586 -24.863 -13.045  0.00  0.00    +0.038 C 
BRANCH  27  30
ATOM     30  O   UNL     1      32.291 -24.212 -12.975  0.00  0.00    -0.453 OA
BRANCH  30  32
ATOM     31  F   UNL     1      27.699 -24.290 -15.984  0.00  0.00    -0.204 F 
ATOM     32  C   UNL     1      31.133 -24.232 -13.735  0.00  0.00    +0.145 C 
ATOM     33  C   UNL     1      30.617 -23.039 -14.208  0.00  0.00    +0.040 C 
ATOM     34  C   UNL     1      30.522 -25.444 -14.000  0.00  0.00    +0.040 C 
ATOM     35  C   UNL     1      29.451 -23.059 -14.972  0.00  0.00    +0.033 C 
ATOM     36  C   UNL     1      29.355 -25.464 -14.763  0.00  0.00    +0.033 C 
ATOM     37  C   UNL     1      28.820 -24.271 -15.250  0.00  0.00    +0.140 C 
ENDBRANCH  30  32
ENDBRANCH  27  30
ENDBRANCH  22  24
ENDBRANCH   1  22
TORSDOF 9
ENDMDL
MODEL 7
REMARK VINA RESULT:     -11.6      2.029      2.928
REMARK  Name = 5287728
REMARK  9 active torsions:
REMARK  status: ('A' for Active; 'I' for Inactive)
REMARK    1  A    between atoms: S_1  and  N_4
REMARK    2  A    between atoms: S_1  and  N_22
REMARK    3  A    between atoms: C_5  and  N_10
REMARK    4  A    between atoms: N_10  and  C_13
REMARK    5  A    between atoms: C_13  and  C_14
REMARK    6  A    between atoms: C_15  and  O_20
REMARK    7  A    between atoms: N_22  and  C_24
REMARK    8  A    between atoms: C_27  and  O_30
REMARK    9  A    between atoms: O_30  and  C_32
REMARK                            x       y       z     vdW  Elec       q    Type
REMARK                         _______ _______ _______ _____ _____    ______ ____
ROOT
ATOM      1  S   UNL     1      35.529 -18.617 -21.614  0.00  0.00    +0.113 S 
ATOM      2  O   UNL     1      36.944 -18.556 -21.929  0.00  0.00    -0.138 OA
ATOM      3  O   UNL     1      34.552 -18.779 -22.676  0.00  0.00    -0.138 OA
ENDROOT
BRANCH   1   4
ATOM      4  N   UNL     1      35.294 -19.866 -20.462  0.00  0.00    -0.143 NA
ATOM      5  C   UNL     1      34.940 -22.388 -19.058  0.00  0.00    -0.059 C 
ATOM      6  C   UNL     1      33.770 -21.435 -19.322  0.00  0.00    -0.002 C 
ATOM      7  C   UNL     1      36.258 -21.606 -19.003  0.00  0.00    -0.002 C 
ATOM      8  C   UNL     1      34.008 -20.612 -20.586  0.00  0.00    +0.095 C 
ATOM      9  C   UNL     1      36.459 -20.781 -20.270  0.00  0.00    +0.095 C 
BRANCH   5  10
ATOM     10  N   UNL     1      34.729 -23.105 -17.803  0.00  0.00    +0.388 N 
ATOM     11  H   UNL     1      34.931 -24.095 -17.945  0.00  0.00    -0.084 HD
ATOM     12  H   UNL     1      33.760 -22.978 -17.512  0.00  0.00    -0.084 HD
BRANCH  10  13
ATOM     13  C   UNL     1      35.602 -22.586 -16.760  0.00  0.00    -0.051 C 
BRANCH  13  14
ATOM     14  C   UNL     1      35.681 -23.518 -15.580  0.00  0.00    -0.010 C 
ATOM     15  C   UNL     1      34.522 -23.946 -14.946  0.00  0.00    +0.128 C 
ATOM     16  C   UNL     1      36.930 -23.938 -15.142  0.00  0.00    -0.003 C 
ATOM     17  C   UNL     1      34.613 -24.809 -13.854  0.00  0.00    +0.036 C 
ATOM     18  C   UNL     1      37.021 -24.801 -14.049  0.00  0.00    -0.000 C 
ATOM     19  C   UNL     1      35.863 -25.236 -13.406  0.00  0.00    +0.003 C 
BRANCH  15  20
ATOM     20  O   UNL     1      33.293 -23.537 -15.371  0.00  0.00    -0.506 OA
ATOM     21  H   UNL     1      32.584 -24.149 -15.412  0.00  0.00    +0.292 HD
ENDBRANCH  15  20
ENDBRANCH  13  14
ENDBRANCH  10  13
ENDBRANCH   5  10
ENDBRANCH   1   4
BRANCH   1  22
ATOM     22  N   UNL     1      35.145 -17.229 -20.663  0.00  0.00    -0.205 N 
ATOM     23  H   UNL     1      35.360 -17.185 -19.703  0.00  0.00    +0.175 HD
BRANCH  22  24
ATOM     24  C   UNL     1      34.494 -16.137 -21.340  0.00  0.00    +0.069 C 
ATOM     25  C   UNL     1      33.364 -15.557 -20.777  0.00  0.00    +0.053 C 
ATOM     26  C   UNL     1      35.004 -15.678 -22.548  0.00  0.00    +0.016 C 
ATOM     27  C   UNL     1      32.734 -14.500 -21.434  0.00  0.00    +0.147 C 
ATOM     28  C   UNL     1      34.373 -14.621 -23.204  0.00  0.00    +0.004 C 
ATOM     29  C   UNL     1      33.239 -14.032 -22.647  0.00  0.00    +0.038 C 
BRANCH  27  30
ATOM     30  O   UNL     1      31.626 -13.926 -20.891  0.00  0.00    -0.453 OA
BRANCH  30  32
ATOM     31  F   UNL     1      31.841  -8.568 -19.713  0.00  0.00    -0.204 F 
ATOM     32  C   UNL     1      31.680 -12.574 -20.594  0.00  0.00    +0.145 C 
ATOM     33  C   UNL     1      31.790 -12.179 -19.273  0.00  0.00    +0.040 C 
ATOM     34  C   UNL     1      31.624 -11.655 -21.625  0.00  0.00    +0.040 C 
ATOM     35  C   UNL     1      31.845 -10.818 -18.974  0.00  0.00    +0.033 C 
ATOM     36  C   UNL     1      31.677 -10.294 -21.327  0.00  0.00    +0.033 C 
ATOM     37  C   UNL     1      31.788  -9.875 -20.001  0.00  0.00    +0.140 C 
ENDBRANCH  30  32
ENDBRANCH  27  30
ENDBRANCH  22  24
ENDBRANCH   1  22
TORSDOF 9
ENDMDL
MODEL 8
REMARK VINA RESULT:     -11.5      1.769      2.403
REMARK  Name = 5287728
REMARK  9 active torsions:
REMARK  status: ('A' for Active; 'I' for Inactive)
REMARK    1  A    between atoms: S_1  and  N_4
REMARK    2  A    between atoms: S_1  and  N_22
REMARK    3  A    between atoms: C_5  and  N_10
REMARK    4  A    between atoms: N_10  and  C_13
REMARK    5  A    between atoms: C_13  and  C_14
REMARK    6  A    between atoms: C_15  and  O_20
REMARK    7  A    between atoms: N_22  and  C_24
REMARK    8  A    between atoms: C_27  and  O_30
REMARK    9  A    between atoms: O_30  and  C_32
REMARK                            x       y       z     vdW  Elec       q    Type
REMARK                         _______ _______ _______ _____ _____    ______ ____
ROOT
ATOM      1  S   UNL     1      36.214 -18.920 -21.129  0.00  0.00    +0.113 S 
ATOM      2  O   UNL     1      37.539 -18.967 -20.538  0.00  0.00    -0.138 OA
ATOM      3  O   UNL     1      36.039 -19.171 -22.548  0.00  0.00    -0.138 OA
ENDROOT
BRANCH   1   4
ATOM      4  N   UNL     1      35.205 -19.997 -20.256  0.00  0.00    -0.143 NA
ATOM      5  C   UNL     1      33.550 -22.206 -19.340  0.00  0.00    -0.059 C 
ATOM      6  C   UNL     1      32.946 -20.870 -19.786  0.00  0.00    -0.002 C 
ATOM      7  C   UNL     1      34.979 -21.996 -18.828  0.00  0.00    -0.002 C 
ATOM      8  C   UNL     1      33.836 -20.185 -20.821  0.00  0.00    +0.095 C 
ATOM      9  C   UNL     1      35.839 -21.294 -19.875  0.00  0.00    +0.095 C 
BRANCH   5  10
ATOM     10  N   UNL     1      32.724 -22.803 -18.293  0.00  0.00    +0.388 N 
ATOM     11  H   UNL     1      32.029 -23.414 -18.722  0.00  0.00    -0.084 HD
ATOM     12  H   UNL     1      32.267 -22.057 -17.770  0.00  0.00    -0.084 HD
BRANCH  10  13
ATOM     13  C   UNL     1      33.541 -23.583 -17.375  0.00  0.00    -0.051 C 
BRANCH  13  14
ATOM     14  C   UNL     1      32.925 -23.661 -16.004  0.00  0.00    -0.010 C 
ATOM     15  C   UNL     1      33.671 -24.114 -14.924  0.00  0.00    +0.128 C 
ATOM     16  C   UNL     1      31.600 -23.273 -15.843  0.00  0.00    -0.003 C 
ATOM     17  C   UNL     1      33.084 -24.180 -13.661  0.00  0.00    +0.036 C 
ATOM     18  C   UNL     1      31.013 -23.340 -14.579  0.00  0.00    -0.000 C 
ATOM     19  C   UNL     1      31.754 -23.793 -13.489  0.00  0.00    +0.003 C 
BRANCH  15  20
ATOM     20  O   UNL     1      34.970 -24.496 -15.075  0.00  0.00    -0.506 OA
ATOM     21  H   UNL     1      35.300 -24.711 -15.926  0.00  0.00    +0.292 HD
ENDBRANCH  15  20
ENDBRANCH  13  14
ENDBRANCH  10  13
ENDBRANCH   5  10
ENDBRANCH   1   4
BRANCH   1  22
ATOM     22  N   UNL     1      35.507 -17.404 -20.704  0.00  0.00    -0.205 N 
ATOM     23  H   UNL     1      35.500 -17.079 -19.774  0.00  0.00    +0.175 HD
BRANCH  22  24
ATOM     24  C   UNL     1      34.926 -16.635 -21.774  0.00  0.00    +0.069 C 
ATOM     25  C   UNL     1      33.985 -15.656 -21.483  0.00  0.00    +0.053 C 
ATOM     26  C   UNL     1      35.314 -16.883 -23.085  0.00  0.00    +0.016 C 
ATOM     27  C   UNL     1      33.422 -14.912 -22.521  0.00  0.00    +0.147 C 
ATOM     28  C   UNL     1      34.751 -16.139 -24.122  0.00  0.00    +0.004 C 
ATOM     29  C   UNL     1      33.806 -15.154 -23.840  0.00  0.00    +0.038 C 
BRANCH  27  30
ATOM     30  O   UNL     1      32.498 -13.951 -22.245  0.00  0.00    -0.453 OA
BRANCH  30  32
ATOM     31  F   UNL     1      33.751  -8.762 -23.529  0.00  0.00    -0.204 F 
ATOM     32  C   UNL     1      32.815 -12.642 -22.569  0.00  0.00    +0.145 C 
ATOM     33  C   UNL     1      32.125 -11.611 -21.956  0.00  0.00    +0.040 C 
ATOM     34  C   UNL     1      33.812 -12.400 -23.495  0.00  0.00    +0.040 C 
ATOM     35  C   UNL     1      32.443 -10.293 -22.282  0.00  0.00    +0.033 C 
ATOM     36  C   UNL     1      34.130 -11.082 -23.822  0.00  0.00    +0.033 C 
ATOM     37  C   UNL     1      33.445 -10.028 -23.215  0.00  0.00    +0.140 C 
ENDBRANCH  30  32
ENDBRANCH  27  30
ENDBRANCH  22  24
ENDBRANCH   1  22
TORSDOF 9
ENDMDL
MODEL 9
REMARK VINA RESULT:     -11.5      3.530     10.665
REMARK  Name = 5287728
REMARK  9 active torsions:
REMARK  status: ('A' for Active; 'I' for Inactive)
REMARK    1  A    between atoms: S_1  and  N_4
REMARK    2  A    between atoms: S_1  and  N_22
REMARK    3  A    between atoms: C_5  and  N_10
REMARK    4  A    between atoms: N_10  and  C_13
REMARK    5  A    between atoms: C_13  and  C_14
REMARK    6  A    between atoms: C_15  and  O_20
REMARK    7  A    between atoms: N_22  and  C_24
REMARK    8  A    between atoms: C_27  and  O_30
REMARK    9  A    between atoms: O_30  and  C_32
REMARK                            x       y       z     vdW  Elec       q    Type
REMARK                         _______ _______ _______ _____ _____    ______ ____
ROOT
ATOM      1  S   UNL     1      33.802 -23.316 -17.868  0.00  0.00    +0.113 S 
ATOM      2  O   UNL     1      33.567 -24.621 -18.459  0.00  0.00    -0.138 OA
ATOM      3  O   UNL     1      34.853 -23.142 -16.882  0.00  0.00    -0.138 OA
ENDROOT
BRANCH   1   4
ATOM      4  N   UNL     1      34.058 -22.195 -19.140  0.00  0.00    -0.143 NA
ATOM      5  C   UNL     1      34.541 -19.846 -20.786  0.00  0.00    -0.059 C 
ATOM      6  C   UNL     1      33.151 -20.481 -20.666  0.00  0.00    -0.002 C 
ATOM      7  C   UNL     1      35.627 -20.897 -20.534  0.00  0.00    -0.002 C 
ATOM      8  C   UNL     1      32.981 -21.176 -19.317  0.00  0.00    +0.095 C 
ATOM      9  C   UNL     1      35.420 -21.587 -19.188  0.00  0.00    +0.095 C 
BRANCH   5  10
ATOM     10  N   UNL     1      34.710 -19.258 -22.112  0.00  0.00    +0.388 N 
ATOM     11  H   UNL     1      33.820 -18.865 -22.420  0.00  0.00    -0.084 HD
ATOM     12  H   UNL     1      35.018 -19.986 -22.756  0.00  0.00    -0.084 HD
BRANCH  10  13
ATOM     13  C   UNL     1      35.713 -18.204 -22.084  0.00  0.00    -0.051 C 
BRANCH  13  14
ATOM     14  C   UNL     1      35.086 -16.835 -22.052  0.00  0.00    -0.010 C 
ATOM     15  C   UNL     1      34.973 -16.088 -23.217  0.00  0.00    +0.128 C 
ATOM     16  C   UNL     1      34.624 -16.338 -20.840  0.00  0.00    -0.003 C 
ATOM     17  C   UNL     1      34.390 -14.822 -23.170  0.00  0.00    +0.036 C 
ATOM     18  C   UNL     1      34.041 -15.072 -20.792  0.00  0.00    -0.000 C 
ATOM     19  C   UNL     1      33.924 -14.314 -21.957  0.00  0.00    +0.003 C 
BRANCH  15  20
ATOM     20  O   UNL     1      35.423 -16.569 -24.410  0.00  0.00    -0.506 OA
ATOM     21  H   UNL     1      35.381 -16.033 -25.178  0.00  0.00    +0.292 HD
ENDBRANCH  15  20
ENDBRANCH  13  14
ENDBRANCH  10  13
ENDBRANCH   5  10
ENDBRANCH   1   4
BRANCH   1  22
ATOM     22  N   UNL     1      32.298 -22.749 -17.239  0.00  0.00    -0.205 N 
ATOM     23  H   UNL     1      31.754 -22.085 -17.721  0.00  0.00    +0.175 HD
BRANCH  22  24
ATOM     24  C   UNL     1      31.877 -23.294 -15.974  0.00  0.00    +0.069 C 
ATOM     25  C   UNL     1      32.829 -23.610 -15.012  0.00  0.00    +0.053 C 
ATOM     26  C   UNL     1      30.524 -23.497 -15.731  0.00  0.00    +0.016 C 
ATOM     27  C   UNL     1      32.419 -24.139 -13.788  0.00  0.00    +0.147 C 
ATOM     28  C   UNL     1      30.116 -24.025 -14.507  0.00  0.00    +0.004 C 
ATOM     29  C   UNL     1      31.064 -24.345 -13.535  0.00  0.00    +0.038 C 
BRANCH  27  30
ATOM     30  O   UNL     1      33.345 -24.453 -12.840  0.00  0.00    -0.453 OA
BRANCH  30  32
ATOM     31  F   UNL     1      38.587 -24.852 -14.422  0.00  0.00    -0.204 F 
ATOM     32  C   UNL     1      34.667 -24.553 -13.239  0.00  0.00    +0.145 C 
ATOM     33  C   UNL     1      35.000 -25.435 -14.252  0.00  0.00    +0.040 C 
ATOM     34  C   UNL     1      35.620 -23.769 -12.615  0.00  0.00    +0.040 C 
ATOM     35  C   UNL     1      36.332 -25.536 -14.653  0.00  0.00    +0.033 C 
ATOM     36  C   UNL     1      36.952 -23.871 -13.016  0.00  0.00    +0.033 C 
ATOM     37  C   UNL     1      37.308 -24.754 -14.036  0.00  0.00    +0.140 C 
ENDBRANCH  30  32
ENDBRANCH  27  30
ENDBRANCH  22  24
ENDBRANCH   1  22
TORSDOF 9
ENDMDL
