MODEL 1
REMARK VINA RESULT:     -10.2      0.000      0.000
REMARK  Name = 6419789
REMARK  3 active torsions:
REMARK  status: ('A' for Active; 'I' for Inactive)
REMARK    1  A    between atoms: N_4  and  C_13
REMARK    2  A    between atoms: C_5  and  C_19
REMARK    3  A    between atoms: C_22  and  N_25
REMARK                            x       y       z     vdW  Elec       q    Type
REMARK                         _______ _______ _______ _____ _____    ______ ____
ROOT
ATOM      1  N   UNL     1      35.188 -22.363 -18.014  0.00  0.00    -0.164 N 
ATOM      2  N   UNL     1      35.436 -23.171 -15.763  0.00  0.00    -0.374 NA
ATOM      3  N   UNL     1      34.228 -22.164 -18.955  0.00  0.00    -0.174 NA
ATOM      4  N   UNL     1      37.544 -23.196 -14.781  0.00  0.00    -0.288 N 
ATOM      5  C   UNL     1      33.302 -23.029 -17.062  0.00  0.00    +0.134 C 
ATOM      6  C   UNL     1      34.654 -22.891 -16.843  0.00  0.00    +0.194 C 
ATOM      7  C   UNL     1      33.101 -22.568 -18.369  0.00  0.00    +0.104 C 
ATOM      8  C   UNL     1      36.724 -22.928 -15.854  0.00  0.00    +0.186 C 
ATOM      9  C   UNL     1      36.547 -22.103 -18.120  0.00  0.00    +0.096 C 
ATOM     10  C   UNL     1      37.362 -22.357 -17.092  0.00  0.00    +0.066 C 
ATOM     11  H   UNL     1      38.343 -22.629 -14.681  0.00  0.00    +0.155 HD
ENDROOT
BRANCH   4  13
ATOM     12 CL   UNL     1      35.792 -24.515 -10.142  0.00  0.00    -0.082 Cl
ATOM     13  C   UNL     1      37.360 -24.188 -13.823  0.00  0.00    +0.051 C 
ATOM     14  C   UNL     1      36.740 -23.896 -12.596  0.00  0.00    +0.026 C 
ATOM     15  C   UNL     1      37.790 -25.503 -14.063  0.00  0.00    +0.015 C 
ATOM     16  C   UNL     1      36.554 -24.892 -11.638  0.00  0.00    +0.059 C 
ATOM     17  C   UNL     1      37.606 -26.499 -13.103  0.00  0.00    +0.002 C 
ATOM     18  C   UNL     1      36.988 -26.194 -11.891  0.00  0.00    +0.011 C 
ENDBRANCH   4  13
BRANCH   5  19
ATOM     19  C   UNL     1      32.374 -23.543 -16.100  0.00  0.00    -0.008 C 
ATOM     20  C   UNL     1      32.826 -24.333 -15.041  0.00  0.00    +0.011 C 
ATOM     21  C   UNL     1      31.012 -23.256 -16.218  0.00  0.00    -0.003 C 
ATOM     22  C   UNL     1      31.921 -24.834 -14.104  0.00  0.00    +0.041 C 
ATOM     23  C   UNL     1      30.107 -23.757 -15.282  0.00  0.00    +0.001 C 
ATOM     24  C   UNL     1      30.561 -24.546 -14.225  0.00  0.00    +0.014 C 
BRANCH  22  25
ATOM     25  N   UNL     1      32.380 -25.632 -13.035  0.00  0.00    -0.357 N 
ATOM     26  H   UNL     1      33.213 -25.395 -12.568  0.00  0.00    +0.142 HD
ATOM     27  H   UNL     1      31.868 -26.426 -12.759  0.00  0.00    +0.142 HD
ENDBRANCH  22  25
ENDBRANCH   5  19
TORSDOF 3
ENDMDL
MODEL 2
REMARK VINA RESULT:      -9.9      1.947      4.602
REMARK  Name = 6419789
REMARK  3 active torsions:
REMARK  status: ('A' for Active; 'I' for Inactive)
REMARK    1  A    between atoms: N_4  and  C_13
REMARK    2  A    between atoms: C_5  and  C_19
REMARK    3  A    between atoms: C_22  and  N_25
REMARK                            x       y       z     vdW  Elec       q    Type
REMARK                         _______ _______ _______ _____ _____    ______ ____
ROOT
ATOM      1  N   UNL     1      31.583 -24.053 -15.113  0.00  0.00    -0.164 N 
ATOM      2  N   UNL     1      33.886 -24.346 -14.486  0.00  0.00    -0.374 NA
ATOM      3  N   UNL     1      30.831 -23.515 -16.108  0.00  0.00    -0.174 NA
ATOM      4  N   UNL     1      34.401 -25.446 -12.502  0.00  0.00    -0.288 N 
ATOM      5  C   UNL     1      33.044 -23.211 -16.551  0.00  0.00    +0.134 C 
ATOM      6  C   UNL     1      32.943 -23.884 -15.354  0.00  0.00    +0.194 C 
ATOM      7  C   UNL     1      31.721 -23.014 -16.964  0.00  0.00    +0.104 C 
ATOM      8  C   UNL     1      33.476 -24.964 -13.401  0.00  0.00    +0.186 C 
ATOM      9  C   UNL     1      31.140 -24.703 -13.970  0.00  0.00    +0.096 C 
ATOM     10  C   UNL     1      32.020 -25.177 -13.083  0.00  0.00    +0.066 C 
ATOM     11  H   UNL     1      34.143 -26.245 -11.986  0.00  0.00    +0.155 HD
ENDROOT
BRANCH   4  13
ATOM     12 CL   UNL     1      39.469 -25.690 -13.267  0.00  0.00    -0.082 Cl
ATOM     13  C   UNL     1      35.663 -24.920 -12.247  0.00  0.00    +0.051 C 
ATOM     14  C   UNL     1      36.810 -25.498 -12.816  0.00  0.00    +0.026 C 
ATOM     15  C   UNL     1      35.817 -23.799 -11.416  0.00  0.00    +0.015 C 
ATOM     16  C   UNL     1      38.075 -24.969 -12.560  0.00  0.00    +0.059 C 
ATOM     17  C   UNL     1      37.082 -23.270 -11.160  0.00  0.00    +0.002 C 
ATOM     18  C   UNL     1      38.211 -23.855 -11.732  0.00  0.00    +0.011 C 
ENDBRANCH   4  13
BRANCH   5  19
ATOM     19  C   UNL     1      34.281 -22.835 -17.166  0.00  0.00    -0.008 C 
ATOM     20  C   UNL     1      35.455 -22.787 -16.412  0.00  0.00    +0.011 C 
ATOM     21  C   UNL     1      34.317 -22.515 -18.526  0.00  0.00    -0.003 C 
ATOM     22  C   UNL     1      36.660 -22.420 -17.013  0.00  0.00    +0.041 C 
ATOM     23  C   UNL     1      35.522 -22.148 -19.127  0.00  0.00    +0.001 C 
ATOM     24  C   UNL     1      36.693 -22.100 -18.371  0.00  0.00    +0.014 C 
BRANCH  22  25
ATOM     25  N   UNL     1      37.844 -22.372 -16.249  0.00  0.00    -0.357 N 
ATOM     26  H   UNL     1      37.908 -21.761 -15.480  0.00  0.00    +0.142 HD
ATOM     27  H   UNL     1      38.606 -22.948 -16.485  0.00  0.00    +0.142 HD
ENDBRANCH  22  25
ENDBRANCH   5  19
TORSDOF 3
ENDMDL
MODEL 3
REMARK VINA RESULT:      -9.5      1.782      2.290
REMARK  Name = 6419789
REMARK  3 active torsions:
REMARK  status: ('A' for Active; 'I' for Inactive)
REMARK    1  A    between atoms: N_4  and  C_13
REMARK    2  A    between atoms: C_5  and  C_19
REMARK    3  A    between atoms: C_22  and  N_25
REMARK                            x       y       z     vdW  Elec       q    Type
REMARK                         _______ _______ _______ _____ _____    ______ ____
ROOT
ATOM      1  N   UNL     1      34.408 -22.532 -17.936  0.00  0.00    -0.164 N 
ATOM      2  N   UNL     1      35.408 -23.309 -15.892  0.00  0.00    -0.374 NA
ATOM      3  N   UNL     1      33.198 -22.468 -18.551  0.00  0.00    -0.174 NA
ATOM      4  N   UNL     1      37.694 -23.036 -15.560  0.00  0.00    -0.288 N 
ATOM      5  C   UNL     1      32.990 -23.467 -16.514  0.00  0.00    +0.134 C 
ATOM      6  C   UNL     1      34.316 -23.138 -16.687  0.00  0.00    +0.194 C 
ATOM      7  C   UNL     1      32.356 -23.033 -17.685  0.00  0.00    +0.104 C 
ATOM      8  C   UNL     1      36.569 -22.882 -16.338  0.00  0.00    +0.186 C 
ATOM      9  C   UNL     1      35.629 -22.080 -18.416  0.00  0.00    +0.096 C 
ATOM     10  C   UNL     1      36.735 -22.220 -17.680  0.00  0.00    +0.066 C 
ATOM     11  H   UNL     1      38.403 -22.361 -15.668  0.00  0.00    +0.155 HD
ENDROOT
BRANCH   4  13
ATOM     12 CL   UNL     1      40.750 -26.819 -13.922  0.00  0.00    -0.082 Cl
ATOM     13  C   UNL     1      37.933 -24.049 -14.637  0.00  0.00    +0.051 C 
ATOM     14  C   UNL     1      39.089 -24.843 -14.725  0.00  0.00    +0.026 C 
ATOM     15  C   UNL     1      37.023 -24.299 -13.597  0.00  0.00    +0.015 C 
ATOM     16  C   UNL     1      39.328 -25.858 -13.798  0.00  0.00    +0.059 C 
ATOM     17  C   UNL     1      37.262 -25.314 -12.670  0.00  0.00    +0.002 C 
ATOM     18  C   UNL     1      38.414 -26.094 -12.770  0.00  0.00    +0.011 C 
ENDBRANCH   4  13
BRANCH   5  19
ATOM     19  C   UNL     1      32.461 -24.113 -15.351  0.00  0.00    -0.008 C 
ATOM     20  C   UNL     1      31.125 -24.515 -15.317  0.00  0.00    +0.011 C 
ATOM     21  C   UNL     1      33.282 -24.344 -14.244  0.00  0.00    -0.003 C 
ATOM     22  C   UNL     1      30.610 -25.145 -14.183  0.00  0.00    +0.041 C 
ATOM     23  C   UNL     1      32.768 -24.973 -13.110  0.00  0.00    +0.001 C 
ATOM     24  C   UNL     1      31.432 -25.374 -13.079  0.00  0.00    +0.014 C 
BRANCH  22  25
ATOM     25  N   UNL     1      29.259 -25.550 -14.152  0.00  0.00    -0.357 N 
ATOM     26  H   UNL     1      28.980 -26.283 -13.558  0.00  0.00    +0.142 HD
ATOM     27  H   UNL     1      28.597 -25.099 -14.724  0.00  0.00    +0.142 HD
ENDBRANCH  22  25
ENDBRANCH   5  19
TORSDOF 3
ENDMDL
MODEL 4
REMARK VINA RESULT:      -9.4      2.995      6.643
REMARK  Name = 6419789
REMARK  3 active torsions:
REMARK  status: ('A' for Active; 'I' for Inactive)
REMARK    1  A    between atoms: N_4  and  C_13
REMARK    2  A    between atoms: C_5  and  C_19
REMARK    3  A    between atoms: C_22  and  N_25
REMARK                            x       y       z     vdW  Elec       q    Type
REMARK                         _______ _______ _______ _____ _____    ______ ____
ROOT
ATOM      1  N   UNL     1      31.239 -24.812 -14.490  0.00  0.00    -0.164 N 
ATOM      2  N   UNL     1      32.734 -23.389 -15.724  0.00  0.00    -0.374 NA
ATOM      3  N   UNL     1      31.222 -25.605 -13.388  0.00  0.00    -0.174 NA
ATOM      4  N   UNL     1      31.966 -22.301 -17.632  0.00  0.00    -0.288 N 
ATOM      5  C   UNL     1      33.283 -24.674 -13.649  0.00  0.00    +0.134 C 
ATOM      6  C   UNL     1      32.487 -24.226 -14.679  0.00  0.00    +0.194 C 
ATOM      7  C   UNL     1      32.456 -25.512 -12.893  0.00  0.00    +0.104 C 
ATOM      8  C   UNL     1      31.753 -23.144 -16.564  0.00  0.00    +0.186 C 
ATOM      9  C   UNL     1      30.197 -24.560 -15.372  0.00  0.00    +0.096 C 
ATOM     10  C   UNL     1      30.382 -23.747 -16.416  0.00  0.00    +0.066 C 
ATOM     11  H   UNL     1      31.189 -21.789 -17.954  0.00  0.00    +0.155 HD
ENDROOT
BRANCH   4  13
ATOM     12 CL   UNL     1      34.499 -20.000 -21.455  0.00  0.00    -0.082 Cl
ATOM     13  C   UNL     1      33.168 -22.099 -18.303  0.00  0.00    +0.051 C 
ATOM     14  C   UNL     1      33.233 -21.249 -19.419  0.00  0.00    +0.026 C 
ATOM     15  C   UNL     1      34.342 -22.741 -17.877  0.00  0.00    +0.015 C 
ATOM     16  C   UNL     1      34.439 -21.046 -20.090  0.00  0.00    +0.059 C 
ATOM     17  C   UNL     1      35.548 -22.539 -18.549  0.00  0.00    +0.002 C 
ATOM     18  C   UNL     1      35.597 -21.692 -19.655  0.00  0.00    +0.011 C 
ENDBRANCH   4  13
BRANCH   5  19
ATOM     19  C   UNL     1      34.656 -24.307 -13.469  0.00  0.00    -0.008 C 
ATOM     20  C   UNL     1      35.518 -24.249 -14.566  0.00  0.00    +0.011 C 
ATOM     21  C   UNL     1      35.138 -24.005 -12.193  0.00  0.00    -0.003 C 
ATOM     22  C   UNL     1      36.855 -23.892 -14.389  0.00  0.00    +0.041 C 
ATOM     23  C   UNL     1      36.475 -23.648 -12.015  0.00  0.00    +0.001 C 
ATOM     24  C   UNL     1      37.333 -23.592 -13.113  0.00  0.00    +0.014 C 
BRANCH  22  25
ATOM     25  N   UNL     1      37.724 -23.835 -15.499  0.00  0.00    -0.357 N 
ATOM     26  H   UNL     1      38.444 -24.500 -15.594  0.00  0.00    +0.142 HD
ATOM     27  H   UNL     1      37.610 -23.131 -16.177  0.00  0.00    +0.142 HD
ENDBRANCH  22  25
ENDBRANCH   5  19
TORSDOF 3
ENDMDL
MODEL 5
REMARK VINA RESULT:      -9.2      2.135      4.911
REMARK  Name = 6419789
REMARK  3 active torsions:
REMARK  status: ('A' for Active; 'I' for Inactive)
REMARK    1  A    between atoms: N_4  and  C_13
REMARK    2  A    between atoms: C_5  and  C_19
REMARK    3  A    between atoms: C_22  and  N_25
REMARK                            x       y       z     vdW  Elec       q    Type
REMARK                         _______ _______ _______ _____ _____    ______ ____
ROOT
ATOM      1  N   UNL     1      30.706 -24.107 -14.934  0.00  0.00    -0.164 N 
ATOM      2  N   UNL     1      33.082 -24.291 -14.621  0.00  0.00    -0.374 NA
ATOM      3  N   UNL     1      29.802 -23.616 -15.821  0.00  0.00    -0.174 NA
ATOM      4  N   UNL     1      33.909 -25.341 -12.717  0.00  0.00    -0.288 N 
ATOM      5  C   UNL     1      31.920 -23.222 -16.561  0.00  0.00    +0.134 C 
ATOM      6  C   UNL     1      32.012 -23.882 -15.357  0.00  0.00    +0.194 C 
ATOM      7  C   UNL     1      30.546 -23.088 -16.794  0.00  0.00    +0.104 C 
ATOM      8  C   UNL     1      32.851 -24.911 -13.486  0.00  0.00    +0.186 C 
ATOM      9  C   UNL     1      30.451 -24.761 -13.736  0.00  0.00    +0.096 C 
ATOM     10  C   UNL     1      31.462 -25.184 -12.973  0.00  0.00    +0.066 C 
ATOM     11  H   UNL     1      33.759 -26.143 -12.166  0.00  0.00    +0.155 HD
ENDROOT
BRANCH   4  13
ATOM     12 CL   UNL     1      38.502 -24.564 -14.868  0.00  0.00    -0.082 Cl
ATOM     13  C   UNL     1      35.169 -24.757 -12.639  0.00  0.00    +0.051 C 
ATOM     14  C   UNL     1      36.106 -24.929 -13.672  0.00  0.00    +0.026 C 
ATOM     15  C   UNL     1      35.531 -23.981 -11.525  0.00  0.00    +0.015 C 
ATOM     16  C   UNL     1      37.369 -24.342 -13.593  0.00  0.00    +0.059 C 
ATOM     17  C   UNL     1      36.794 -23.395 -11.446  0.00  0.00    +0.002 C 
ATOM     18  C   UNL     1      37.713 -23.575 -12.479  0.00  0.00    +0.011 C 
ENDBRANCH   4  13
BRANCH   5  19
ATOM     19  C   UNL     1      33.044 -22.800 -17.341  0.00  0.00    -0.008 C 
ATOM     20  C   UNL     1      32.853 -22.038 -18.495  0.00  0.00    +0.011 C 
ATOM     21  C   UNL     1      34.339 -23.150 -16.950  0.00  0.00    -0.003 C 
ATOM     22  C   UNL     1      33.948 -21.627 -19.255  0.00  0.00    +0.041 C 
ATOM     23  C   UNL     1      35.435 -22.741 -17.709  0.00  0.00    +0.001 C 
ATOM     24  C   UNL     1      35.240 -21.980 -18.862  0.00  0.00    +0.014 C 
BRANCH  22  25
ATOM     25  N   UNL     1      33.752 -20.858 -20.421  0.00  0.00    -0.357 N 
ATOM     26  H   UNL     1      34.289 -20.048 -20.571  0.00  0.00    +0.142 HD
ATOM     27  H   UNL     1      33.076 -21.131 -21.082  0.00  0.00    +0.142 HD
ENDBRANCH  22  25
ENDBRANCH   5  19
TORSDOF 3
ENDMDL
MODEL 6
REMARK VINA RESULT:      -8.8     13.320     16.382
REMARK  Name = 6419789
REMARK  3 active torsions:
REMARK  status: ('A' for Active; 'I' for Inactive)
REMARK    1  A    between atoms: N_4  and  C_13
REMARK    2  A    between atoms: C_5  and  C_19
REMARK    3  A    between atoms: C_22  and  N_25
REMARK                            x       y       z     vdW  Elec       q    Type
REMARK                         _______ _______ _______ _____ _____    ______ ____
ROOT
ATOM      1  N   UNL     1      31.840 -12.419 -19.752  0.00  0.00    -0.164 N 
ATOM      2  N   UNL     1      32.418 -10.654 -21.279  0.00  0.00    -0.374 NA
ATOM      3  N   UNL     1      31.786 -13.775 -19.692  0.00  0.00    -0.174 NA
ATOM      4  N   UNL     1      32.232  -8.439 -20.593  0.00  0.00    -0.288 N 
ATOM      5  C   UNL     1      32.522 -13.110 -21.743  0.00  0.00    +0.134 C 
ATOM      6  C   UNL     1      32.286 -11.979 -20.994  0.00  0.00    +0.194 C 
ATOM      7  C   UNL     1      32.199 -14.176 -20.894  0.00  0.00    +0.104 C 
ATOM      8  C   UNL     1      32.109  -9.787 -20.341  0.00  0.00    +0.186 C 
ATOM      9  C   UNL     1      31.510 -11.511 -18.755  0.00  0.00    +0.096 C 
ATOM     10  C   UNL     1      31.620 -10.198 -18.978  0.00  0.00    +0.066 C 
ATOM     11  H   UNL     1      32.441  -7.862 -19.823  0.00  0.00    +0.155 HD
ENDROOT
BRANCH   4  13
ATOM     12 CL   UNL     1      34.421  -5.886 -24.468  0.00  0.00    -0.082 Cl
ATOM     13  C   UNL     1      32.090  -7.808 -21.825  0.00  0.00    +0.051 C 
ATOM     14  C   UNL     1      33.197  -7.225 -22.464  0.00  0.00    +0.026 C 
ATOM     15  C   UNL     1      30.837  -7.743 -22.456  0.00  0.00    +0.015 C 
ATOM     16  C   UNL     1      33.053  -6.594 -23.700  0.00  0.00    +0.059 C 
ATOM     17  C   UNL     1      30.694  -7.112 -23.691  0.00  0.00    +0.002 C 
ATOM     18  C   UNL     1      31.802  -6.537 -24.314  0.00  0.00    +0.011 C 
ENDBRANCH   4  13
BRANCH   5  19
ATOM     19  C   UNL     1      32.996 -13.102 -23.094  0.00  0.00    -0.008 C 
ATOM     20  C   UNL     1      32.788 -14.210 -23.918  0.00  0.00    +0.011 C 
ATOM     21  C   UNL     1      33.670 -11.985 -23.593  0.00  0.00    -0.003 C 
ATOM     22  C   UNL     1      33.251 -14.203 -25.234  0.00  0.00    +0.041 C 
ATOM     23  C   UNL     1      34.133 -11.977 -24.909  0.00  0.00    +0.001 C 
ATOM     24  C   UNL     1      33.924 -13.085 -25.729  0.00  0.00    +0.014 C 
BRANCH  22  25
ATOM     25  N   UNL     1      33.039 -15.323 -26.064  0.00  0.00    -0.357 N 
ATOM     26  H   UNL     1      32.151 -15.746 -26.102  0.00  0.00    +0.142 HD
ATOM     27  H   UNL     1      33.780 -15.682 -26.603  0.00  0.00    +0.142 HD
ENDBRANCH  22  25
ENDBRANCH   5  19
TORSDOF 3
ENDMDL
MODEL 7
REMARK VINA RESULT:      -8.6      2.412      6.213
REMARK  Name = 6419789
REMARK  3 active torsions:
REMARK  status: ('A' for Active; 'I' for Inactive)
REMARK    1  A    between atoms: N_4  and  C_13
REMARK    2  A    between atoms: C_5  and  C_19
REMARK    3  A    between atoms: C_22  and  N_25
REMARK                            x       y       z     vdW  Elec       q    Type
REMARK                         _______ _______ _______ _____ _____    ______ ____
ROOT
ATOM      1  N   UNL     1      31.225 -24.852 -14.485  0.00  0.00    -0.164 N 
ATOM      2  N   UNL     1      32.777 -23.424 -15.638  0.00  0.00    -0.374 NA
ATOM      3  N   UNL     1      31.144 -25.627 -13.372  0.00  0.00    -0.174 NA
ATOM      4  N   UNL     1      32.127 -22.384 -17.615  0.00  0.00    -0.288 N 
ATOM      5  C   UNL     1      33.202 -24.661 -13.506  0.00  0.00    +0.134 C 
ATOM      6  C   UNL     1      32.472 -24.247 -14.597  0.00  0.00    +0.194 C 
ATOM      7  C   UNL     1      32.338 -25.502 -12.793  0.00  0.00    +0.104 C 
ATOM      8  C   UNL     1      31.854 -23.212 -16.549  0.00  0.00    +0.186 C 
ATOM      9  C   UNL     1      30.243 -24.635 -15.442  0.00  0.00    +0.096 C 
ATOM     10  C   UNL     1      30.486 -23.838 -16.486  0.00  0.00    +0.066 C 
ATOM     11  H   UNL     1      31.365 -21.892 -18.000  0.00  0.00    +0.155 HD
ENDROOT
BRANCH   4  13
ATOM     12 CL   UNL     1      37.238 -22.613 -17.230  0.00  0.00    -0.082 Cl
ATOM     13  C   UNL     1      33.369 -22.171 -18.204  0.00  0.00    +0.051 C 
ATOM     14  C   UNL     1      34.553 -22.462 -17.507  0.00  0.00    +0.026 C 
ATOM     15  C   UNL     1      33.464 -21.660 -19.508  0.00  0.00    +0.015 C 
ATOM     16  C   UNL     1      35.798 -22.250 -18.099  0.00  0.00    +0.059 C 
ATOM     17  C   UNL     1      34.709 -21.447 -20.100  0.00  0.00    +0.002 C 
ATOM     18  C   UNL     1      35.876 -21.741 -19.396  0.00  0.00    +0.011 C 
ENDBRANCH   4  13
BRANCH   5  19
ATOM     19  C   UNL     1      34.552 -24.265 -13.237  0.00  0.00    -0.008 C 
ATOM     20  C   UNL     1      35.031 -24.247 -11.925  0.00  0.00    +0.011 C 
ATOM     21  C   UNL     1      35.395 -23.895 -14.287  0.00  0.00    -0.003 C 
ATOM     22  C   UNL     1      36.346 -23.861 -11.663  0.00  0.00    +0.041 C 
ATOM     23  C   UNL     1      36.710 -23.508 -14.026  0.00  0.00    +0.001 C 
ATOM     24  C   UNL     1      37.185 -23.491 -12.715  0.00  0.00    +0.014 C 
BRANCH  22  25
ATOM     25  N   UNL     1      36.826 -23.844 -10.338  0.00  0.00    -0.357 N 
ATOM     26  H   UNL     1      37.173 -24.669  -9.930  0.00  0.00    +0.142 HD
ATOM     27  H   UNL     1      36.813 -23.006  -9.821  0.00  0.00    +0.142 HD
ENDBRANCH  22  25
ENDBRANCH   5  19
TORSDOF 3
ENDMDL
MODEL 8
REMARK VINA RESULT:      -8.5     13.798     16.681
REMARK  Name = 6419789
REMARK  3 active torsions:
REMARK  status: ('A' for Active; 'I' for Inactive)
REMARK    1  A    between atoms: N_4  and  C_13
REMARK    2  A    between atoms: C_5  and  C_19
REMARK    3  A    between atoms: C_22  and  N_25
REMARK                            x       y       z     vdW  Elec       q    Type
REMARK                         _______ _______ _______ _____ _____    ______ ____
ROOT
ATOM      1  N   UNL     1      31.766 -10.535 -19.279  0.00  0.00    -0.164 N 
ATOM      2  N   UNL     1      32.083 -10.979 -21.620  0.00  0.00    -0.374 NA
ATOM      3  N   UNL     1      31.699  -9.491 -18.411  0.00  0.00    -0.174 NA
ATOM      4  N   UNL     1      32.065 -13.177 -22.382  0.00  0.00    -0.288 N 
ATOM      5  C   UNL     1      32.053  -8.728 -20.528  0.00  0.00    +0.134 C 
ATOM      6  C   UNL     1      31.982 -10.102 -20.583  0.00  0.00    +0.194 C 
ATOM      7  C   UNL     1      31.873  -8.413 -19.176  0.00  0.00    +0.104 C 
ATOM      8  C   UNL     1      31.971 -12.261 -21.357  0.00  0.00    +0.186 C 
ATOM      9  C   UNL     1      31.647 -11.887 -18.991  0.00  0.00    +0.096 C 
ATOM     10  C   UNL     1      31.738 -12.793 -19.968  0.00  0.00    +0.066 C 
ATOM     11  H   UNL     1      31.557 -14.014 -22.277  0.00  0.00    +0.155 HD
ENDROOT
BRANCH   4  13
ATOM     12 CL   UNL     1      35.453 -10.455 -25.111  0.00  0.00    -0.082 Cl
ATOM     13  C   UNL     1      32.806 -13.040 -23.551  0.00  0.00    +0.051 C 
ATOM     14  C   UNL     1      33.664 -11.942 -23.734  0.00  0.00    +0.026 C 
ATOM     15  C   UNL     1      32.713 -13.998 -24.574  0.00  0.00    +0.015 C 
ATOM     16  C   UNL     1      34.407 -11.807 -24.906  0.00  0.00    +0.059 C 
ATOM     17  C   UNL     1      33.456 -13.862 -25.747  0.00  0.00    +0.002 C 
ATOM     18  C   UNL     1      34.303 -12.767 -25.913  0.00  0.00    +0.011 C 
ENDBRANCH   4  13
BRANCH   5  19
ATOM     19  C   UNL     1      32.268  -7.882 -21.663  0.00  0.00    -0.008 C 
ATOM     20  C   UNL     1      31.402  -6.817 -21.919  0.00  0.00    +0.011 C 
ATOM     21  C   UNL     1      33.345  -8.120 -22.519  0.00  0.00    -0.003 C 
ATOM     22  C   UNL     1      31.611  -5.993 -23.026  0.00  0.00    +0.041 C 
ATOM     23  C   UNL     1      33.555  -7.297 -23.626  0.00  0.00    +0.001 C 
ATOM     24  C   UNL     1      32.689  -6.234 -23.880  0.00  0.00    +0.014 C 
BRANCH  22  25
ATOM     25  N   UNL     1      30.735  -4.919 -23.283  0.00  0.00    -0.357 N 
ATOM     26  H   UNL     1      29.855  -4.887 -22.844  0.00  0.00    +0.142 HD
ATOM     27  H   UNL     1      31.004  -4.203 -23.902  0.00  0.00    +0.142 HD
ENDBRANCH  22  25
ENDBRANCH   5  19
TORSDOF 3
ENDMDL
MODEL 9
REMARK VINA RESULT:      -8.5     13.455     16.542
REMARK  Name = 6419789
REMARK  3 active torsions:
REMARK  status: ('A' for Active; 'I' for Inactive)
REMARK    1  A    between atoms: N_4  and  C_13
REMARK    2  A    between atoms: C_5  and  C_19
REMARK    3  A    between atoms: C_22  and  N_25
REMARK                            x       y       z     vdW  Elec       q    Type
REMARK                         _______ _______ _______ _____ _____    ______ ____
ROOT
ATOM      1  N   UNL     1      31.817 -12.463 -19.845  0.00  0.00    -0.164 N 
ATOM      2  N   UNL     1      32.418 -10.640 -21.292  0.00  0.00    -0.374 NA
ATOM      3  N   UNL     1      31.783 -13.820 -19.831  0.00  0.00    -0.174 NA
ATOM      4  N   UNL     1      32.175  -8.451 -20.540  0.00  0.00    -0.288 N 
ATOM      5  C   UNL     1      32.577 -13.077 -21.833  0.00  0.00    +0.134 C 
ATOM      6  C   UNL     1      32.298 -11.975 -21.055  0.00  0.00    +0.194 C 
ATOM      7  C   UNL     1      32.243 -14.175 -21.031  0.00  0.00    +0.104 C 
ATOM      8  C   UNL     1      32.065  -9.809 -20.337  0.00  0.00    +0.186 C 
ATOM      9  C   UNL     1      31.441 -11.594 -18.830  0.00  0.00    +0.096 C 
ATOM     10  C   UNL     1      31.537 -10.273 -19.006  0.00  0.00    +0.066 C 
ATOM     11  H   UNL     1      32.349  -7.897 -19.745  0.00  0.00    +0.155 HD
ENDROOT
BRANCH   4  13
ATOM     12 CL   UNL     1      34.498  -5.972 -24.385  0.00  0.00    -0.082 Cl
ATOM     13  C   UNL     1      32.065  -7.782 -21.755  0.00  0.00    +0.051 C 
ATOM     14  C   UNL     1      33.204  -7.266 -22.396  0.00  0.00    +0.026 C 
ATOM     15  C   UNL     1      30.813  -7.610 -22.366  0.00  0.00    +0.015 C 
ATOM     16  C   UNL     1      33.092  -6.597 -23.614  0.00  0.00    +0.059 C 
ATOM     17  C   UNL     1      30.701  -6.939 -23.584  0.00  0.00    +0.002 C 
ATOM     18  C   UNL     1      31.840  -6.433 -24.208  0.00  0.00    +0.011 C 
ENDBRANCH   4  13
BRANCH   5  19
ATOM     19  C   UNL     1      33.096 -13.017 -23.166  0.00  0.00    -0.008 C 
ATOM     20  C   UNL     1      33.897 -11.944 -23.560  0.00  0.00    +0.011 C 
ATOM     21  C   UNL     1      32.802 -14.034 -24.078  0.00  0.00    -0.003 C 
ATOM     22  C   UNL     1      34.402 -11.886 -24.860  0.00  0.00    +0.041 C 
ATOM     23  C   UNL     1      33.306 -13.977 -25.377  0.00  0.00    +0.001 C 
ATOM     24  C   UNL     1      34.106 -12.903 -25.768  0.00  0.00    +0.014 C 
BRANCH  22  25
ATOM     25  N   UNL     1      35.211 -10.801 -25.256  0.00  0.00    -0.357 N 
ATOM     26  H   UNL     1      35.611 -10.788 -26.155  0.00  0.00    +0.142 HD
ATOM     27  H   UNL     1      35.376 -10.057 -24.632  0.00  0.00    +0.142 HD
ENDBRANCH  22  25
ENDBRANCH   5  19
TORSDOF 3
ENDMDL
