MODEL 1
REMARK VINA RESULT:     -11.2      0.000      0.000
REMARK  Name = 176407
REMARK  5 active torsions:
REMARK  status: ('A' for Active; 'I' for Inactive)
REMARK    1  A    between atoms: N_1  and  C_20
REMARK    2  A    between atoms: C_11  and  C_16
REMARK    3  A    between atoms: C_20  and  C_21
REMARK    4  A    between atoms: C_21  and  C_22
REMARK    5  A    between atoms: C_27  and  O_28
REMARK                            x       y       z     vdW  Elec       q    Type
REMARK                         _______ _______ _______ _____ _____    ______ ____
ROOT
ATOM      1  N   UNL     1      36.097 -18.275 -22.420  0.00  0.00    -0.258 N 
ATOM      2  N   UNL     1      33.794 -15.074 -23.061  0.00  0.00    -0.059 N 
ATOM      3  N   UNL     1      34.935 -16.463 -21.553  0.00  0.00    -0.245 NA
ATOM      4  N   UNL     1      34.938 -16.857 -23.911  0.00  0.00    -0.294 NA
ATOM      5  N   UNL     1      33.024 -13.978 -23.122  0.00  0.00    -0.090 NA
ATOM      6  N   UNL     1      33.624 -14.484 -20.972  0.00  0.00    -0.267 NA
ATOM      7  N   UNL     1      33.767 -15.422 -25.392  0.00  0.00    -0.318 N 
ATOM      8  C   UNL     1      35.304 -17.166 -22.601  0.00  0.00    +0.213 C 
ATOM      9  C   UNL     1      34.155 -15.379 -21.779  0.00  0.00    +0.251 C 
ATOM     10  C   UNL     1      34.189 -15.822 -24.154  0.00  0.00    +0.282 C 
ATOM     11  C   UNL     1      32.950 -13.658 -21.827  0.00  0.00    +0.153 C 
ATOM     12  H   UNL     1      36.371 -18.798 -23.208  0.00  0.00    +0.160 HD
ATOM     13  H   UNL     1      33.199 -14.622 -25.485  0.00  0.00    +0.146 HD
ATOM     14  H   UNL     1      34.031 -15.932 -26.192  0.00  0.00    +0.146 HD
ENDROOT
BRANCH  11  16
ATOM     15  O   UNL     1      32.110 -11.305 -22.017  0.00  0.00    -0.439 OA
ATOM     16  C   UNL     1      32.190 -12.487 -21.353  0.00  0.00    +0.221 C 
ATOM     17  C   UNL     1      31.468 -12.434 -20.183  0.00  0.00    +0.052 C 
ATOM     18  C   UNL     1      30.908 -11.135 -20.125  0.00  0.00    +0.045 C 
ATOM     19  C   UNL     1      31.329 -10.488 -21.263  0.00  0.00    +0.181 C 
ENDBRANCH  11  16
BRANCH   1  20
ATOM     20  C   UNL     1      36.536 -18.690 -21.126  0.00  0.00    +0.103 C 
BRANCH  20  21
ATOM     21  C   UNL     1      36.647 -20.212 -21.049  0.00  0.00    +0.048 C 
BRANCH  21  22
ATOM     22  C   UNL     1      35.518 -20.849 -20.276  0.00  0.00    -0.020 C 
ATOM     23  C   UNL     1      34.219 -20.413 -20.487  0.00  0.00    -0.001 C 
ATOM     24  C   UNL     1      35.800 -21.859 -19.370  0.00  0.00    -0.001 C 
ATOM     25  C   UNL     1      33.176 -21.001 -19.773  0.00  0.00    +0.036 C 
ATOM     26  C   UNL     1      34.757 -22.447 -18.655  0.00  0.00    +0.036 C 
ATOM     27  C   UNL     1      33.445 -22.019 -18.857  0.00  0.00    +0.134 C 
BRANCH  27  28
ATOM     28  O   UNL     1      32.425 -22.593 -18.161  0.00  0.00    -0.506 OA
ATOM     29  H   UNL     1      32.493 -22.699 -17.233  0.00  0.00    +0.292 HD
ENDBRANCH  27  28
ENDBRANCH  21  22
ENDBRANCH  20  21
ENDBRANCH   1  20
TORSDOF 5
ENDMDL
MODEL 2
REMARK VINA RESULT:     -11.0      1.658      2.141
REMARK  Name = 176407
REMARK  5 active torsions:
REMARK  status: ('A' for Active; 'I' for Inactive)
REMARK    1  A    between atoms: N_1  and  C_20
REMARK    2  A    between atoms: C_11  and  C_16
REMARK    3  A    between atoms: C_20  and  C_21
REMARK    4  A    between atoms: C_21  and  C_22
REMARK    5  A    between atoms: C_27  and  O_28
REMARK                            x       y       z     vdW  Elec       q    Type
REMARK                         _______ _______ _______ _____ _____    ______ ____
ROOT
ATOM      1  N   UNL     1      35.128 -17.975 -22.878  0.00  0.00    -0.258 N 
ATOM      2  N   UNL     1      33.933 -14.420 -24.253  0.00  0.00    -0.059 N 
ATOM      3  N   UNL     1      34.815 -15.707 -22.500  0.00  0.00    -0.245 NA
ATOM      4  N   UNL     1      34.242 -16.651 -24.621  0.00  0.00    -0.294 NA
ATOM      5  N   UNL     1      33.571 -13.169 -24.574  0.00  0.00    -0.090 NA
ATOM      6  N   UNL     1      34.365 -13.306 -22.432  0.00  0.00    -0.267 NA
ATOM      7  N   UNL     1      33.353 -15.304 -26.359  0.00  0.00    -0.318 N 
ATOM      8  C   UNL     1      34.726 -16.735 -23.316  0.00  0.00    +0.213 C 
ATOM      9  C   UNL     1      34.408 -14.505 -22.975  0.00  0.00    +0.251 C 
ATOM     10  C   UNL     1      33.845 -15.508 -25.099  0.00  0.00    +0.282 C 
ATOM     11  C   UNL     1      33.852 -12.531 -23.436  0.00  0.00    +0.153 C 
ATOM     12  H   UNL     1      35.060 -18.742 -23.491  0.00  0.00    +0.160 HD
ATOM     13  H   UNL     1      33.075 -14.401 -26.640  0.00  0.00    +0.146 HD
ATOM     14  H   UNL     1      33.278 -16.058 -26.987  0.00  0.00    +0.146 HD
ENDROOT
BRANCH  11  16
ATOM     15  O   UNL     1      32.521 -10.541 -22.697  0.00  0.00    -0.439 OA
ATOM     16  C   UNL     1      33.626 -11.084 -23.272  0.00  0.00    +0.221 C 
ATOM     17  C   UNL     1      34.493 -10.096 -23.678  0.00  0.00    +0.052 C 
ATOM     18  C   UNL     1      33.882  -8.868 -23.329  0.00  0.00    +0.045 C 
ATOM     19  C   UNL     1      32.685  -9.193 -22.736  0.00  0.00    +0.181 C 
ENDBRANCH  11  16
BRANCH   1  20
ATOM     20  C   UNL     1      35.641 -18.185 -21.562  0.00  0.00    +0.103 C 
BRANCH  20  21
ATOM     21  C   UNL     1      36.145 -19.618 -21.394  0.00  0.00    +0.048 C 
BRANCH  21  22
ATOM     22  C   UNL     1      35.239 -20.467 -20.536  0.00  0.00    -0.020 C 
ATOM     23  C   UNL     1      35.795 -21.423 -19.700  0.00  0.00    -0.001 C 
ATOM     24  C   UNL     1      33.868 -20.276 -20.600  0.00  0.00    -0.001 C 
ATOM     25  C   UNL     1      34.958 -22.208 -18.908  0.00  0.00    +0.036 C 
ATOM     26  C   UNL     1      33.031 -21.061 -19.808  0.00  0.00    +0.036 C 
ATOM     27  C   UNL     1      33.576 -22.027 -18.962  0.00  0.00    +0.134 C 
BRANCH  27  28
ATOM     28  O   UNL     1      32.760 -22.794 -18.188  0.00  0.00    -0.506 OA
ATOM     29  H   UNL     1      32.723 -22.653 -17.263  0.00  0.00    +0.292 HD
ENDBRANCH  27  28
ENDBRANCH  21  22
ENDBRANCH  20  21
ENDBRANCH   1  20
TORSDOF 5
ENDMDL
MODEL 3
REMARK VINA RESULT:     -10.6      4.872      9.521
REMARK  Name = 176407
REMARK  5 active torsions:
REMARK  status: ('A' for Active; 'I' for Inactive)
REMARK    1  A    between atoms: N_1  and  C_20
REMARK    2  A    between atoms: C_11  and  C_16
REMARK    3  A    between atoms: C_20  and  C_21
REMARK    4  A    between atoms: C_21  and  C_22
REMARK    5  A    between atoms: C_27  and  O_28
REMARK                            x       y       z     vdW  Elec       q    Type
REMARK                         _______ _______ _______ _____ _____    ______ ____
ROOT
ATOM      1  N   UNL     1      35.980 -21.133 -19.830  0.00  0.00    -0.258 N 
ATOM      2  N   UNL     1      34.124 -23.100 -16.889  0.00  0.00    -0.059 N 
ATOM      3  N   UNL     1      33.992 -21.851 -18.871  0.00  0.00    -0.245 NA
ATOM      4  N   UNL     1      36.078 -22.392 -17.834  0.00  0.00    -0.294 NA
ATOM      5  N   UNL     1      33.368 -23.723 -15.974  0.00  0.00    -0.090 NA
ATOM      6  N   UNL     1      32.100 -22.754 -17.615  0.00  0.00    -0.267 NA
ATOM      7  N   UNL     1      36.155 -23.657 -15.829  0.00  0.00    -0.318 N 
ATOM      8  C   UNL     1      35.306 -21.801 -18.834  0.00  0.00    +0.213 C 
ATOM      9  C   UNL     1      33.372 -22.521 -17.870  0.00  0.00    +0.251 C 
ATOM     10  C   UNL     1      35.504 -23.039 -16.862  0.00  0.00    +0.282 C 
ATOM     11  C   UNL     1      32.147 -23.483 -16.459  0.00  0.00    +0.153 C 
ATOM     12  H   UNL     1      36.963 -21.097 -19.798  0.00  0.00    +0.160 HD
ATOM     13  H   UNL     1      35.640 -24.127 -15.133  0.00  0.00    +0.146 HD
ATOM     14  H   UNL     1      37.138 -23.633 -15.781  0.00  0.00    +0.146 HD
ENDROOT
BRANCH  11  16
ATOM     15  O   UNL     1      30.907 -24.986 -14.884  0.00  0.00    -0.439 OA
ATOM     16  C   UNL     1      30.929 -23.976 -15.791  0.00  0.00    +0.221 C 
ATOM     17  C   UNL     1      29.660 -23.484 -15.997  0.00  0.00    +0.052 C 
ATOM     18  C   UNL     1      28.805 -24.241 -15.161  0.00  0.00    +0.045 C 
ATOM     19  C   UNL     1      29.611 -25.142 -14.506  0.00  0.00    +0.181 C 
ENDBRANCH  11  16
BRANCH   1  20
ATOM     20  C   UNL     1      35.298 -20.489 -20.907  0.00  0.00    +0.103 C 
BRANCH  20  21
ATOM     21  C   UNL     1      35.681 -19.013 -20.992  0.00  0.00    +0.048 C 
BRANCH  21  22
ATOM     22  C   UNL     1      35.258 -18.364 -22.287  0.00  0.00    -0.020 C 
ATOM     23  C   UNL     1      35.320 -16.985 -22.408  0.00  0.00    -0.001 C 
ATOM     24  C   UNL     1      34.815 -19.159 -23.331  0.00  0.00    -0.001 C 
ATOM     25  C   UNL     1      34.928 -16.385 -23.604  0.00  0.00    +0.036 C 
ATOM     26  C   UNL     1      34.423 -18.560 -24.528  0.00  0.00    +0.036 C 
ATOM     27  C   UNL     1      34.480 -17.173 -24.665  0.00  0.00    +0.134 C 
BRANCH  27  28
ATOM     28  O   UNL     1      34.098 -16.587 -25.833  0.00  0.00    -0.506 OA
ATOM     29  H   UNL     1      34.005 -15.656 -25.882  0.00  0.00    +0.292 HD
ENDBRANCH  27  28
ENDBRANCH  21  22
ENDBRANCH  20  21
ENDBRANCH   1  20
TORSDOF 5
ENDMDL
MODEL 4
REMARK VINA RESULT:     -10.2      6.394     11.123
REMARK  Name = 176407
REMARK  5 active torsions:
REMARK  status: ('A' for Active; 'I' for Inactive)
REMARK    1  A    between atoms: N_1  and  C_20
REMARK    2  A    between atoms: C_11  and  C_16
REMARK    3  A    between atoms: C_20  and  C_21
REMARK    4  A    between atoms: C_21  and  C_22
REMARK    5  A    between atoms: C_27  and  O_28
REMARK                            x       y       z     vdW  Elec       q    Type
REMARK                         _______ _______ _______ _____ _____    ______ ____
ROOT
ATOM      1  N   UNL     1      32.566 -22.531 -18.393  0.00  0.00    -0.258 N 
ATOM      2  N   UNL     1      33.678 -23.901 -14.809  0.00  0.00    -0.059 N 
ATOM      3  N   UNL     1      34.265 -23.249 -16.985  0.00  0.00    -0.245 NA
ATOM      4  N   UNL     1      32.009 -23.194 -16.196  0.00  0.00    -0.294 NA
ATOM      5  N   UNL     1      34.197 -24.363 -13.662  0.00  0.00    -0.090 NA
ATOM      6  N   UNL     1      35.802 -24.050 -15.263  0.00  0.00    -0.267 NA
ATOM      7  N   UNL     1      31.469 -23.866 -13.986  0.00  0.00    -0.318 N 
ATOM      8  C   UNL     1      32.986 -23.003 -17.172  0.00  0.00    +0.213 C 
ATOM      9  C   UNL     1      34.633 -23.713 -15.767  0.00  0.00    +0.251 C 
ATOM     10  C   UNL     1      32.337 -23.640 -15.019  0.00  0.00    +0.282 C 
ATOM     11  C   UNL     1      35.489 -24.437 -13.989  0.00  0.00    +0.153 C 
ATOM     12  H   UNL     1      31.608 -22.348 -18.529  0.00  0.00    +0.160 HD
ATOM     13  H   UNL     1      31.806 -24.205 -13.125  0.00  0.00    +0.146 HD
ATOM     14  H   UNL     1      30.508 -23.689 -14.103  0.00  0.00    +0.146 HD
ENDROOT
BRANCH  11  16
ATOM     15  O   UNL     1      36.839 -26.208 -12.841  0.00  0.00    -0.439 OA
ATOM     16  C   UNL     1      36.512 -24.904 -13.036  0.00  0.00    +0.221 C 
ATOM     17  C   UNL     1      37.266 -24.090 -12.222  0.00  0.00    +0.052 C 
ATOM     18  C   UNL     1      38.110 -24.950 -11.480  0.00  0.00    +0.045 C 
ATOM     19  C   UNL     1      37.812 -26.227 -11.893  0.00  0.00    +0.181 C 
ENDBRANCH  11  16
BRANCH   1  20
ATOM     20  C   UNL     1      33.475 -22.295 -19.469  0.00  0.00    +0.103 C 
BRANCH  20  21
ATOM     21  C   UNL     1      33.309 -20.882 -20.025  0.00  0.00    +0.048 C 
BRANCH  21  22
ATOM     22  C   UNL     1      34.605 -20.279 -20.508  0.00  0.00    -0.020 C 
ATOM     23  C   UNL     1      35.803 -20.721 -19.968  0.00  0.00    -0.001 C 
ATOM     24  C   UNL     1      34.574 -19.295 -21.484  0.00  0.00    -0.001 C 
ATOM     25  C   UNL     1      37.001 -20.163 -20.415  0.00  0.00    +0.036 C 
ATOM     26  C   UNL     1      35.772 -18.738 -21.930  0.00  0.00    +0.036 C 
ATOM     27  C   UNL     1      36.986 -19.172 -21.396  0.00  0.00    +0.134 C 
BRANCH  27  28
ATOM     28  O   UNL     1      38.155 -18.629 -21.832  0.00  0.00    -0.506 OA
ATOM     29  H   UNL     1      38.306 -18.514 -22.749  0.00  0.00    +0.292 HD
ENDBRANCH  27  28
ENDBRANCH  21  22
ENDBRANCH  20  21
ENDBRANCH   1  20
TORSDOF 5
ENDMDL
MODEL 5
REMARK VINA RESULT:     -10.2      4.694      9.946
REMARK  Name = 176407
REMARK  5 active torsions:
REMARK  status: ('A' for Active; 'I' for Inactive)
REMARK    1  A    between atoms: N_1  and  C_20
REMARK    2  A    between atoms: C_11  and  C_16
REMARK    3  A    between atoms: C_20  and  C_21
REMARK    4  A    between atoms: C_21  and  C_22
REMARK    5  A    between atoms: C_27  and  O_28
REMARK                            x       y       z     vdW  Elec       q    Type
REMARK                         _______ _______ _______ _____ _____    ______ ____
ROOT
ATOM      1  N   UNL     1      34.340 -20.618 -20.633  0.00  0.00    -0.258 N 
ATOM      2  N   UNL     1      34.418 -22.837 -17.313  0.00  0.00    -0.059 N 
ATOM      3  N   UNL     1      35.568 -21.540 -18.894  0.00  0.00    -0.245 NA
ATOM      4  N   UNL     1      33.212 -21.929 -19.025  0.00  0.00    -0.294 NA
ATOM      5  N   UNL     1      34.597 -23.554 -16.193  0.00  0.00    -0.090 NA
ATOM      6  N   UNL     1      36.557 -22.646 -16.952  0.00  0.00    -0.267 NA
ATOM      7  N   UNL     1      32.099 -23.250 -17.400  0.00  0.00    -0.318 N 
ATOM      8  C   UNL     1      34.406 -21.375 -19.487  0.00  0.00    +0.213 C 
ATOM      9  C   UNL     1      35.585 -22.293 -17.768  0.00  0.00    +0.251 C 
ATOM     10  C   UNL     1      33.204 -22.657 -17.947  0.00  0.00    +0.282 C 
ATOM     11  C   UNL     1      35.913 -23.407 -16.016  0.00  0.00    +0.153 C 
ATOM     12  H   UNL     1      33.468 -20.497 -21.075  0.00  0.00    +0.160 HD
ATOM     13  H   UNL     1      32.183 -23.786 -16.577  0.00  0.00    +0.146 HD
ATOM     14  H   UNL     1      31.218 -23.140 -17.827  0.00  0.00    +0.146 HD
ENDROOT
BRANCH  11  16
ATOM     15  O   UNL     1      37.502 -23.370 -14.079  0.00  0.00    -0.439 OA
ATOM     16  C   UNL     1      36.624 -24.025 -14.882  0.00  0.00    +0.221 C 
ATOM     17  C   UNL     1      36.497 -25.338 -14.489  0.00  0.00    +0.052 C 
ATOM     18  C   UNL     1      37.352 -25.498 -13.372  0.00  0.00    +0.045 C 
ATOM     19  C   UNL     1      37.940 -24.273 -13.163  0.00  0.00    +0.181 C 
ENDBRANCH  11  16
BRANCH   1  20
ATOM     20  C   UNL     1      35.495 -20.000 -21.201  0.00  0.00    +0.103 C 
BRANCH  20  21
ATOM     21  C   UNL     1      35.411 -18.478 -21.091  0.00  0.00    +0.048 C 
BRANCH  21  22
ATOM     22  C   UNL     1      35.083 -17.806 -22.402  0.00  0.00    -0.020 C 
ATOM     23  C   UNL     1      34.778 -18.585 -23.507  0.00  0.00    -0.001 C 
ATOM     24  C   UNL     1      35.093 -16.422 -22.476  0.00  0.00    -0.001 C 
ATOM     25  C   UNL     1      34.476 -17.964 -24.718  0.00  0.00    +0.036 C 
ATOM     26  C   UNL     1      34.792 -15.801 -23.688  0.00  0.00    +0.036 C 
ATOM     27  C   UNL     1      34.483 -16.572 -24.809  0.00  0.00    +0.134 C 
BRANCH  27  28
ATOM     28  O   UNL     1      34.187 -15.966 -25.992  0.00  0.00    -0.506 OA
ATOM     29  H   UNL     1      34.874 -15.610 -26.520  0.00  0.00    +0.292 HD
ENDBRANCH  27  28
ENDBRANCH  21  22
ENDBRANCH  20  21
ENDBRANCH   1  20
TORSDOF 5
ENDMDL
MODEL 6
REMARK VINA RESULT:      -9.9      5.500      8.212
REMARK  Name = 176407
REMARK  5 active torsions:
REMARK  status: ('A' for Active; 'I' for Inactive)
REMARK    1  A    between atoms: N_1  and  C_20
REMARK    2  A    between atoms: C_11  and  C_16
REMARK    3  A    between atoms: C_20  and  C_21
REMARK    4  A    between atoms: C_21  and  C_22
REMARK    5  A    between atoms: C_27  and  O_28
REMARK                            x       y       z     vdW  Elec       q    Type
REMARK                         _______ _______ _______ _____ _____    ______ ____
ROOT
ATOM      1  N   UNL     1      36.630 -23.459 -15.996  0.00  0.00    -0.258 N 
ATOM      2  N   UNL     1      34.687 -21.708 -19.017  0.00  0.00    -0.059 N 
ATOM      3  N   UNL     1      36.680 -22.021 -17.817  0.00  0.00    -0.245 NA
ATOM      4  N   UNL     1      34.641 -23.122 -17.225  0.00  0.00    -0.294 NA
ATOM      5  N   UNL     1      34.171 -21.051 -20.065  0.00  0.00    -0.090 NA
ATOM      6  N   UNL     1      36.392 -20.584 -19.773  0.00  0.00    -0.267 NA
ATOM      7  N   UNL     1      32.654 -22.769 -18.472  0.00  0.00    -0.318 N 
ATOM      8  C   UNL     1      35.995 -22.838 -17.046  0.00  0.00    +0.213 C 
ATOM      9  C   UNL     1      36.013 -21.432 -18.839  0.00  0.00    +0.251 C 
ATOM     10  C   UNL     1      33.980 -22.568 -18.199  0.00  0.00    +0.282 C 
ATOM     11  C   UNL     1      35.246 -20.382 -20.490  0.00  0.00    +0.153 C 
ATOM     12  H   UNL     1      36.113 -24.070 -15.422  0.00  0.00    +0.160 HD
ATOM     13  H   UNL     1      32.232 -22.308 -19.233  0.00  0.00    +0.146 HD
ATOM     14  H   UNL     1      32.122 -23.377 -17.909  0.00  0.00    +0.146 HD
ENDROOT
BRANCH  11  16
ATOM     15  O   UNL     1      35.513 -18.164 -21.624  0.00  0.00    -0.439 OA
ATOM     16  C   UNL     1      35.199 -19.485 -21.658  0.00  0.00    +0.221 C 
ATOM     17  C   UNL     1      34.831 -19.860 -22.930  0.00  0.00    +0.052 C 
ATOM     18  C   UNL     1      34.926 -18.695 -23.727  0.00  0.00    +0.045 C 
ATOM     19  C   UNL     1      35.345 -17.691 -22.886  0.00  0.00    +0.181 C 
ENDBRANCH  11  16
BRANCH   1  20
ATOM     20  C   UNL     1      38.013 -23.247 -15.714  0.00  0.00    +0.103 C 
BRANCH  20  21
ATOM     21  C   UNL     1      38.574 -24.376 -14.850  0.00  0.00    +0.048 C 
BRANCH  21  22
ATOM     22  C   UNL     1      37.739 -24.653 -13.623  0.00  0.00    -0.020 C 
ATOM     23  C   UNL     1      37.569 -25.961 -13.199  0.00  0.00    -0.001 C 
ATOM     24  C   UNL     1      37.159 -23.593 -12.944  0.00  0.00    -0.001 C 
ATOM     25  C   UNL     1      36.797 -26.216 -12.065  0.00  0.00    +0.036 C 
ATOM     26  C   UNL     1      36.388 -23.849 -11.810  0.00  0.00    +0.036 C 
ATOM     27  C   UNL     1      36.207 -25.161 -11.371  0.00  0.00    +0.134 C 
BRANCH  27  28
ATOM     28  O   UNL     1      35.455 -25.411 -10.264  0.00  0.00    -0.506 OA
ATOM     29  H   UNL     1      35.778 -25.985  -9.598  0.00  0.00    +0.292 HD
ENDBRANCH  27  28
ENDBRANCH  21  22
ENDBRANCH  20  21
ENDBRANCH   1  20
TORSDOF 5
ENDMDL
MODEL 7
REMARK VINA RESULT:      -9.9      5.164      8.013
REMARK  Name = 176407
REMARK  5 active torsions:
REMARK  status: ('A' for Active; 'I' for Inactive)
REMARK    1  A    between atoms: N_1  and  C_20
REMARK    2  A    between atoms: C_11  and  C_16
REMARK    3  A    between atoms: C_20  and  C_21
REMARK    4  A    between atoms: C_21  and  C_22
REMARK    5  A    between atoms: C_27  and  O_28
REMARK                            x       y       z     vdW  Elec       q    Type
REMARK                         _______ _______ _______ _____ _____    ______ ____
ROOT
ATOM      1  N   UNL     1      31.669 -11.180 -19.829  0.00  0.00    -0.258 N 
ATOM      2  N   UNL     1      32.610  -7.565 -21.246  0.00  0.00    -0.059 N 
ATOM      3  N   UNL     1      32.016  -9.798 -21.660  0.00  0.00    -0.245 NA
ATOM      4  N   UNL     1      32.267  -8.927 -19.447  0.00  0.00    -0.294 NA
ATOM      5  N   UNL     1      32.907  -6.413 -21.864  0.00  0.00    -0.090 NA
ATOM      6  N   UNL     1      32.450  -8.090 -23.353  0.00  0.00    -0.267 NA
ATOM      7  N   UNL     1      32.870  -6.662 -19.084  0.00  0.00    -0.318 N 
ATOM      8  C   UNL     1      31.989  -9.950 -20.354  0.00  0.00    +0.213 C 
ATOM      9  C   UNL     1      32.336  -8.568 -22.131  0.00  0.00    +0.251 C 
ATOM     10  C   UNL     1      32.577  -7.739 -19.876  0.00  0.00    +0.282 C 
ATOM     11  C   UNL     1      32.797  -6.784 -23.142  0.00  0.00    +0.153 C 
ATOM     12  H   UNL     1      31.650 -11.290 -18.850  0.00  0.00    +0.160 HD
ATOM     13  H   UNL     1      33.094  -5.795 -19.495  0.00  0.00    +0.146 HD
ATOM     14  H   UNL     1      32.855  -6.752 -18.104  0.00  0.00    +0.146 HD
ENDROOT
BRANCH  11  16
ATOM     15  O   UNL     1      32.233  -4.787 -24.546  0.00  0.00    -0.439 OA
ATOM     16  C   UNL     1      33.033  -5.845 -24.253  0.00  0.00    +0.221 C 
ATOM     17  C   UNL     1      34.085  -5.913 -25.137  0.00  0.00    +0.052 C 
ATOM     18  C   UNL     1      33.920  -4.827 -26.030  0.00  0.00    +0.045 C 
ATOM     19  C   UNL     1      32.780  -4.173 -25.628  0.00  0.00    +0.181 C 
ENDBRANCH  11  16
BRANCH   1  20
ATOM     20  C   UNL     1      31.364 -12.302 -20.657  0.00  0.00    +0.103 C 
BRANCH  20  21
ATOM     21  C   UNL     1      31.941 -13.589 -20.069  0.00  0.00    +0.048 C 
BRANCH  21  22
ATOM     22  C   UNL     1      32.941 -14.260 -20.978  0.00  0.00    -0.020 C 
ATOM     23  C   UNL     1      33.125 -13.773 -22.263  0.00  0.00    -0.001 C 
ATOM     24  C   UNL     1      33.657 -15.351 -20.512  0.00  0.00    -0.001 C 
ATOM     25  C   UNL     1      34.049 -14.394 -23.103  0.00  0.00    +0.036 C 
ATOM     26  C   UNL     1      34.580 -15.972 -21.352  0.00  0.00    +0.036 C 
ATOM     27  C   UNL     1      34.777 -15.494 -22.648  0.00  0.00    +0.134 C 
BRANCH  27  28
ATOM     28  O   UNL     1      35.679 -16.098 -23.469  0.00  0.00    -0.506 OA
ATOM     29  H   UNL     1      36.436 -15.630 -23.759  0.00  0.00    +0.292 HD
ENDBRANCH  27  28
ENDBRANCH  21  22
ENDBRANCH  20  21
ENDBRANCH   1  20
TORSDOF 5
ENDMDL
MODEL 8
REMARK VINA RESULT:      -9.8      6.946      9.951
REMARK  Name = 176407
REMARK  5 active torsions:
REMARK  status: ('A' for Active; 'I' for Inactive)
REMARK    1  A    between atoms: N_1  and  C_20
REMARK    2  A    between atoms: C_11  and  C_16
REMARK    3  A    between atoms: C_20  and  C_21
REMARK    4  A    between atoms: C_21  and  C_22
REMARK    5  A    between atoms: C_27  and  O_28
REMARK                            x       y       z     vdW  Elec       q    Type
REMARK                         _______ _______ _______ _____ _____    ______ ____
ROOT
ATOM      1  N   UNL     1      33.246 -25.379 -13.361  0.00  0.00    -0.258 N 
ATOM      2  N   UNL     1      35.272 -23.270 -16.083  0.00  0.00    -0.059 N 
ATOM      3  N   UNL     1      33.238 -24.183 -15.350  0.00  0.00    -0.245 NA
ATOM      4  N   UNL     1      35.276 -24.446 -14.127  0.00  0.00    -0.294 NA
ATOM      5  N   UNL     1      35.816 -22.547 -17.073  0.00  0.00    -0.090 NA
ATOM      6  N   UNL     1      33.574 -22.878 -17.389  0.00  0.00    -0.267 NA
ATOM      7  N   UNL     1      37.306 -23.503 -14.914  0.00  0.00    -0.318 N 
ATOM      8  C   UNL     1      33.910 -24.648 -14.319  0.00  0.00    +0.213 C 
ATOM      9  C   UNL     1      33.933 -23.469 -16.268  0.00  0.00    +0.251 C 
ATOM     10  C   UNL     1      35.965 -23.765 -14.995  0.00  0.00    +0.282 C 
ATOM     11  C   UNL     1      34.745 -22.335 -17.840  0.00  0.00    +0.153 C 
ATOM     12  H   UNL     1      33.752 -25.725 -12.591  0.00  0.00    +0.160 HD
ATOM     13  H   UNL     1      37.748 -22.975 -15.619  0.00  0.00    +0.146 HD
ATOM     14  H   UNL     1      37.828 -23.841 -14.151  0.00  0.00    +0.146 HD
ENDROOT
BRANCH  11  16
ATOM     15  O   UNL     1      35.977 -21.132 -19.661  0.00  0.00    -0.439 OA
ATOM     16  C   UNL     1      34.820 -21.562 -19.093  0.00  0.00    +0.221 C 
ATOM     17  C   UNL     1      33.738 -21.174 -19.850  0.00  0.00    +0.052 C 
ATOM     18  C   UNL     1      34.265 -20.460 -20.952  0.00  0.00    +0.045 C 
ATOM     19  C   UNL     1      35.630 -20.462 -20.791  0.00  0.00    +0.181 C 
ENDBRANCH  11  16
BRANCH   1  20
ATOM     20  C   UNL     1      31.847 -25.649 -13.448  0.00  0.00    +0.103 C 
BRANCH  20  21
ATOM     21  C   UNL     1      31.032 -24.365 -13.302  0.00  0.00    +0.048 C 
BRANCH  21  22
ATOM     22  C   UNL     1      30.036 -24.165 -14.417  0.00  0.00    -0.020 C 
ATOM     23  C   UNL     1      29.623 -22.881 -14.738  0.00  0.00    -0.001 C 
ATOM     24  C   UNL     1      29.552 -25.269 -15.102  0.00  0.00    -0.001 C 
ATOM     25  C   UNL     1      28.702 -22.697 -15.768  0.00  0.00    +0.036 C 
ATOM     26  C   UNL     1      28.630 -25.084 -16.132  0.00  0.00    +0.036 C 
ATOM     27  C   UNL     1      28.205 -23.798 -16.466  0.00  0.00    +0.134 C 
BRANCH  27  28
ATOM     28  O   UNL     1      27.307 -23.616 -17.472  0.00  0.00    -0.506 OA
ATOM     29  H   UNL     1      27.524 -23.874 -18.346  0.00  0.00    +0.292 HD
ENDBRANCH  27  28
ENDBRANCH  21  22
ENDBRANCH  20  21
ENDBRANCH   1  20
TORSDOF 5
ENDMDL
MODEL 9
REMARK VINA RESULT:      -9.7      2.165      9.225
REMARK  Name = 176407
REMARK  5 active torsions:
REMARK  status: ('A' for Active; 'I' for Inactive)
REMARK    1  A    between atoms: N_1  and  C_20
REMARK    2  A    between atoms: C_11  and  C_16
REMARK    3  A    between atoms: C_20  and  C_21
REMARK    4  A    between atoms: C_21  and  C_22
REMARK    5  A    between atoms: C_27  and  O_28
REMARK                            x       y       z     vdW  Elec       q    Type
REMARK                         _______ _______ _______ _____ _____    ______ ____
ROOT
ATOM      1  N   UNL     1      33.053 -12.897 -22.589  0.00  0.00    -0.258 N 
ATOM      2  N   UNL     1      34.671 -16.543 -22.801  0.00  0.00    -0.059 N 
ATOM      3  N   UNL     1      33.781 -14.809 -21.495  0.00  0.00    -0.245 NA
ATOM      4  N   UNL     1      33.954 -14.661 -23.875  0.00  0.00    -0.294 NA
ATOM      5  N   UNL     1      35.201 -17.772 -22.717  0.00  0.00    -0.090 NA
ATOM      6  N   UNL     1      34.632 -16.943 -20.661  0.00  0.00    -0.267 NA
ATOM      7  N   UNL     1      34.863 -16.444 -25.148  0.00  0.00    -0.318 N 
ATOM      8  C   UNL     1      33.607 -14.155 -22.623  0.00  0.00    +0.213 C 
ATOM      9  C   UNL     1      34.330 -16.045 -21.576  0.00  0.00    +0.251 C 
ATOM     10  C   UNL     1      34.483 -15.845 -23.978  0.00  0.00    +0.282 C 
ATOM     11  C   UNL     1      35.156 -17.969 -21.397  0.00  0.00    +0.153 C 
ATOM     12  H   UNL     1      32.924 -12.411 -23.436  0.00  0.00    +0.160 HD
ATOM     13  H   UNL     1      35.256 -17.347 -25.134  0.00  0.00    +0.146 HD
ATOM     14  H   UNL     1      34.742 -15.974 -26.005  0.00  0.00    +0.146 HD
ENDROOT
BRANCH  11  16
ATOM     15  O   UNL     1      36.906 -19.406 -20.323  0.00  0.00    -0.439 OA
ATOM     16  C   UNL     1      35.638 -19.215 -20.774  0.00  0.00    +0.221 C 
ATOM     17  C   UNL     1      34.878 -20.344 -20.569  0.00  0.00    +0.052 C 
ATOM     18  C   UNL     1      35.734 -21.287 -19.952  0.00  0.00    +0.045 C 
ATOM     19  C   UNL     1      36.956 -20.669 -19.825  0.00  0.00    +0.181 C 
ENDBRANCH  11  16
BRANCH   1  20
ATOM     20  C   UNL     1      32.657 -12.275 -21.367  0.00  0.00    +0.103 C 
BRANCH  20  21
ATOM     21  C   UNL     1      31.397 -11.434 -21.565  0.00  0.00    +0.048 C 
BRANCH  21  22
ATOM     22  C   UNL     1      31.625  -9.960 -21.335  0.00  0.00    -0.020 C 
ATOM     23  C   UNL     1      31.953  -9.513 -20.064  0.00  0.00    -0.001 C 
ATOM     24  C   UNL     1      31.503  -9.080 -22.398  0.00  0.00    -0.001 C 
ATOM     25  C   UNL     1      32.164  -8.151 -19.852  0.00  0.00    +0.036 C 
ATOM     26  C   UNL     1      31.714  -7.718 -22.186  0.00  0.00    +0.036 C 
ATOM     27  C   UNL     1      32.045  -7.253 -20.913  0.00  0.00    +0.134 C 
BRANCH  27  28
ATOM     28  O   UNL     1      32.251  -5.924 -20.704  0.00  0.00    -0.506 OA
ATOM     29  H   UNL     1      32.859  -5.641 -20.050  0.00  0.00    +0.292 HD
ENDBRANCH  27  28
ENDBRANCH  21  22
ENDBRANCH  20  21
ENDBRANCH   1  20
TORSDOF 5
ENDMDL
