MODEL 1
REMARK VINA RESULT:     -12.0      0.000      0.000
REMARK  Name = 25058128
REMARK  13 active torsions:
REMARK  status: ('A' for Active; 'I' for Inactive)
REMARK    1  A    between atoms: C_1  and  S_11
REMARK    2  A    between atoms: C_9  and  O_27
REMARK    3  A    between atoms: S_11  and  N_14
REMARK    4  A    between atoms: N_14  and  C_16
REMARK    5  A    between atoms: C_16  and  C_18
REMARK    6  A    between atoms: C_16  and  C_21
REMARK    7  A    between atoms: C_18  and  O_19
REMARK    8  A    between atoms: C_21  and  C_22
REMARK    9  A    between atoms: C_22  and  C_24
REMARK   10  A    between atoms: C_24  and  O_25
REMARK   11  A    between atoms: O_27  and  C_28
REMARK   12  A    between atoms: C_28  and  C_30
REMARK   13  A    between atoms: C_35  and  C_37
REMARK                            x       y       z     vdW  Elec       q    Type
REMARK                         _______ _______ _______ _____ _____    ______ ____
ROOT
ATOM      1  C   UNL     1      34.524 -23.283 -16.449  0.00  0.00    +0.122 C 
ATOM      2  C   UNL     1      35.259 -22.015 -18.389  0.00  0.00    +0.002 C 
ATOM      3  C   UNL     1      35.546 -22.702 -17.198  0.00  0.00    +0.020 C 
ATOM      4  C   UNL     1      33.915 -21.917 -18.825  0.00  0.00    +0.003 C 
ATOM      5  C   UNL     1      33.204 -23.188 -16.877  0.00  0.00    +0.020 C 
ATOM      6  C   UNL     1      32.900 -22.509 -18.058  0.00  0.00    +0.001 C 
ATOM      7  C   UNL     1      33.628 -21.230 -20.016  0.00  0.00    +0.037 C 
ATOM      8  C   UNL     1      36.275 -21.422 -19.157  0.00  0.00    +0.003 C 
ATOM      9  C   UNL     1      34.650 -20.648 -20.767  0.00  0.00    +0.139 C 
ATOM     10  C   UNL     1      35.971 -20.744 -20.338  0.00  0.00    +0.037 C 
ENDROOT
BRANCH   1  11
ATOM     11  S   UNL     1      34.907 -24.144 -14.952  0.00  0.00    +0.061 S 
ATOM     12  O   UNL     1      35.437 -23.182 -14.006  0.00  0.00    -0.153 OA
ATOM     13  O   UNL     1      33.741 -24.937 -14.612  0.00  0.00    -0.153 OA
BRANCH  11  14
ATOM     14  N   UNL     1      36.151 -25.185 -15.457  0.00  0.00    -0.170 NA
ATOM     15  H   UNL     1      36.713 -24.668 -16.134  0.00  0.00    +0.149 HD
BRANCH  14  16
ATOM     16  C   UNL     1      37.093 -25.748 -14.464  0.00  0.00    +0.174 C 
BRANCH  16  18
ATOM     17  O   UNL     1      37.307 -28.063 -13.752  0.00  0.00    -0.249 OA
ATOM     18  C   UNL     1      37.125 -27.246 -14.646  0.00  0.00    +0.330 C 
BRANCH  18  19
ATOM     19  O   UNL     1      36.906 -27.610 -15.936  0.00  0.00    -0.479 OA
ATOM     20  H   UNL     1      36.105 -28.035 -16.173  0.00  0.00    +0.295 HD
ENDBRANCH  18  19
ENDBRANCH  16  18
BRANCH  16  21
ATOM     21  C   UNL     1      38.461 -25.062 -14.573  0.00  0.00    +0.040 C 
BRANCH  21  22
ATOM     22  C   UNL     1      39.552 -25.564 -13.624  0.00  0.00    +0.111 C 
BRANCH  22  24
ATOM     23  O   UNL     1      41.331 -27.198 -13.668  0.00  0.00    -0.250 OA
ATOM     24  C   UNL     1      40.567 -26.465 -14.283  0.00  0.00    +0.314 C 
BRANCH  24  25
ATOM     25  O   UNL     1      40.559 -26.366 -15.635  0.00  0.00    -0.480 OA
ATOM     26  H   UNL     1      40.809 -25.562 -16.047  0.00  0.00    +0.295 HD
ENDBRANCH  24  25
ENDBRANCH  22  24
ENDBRANCH  21  22
ENDBRANCH  16  21
ENDBRANCH  14  16
ENDBRANCH  11  14
ENDBRANCH   1  11
BRANCH   9  27
ATOM     27  O   UNL     1      34.356 -19.987 -21.919  0.00  0.00    -0.471 OA
BRANCH  27  28
ATOM     28  C   UNL     1      35.438 -19.353 -22.599  0.00  0.00    +0.234 C 
BRANCH  28  30
ATOM     29  F   UNL     1      35.256 -17.436 -20.524  0.00  0.00    -0.204 F 
ATOM     30  C   UNL     1      35.088 -17.915 -22.843  0.00  0.00    +0.049 C 
ATOM     31  C   UNL     1      35.014 -17.021 -21.776  0.00  0.00    +0.140 C 
ATOM     32  C   UNL     1      34.836 -17.473 -24.142  0.00  0.00    +0.002 C 
ATOM     33  C   UNL     1      34.688 -15.684 -22.007  0.00  0.00    +0.040 C 
ATOM     34  C   UNL     1      34.509 -16.136 -24.373  0.00  0.00    +0.010 C 
ATOM     35  C   UNL     1      34.435 -15.242 -23.305  0.00  0.00    +0.071 C 
BRANCH  35  37
ATOM     36  N   UNL     1      33.833 -12.760 -23.735  0.00  0.00    -0.191 NA
ATOM     37  C   UNL     1      34.103 -13.872 -23.542  0.00  0.00    +0.100 C 
ENDBRANCH  35  37
ENDBRANCH  28  30
ENDBRANCH  27  28
ENDBRANCH   9  27
TORSDOF 13
ENDMDL
MODEL 2
REMARK VINA RESULT:     -11.9      1.718      2.956
REMARK  Name = 25058128
REMARK  13 active torsions:
REMARK  status: ('A' for Active; 'I' for Inactive)
REMARK    1  A    between atoms: C_1  and  S_11
REMARK    2  A    between atoms: C_9  and  O_27
REMARK    3  A    between atoms: S_11  and  N_14
REMARK    4  A    between atoms: N_14  and  C_16
REMARK    5  A    between atoms: C_16  and  C_18
REMARK    6  A    between atoms: C_16  and  C_21
REMARK    7  A    between atoms: C_18  and  O_19
REMARK    8  A    between atoms: C_21  and  C_22
REMARK    9  A    between atoms: C_22  and  C_24
REMARK   10  A    between atoms: C_24  and  O_25
REMARK   11  A    between atoms: O_27  and  C_28
REMARK   12  A    between atoms: C_28  and  C_30
REMARK   13  A    between atoms: C_35  and  C_37
REMARK                            x       y       z     vdW  Elec       q    Type
REMARK                         _______ _______ _______ _____ _____    ______ ____
ROOT
ATOM      1  C   UNL     1      36.147 -23.232 -16.189  0.00  0.00    +0.122 C 
ATOM      2  C   UNL     1      34.700 -22.397 -17.956  0.00  0.00    +0.002 C 
ATOM      3  C   UNL     1      34.888 -23.141 -16.780  0.00  0.00    +0.020 C 
ATOM      4  C   UNL     1      35.807 -21.736 -18.540  0.00  0.00    +0.003 C 
ATOM      5  C   UNL     1      37.236 -22.582 -16.763  0.00  0.00    +0.020 C 
ATOM      6  C   UNL     1      37.068 -21.838 -17.932  0.00  0.00    +0.001 C 
ATOM      7  C   UNL     1      35.620 -20.991 -19.717  0.00  0.00    +0.037 C 
ATOM      8  C   UNL     1      33.439 -22.294 -18.566  0.00  0.00    +0.003 C 
ATOM      9  C   UNL     1      34.360 -20.900 -20.308  0.00  0.00    +0.139 C 
ATOM     10  C   UNL     1      33.272 -21.550 -19.734  0.00  0.00    +0.037 C 
ENDROOT
BRANCH   1  11
ATOM     11  S   UNL     1      36.362 -24.174 -14.708  0.00  0.00    +0.061 S 
ATOM     12  O   UNL     1      35.855 -23.388 -13.601  0.00  0.00    -0.153 OA
ATOM     13  O   UNL     1      35.828 -25.497 -14.968  0.00  0.00    -0.153 OA
BRANCH  11  14
ATOM     14  N   UNL     1      38.055 -24.276 -14.601  0.00  0.00    -0.170 NA
ATOM     15  H   UNL     1      38.359 -23.511 -13.998  0.00  0.00    +0.149 HD
BRANCH  14  16
ATOM     16  C   UNL     1      38.690 -25.507 -14.082  0.00  0.00    +0.174 C 
BRANCH  16  18
ATOM     17  O   UNL     1      41.085 -25.086 -14.069  0.00  0.00    -0.249 OA
ATOM     18  C   UNL     1      40.101 -25.567 -14.616  0.00  0.00    +0.330 C 
BRANCH  18  19
ATOM     19  O   UNL     1      40.175 -26.245 -15.791  0.00  0.00    -0.479 OA
ATOM     20  H   UNL     1      40.137 -27.181 -15.795  0.00  0.00    +0.295 HD
ENDBRANCH  18  19
ENDBRANCH  16  18
BRANCH  16  21
ATOM     21  C   UNL     1      38.584 -25.562 -12.553  0.00  0.00    +0.040 C 
BRANCH  21  22
ATOM     22  C   UNL     1      37.361 -26.284 -11.980  0.00  0.00    +0.111 C 
BRANCH  22  24
ATOM     23  O   UNL     1      36.855 -24.677 -10.250  0.00  0.00    -0.250 OA
ATOM     24  C   UNL     1      36.460 -25.399 -11.157  0.00  0.00    +0.314 C 
BRANCH  24  25
ATOM     25  O   UNL     1      35.155 -25.498 -11.513  0.00  0.00    -0.480 OA
ATOM     26  H   UNL     1      34.596 -26.109 -11.074  0.00  0.00    +0.295 HD
ENDBRANCH  24  25
ENDBRANCH  22  24
ENDBRANCH  21  22
ENDBRANCH  16  21
ENDBRANCH  14  16
ENDBRANCH  11  14
ENDBRANCH   1  11
BRANCH   9  27
ATOM     27  O   UNL     1      34.194 -20.174 -21.447  0.00  0.00    -0.471 OA
BRANCH  27  28
ATOM     28  C   UNL     1      35.355 -19.551 -21.995  0.00  0.00    +0.234 C 
BRANCH  28  30
ATOM     29  F   UNL     1      34.912 -18.500 -24.586  0.00  0.00    -0.204 F 
ATOM     30  C   UNL     1      35.060 -18.103 -22.251  0.00  0.00    +0.049 C 
ATOM     31  C   UNL     1      34.852 -17.649 -23.553  0.00  0.00    +0.140 C 
ATOM     32  C   UNL     1      34.994 -17.209 -21.182  0.00  0.00    +0.002 C 
ATOM     33  C   UNL     1      34.579 -16.301 -23.787  0.00  0.00    +0.040 C 
ATOM     34  C   UNL     1      34.721 -15.860 -21.416  0.00  0.00    +0.010 C 
ATOM     35  C   UNL     1      34.513 -15.406 -22.718  0.00  0.00    +0.071 C 
BRANCH  35  37
ATOM     36  N   UNL     1      34.002 -12.906 -23.153  0.00  0.00    -0.191 NA
ATOM     37  C   UNL     1      34.232 -14.026 -22.958  0.00  0.00    +0.100 C 
ENDBRANCH  35  37
ENDBRANCH  28  30
ENDBRANCH  27  28
ENDBRANCH   9  27
TORSDOF 13
ENDMDL
MODEL 3
REMARK VINA RESULT:     -11.7      2.053      2.886
REMARK  Name = 25058128
REMARK  13 active torsions:
REMARK  status: ('A' for Active; 'I' for Inactive)
REMARK    1  A    between atoms: C_1  and  S_11
REMARK    2  A    between atoms: C_9  and  O_27
REMARK    3  A    between atoms: S_11  and  N_14
REMARK    4  A    between atoms: N_14  and  C_16
REMARK    5  A    between atoms: C_16  and  C_18
REMARK    6  A    between atoms: C_16  and  C_21
REMARK    7  A    between atoms: C_18  and  O_19
REMARK    8  A    between atoms: C_21  and  C_22
REMARK    9  A    between atoms: C_22  and  C_24
REMARK   10  A    between atoms: C_24  and  O_25
REMARK   11  A    between atoms: O_27  and  C_28
REMARK   12  A    between atoms: C_28  and  C_30
REMARK   13  A    between atoms: C_35  and  C_37
REMARK                            x       y       z     vdW  Elec       q    Type
REMARK                         _______ _______ _______ _____ _____    ______ ____
ROOT
ATOM      1  C   UNL     1      34.630 -23.834 -16.057  0.00  0.00    +0.122 C 
ATOM      2  C   UNL     1      35.455 -22.423 -17.858  0.00  0.00    +0.002 C 
ATOM      3  C   UNL     1      35.684 -23.189 -16.703  0.00  0.00    +0.020 C 
ATOM      4  C   UNL     1      34.137 -22.311 -18.363  0.00  0.00    +0.003 C 
ATOM      5  C   UNL     1      33.335 -23.724 -16.554  0.00  0.00    +0.020 C 
ATOM      6  C   UNL     1      33.089 -22.968 -17.700  0.00  0.00    +0.001 C 
ATOM      7  C   UNL     1      33.908 -21.545 -19.518  0.00  0.00    +0.037 C 
ATOM      8  C   UNL     1      36.504 -21.765 -18.522  0.00  0.00    +0.003 C 
ATOM      9  C   UNL     1      34.962 -20.899 -20.165  0.00  0.00    +0.139 C 
ATOM     10  C   UNL     1      36.257 -21.009 -19.668  0.00  0.00    +0.037 C 
ENDROOT
BRANCH   1  11
ATOM     11  S   UNL     1      34.940 -24.794 -14.604  0.00  0.00    +0.061 S 
ATOM     12  O   UNL     1      33.906 -24.487 -13.637  0.00  0.00    -0.153 OA
ATOM     13  O   UNL     1      35.150 -26.162 -15.040  0.00  0.00    -0.153 OA
BRANCH  11  14
ATOM     14  N   UNL     1      36.421 -24.153 -14.072  0.00  0.00    -0.170 NA
ATOM     15  H   UNL     1      36.200 -23.368 -13.459  0.00  0.00    +0.149 HD
BRANCH  14  16
ATOM     16  C   UNL     1      37.376 -25.012 -13.338  0.00  0.00    +0.174 C 
BRANCH  16  18
ATOM     17  O   UNL     1      39.556 -24.810 -14.397  0.00  0.00    -0.249 OA
ATOM     18  C   UNL     1      38.486 -25.395 -14.287  0.00  0.00    +0.330 C 
BRANCH  18  19
ATOM     19  O   UNL     1      38.178 -26.499 -15.016  0.00  0.00    -0.479 OA
ATOM     20  H   UNL     1      38.827 -26.895 -15.563  0.00  0.00    +0.295 HD
ENDBRANCH  18  19
ENDBRANCH  16  18
BRANCH  16  21
ATOM     21  C   UNL     1      37.846 -24.315 -12.054  0.00  0.00    +0.040 C 
BRANCH  21  22
ATOM     22  C   UNL     1      36.773 -23.585 -11.244  0.00  0.00    +0.111 C 
BRANCH  22  24
ATOM     23  O   UNL     1      36.100 -24.615  -9.165  0.00  0.00    -0.250 OA
ATOM     24  C   UNL     1      35.941 -24.493 -10.373  0.00  0.00    +0.314 C 
BRANCH  24  25
ATOM     25  O   UNL     1      35.003 -25.179 -11.073  0.00  0.00    -0.480 OA
ATOM     26  H   UNL     1      35.027 -25.181 -12.010  0.00  0.00    +0.295 HD
ENDBRANCH  24  25
ENDBRANCH  22  24
ENDBRANCH  21  22
ENDBRANCH  16  21
ENDBRANCH  14  16
ENDBRANCH  11  14
ENDBRANCH   1  11
BRANCH   9  27
ATOM     27  O   UNL     1      34.724 -20.161 -21.284  0.00  0.00    -0.471 OA
BRANCH  27  28
ATOM     28  C   UNL     1      35.811 -19.395 -21.801  0.00  0.00    +0.234 C 
BRANCH  28  30
ATOM     29  F   UNL     1      34.667 -20.057 -24.304  0.00  0.00    -0.204 F 
ATOM     30  C   UNL     1      35.277 -18.367 -22.753  0.00  0.00    +0.049 C 
ATOM     31  C   UNL     1      34.726 -18.760 -23.973  0.00  0.00    +0.140 C 
ATOM     32  C   UNL     1      35.333 -17.014 -22.416  0.00  0.00    +0.002 C 
ATOM     33  C   UNL     1      34.230 -17.800 -24.856  0.00  0.00    +0.040 C 
ATOM     34  C   UNL     1      34.838 -16.054 -23.300  0.00  0.00    +0.010 C 
ATOM     35  C   UNL     1      34.287 -16.447 -24.520  0.00  0.00    +0.071 C 
BRANCH  35  37
ATOM     36  N   UNL     1      33.363 -14.667 -26.157  0.00  0.00    -0.191 NA
ATOM     37  C   UNL     1      33.778 -15.465 -25.424  0.00  0.00    +0.100 C 
ENDBRANCH  35  37
ENDBRANCH  28  30
ENDBRANCH  27  28
ENDBRANCH   9  27
TORSDOF 13
ENDMDL
MODEL 4
REMARK VINA RESULT:     -11.3      1.610      2.606
REMARK  Name = 25058128
REMARK  13 active torsions:
REMARK  status: ('A' for Active; 'I' for Inactive)
REMARK    1  A    between atoms: C_1  and  S_11
REMARK    2  A    between atoms: C_9  and  O_27
REMARK    3  A    between atoms: S_11  and  N_14
REMARK    4  A    between atoms: N_14  and  C_16
REMARK    5  A    between atoms: C_16  and  C_18
REMARK    6  A    between atoms: C_16  and  C_21
REMARK    7  A    between atoms: C_18  and  O_19
REMARK    8  A    between atoms: C_21  and  C_22
REMARK    9  A    between atoms: C_22  and  C_24
REMARK   10  A    between atoms: C_24  and  O_25
REMARK   11  A    between atoms: O_27  and  C_28
REMARK   12  A    between atoms: C_28  and  C_30
REMARK   13  A    between atoms: C_35  and  C_37
REMARK                            x       y       z     vdW  Elec       q    Type
REMARK                         _______ _______ _______ _____ _____    ______ ____
ROOT
ATOM      1  C   UNL     1      35.354 -22.983 -16.837  0.00  0.00    +0.122 C 
ATOM      2  C   UNL     1      34.430 -21.827 -18.767  0.00  0.00    +0.002 C 
ATOM      3  C   UNL     1      34.258 -22.614 -17.616  0.00  0.00    +0.020 C 
ATOM      4  C   UNL     1      35.733 -21.410 -19.131  0.00  0.00    +0.003 C 
ATOM      5  C   UNL     1      36.634 -22.572 -17.194  0.00  0.00    +0.020 C 
ATOM      6  C   UNL     1      36.824 -21.790 -18.334  0.00  0.00    +0.001 C 
ATOM      7  C   UNL     1      35.905 -20.622 -20.281  0.00  0.00    +0.037 C 
ATOM      8  C   UNL     1      33.339 -21.446 -19.565  0.00  0.00    +0.003 C 
ATOM      9  C   UNL     1      34.809 -20.253 -21.062  0.00  0.00    +0.139 C 
ATOM     10  C   UNL     1      33.529 -20.664 -20.705  0.00  0.00    +0.037 C 
ENDROOT
BRANCH   1  11
ATOM     11  S   UNL     1      35.115 -23.974 -15.392  0.00  0.00    +0.061 S 
ATOM     12  O   UNL     1      34.933 -23.083 -14.263  0.00  0.00    -0.153 OA
ATOM     13  O   UNL     1      34.100 -24.958 -15.717  0.00  0.00    -0.153 OA
BRANCH  11  14
ATOM     14  N   UNL     1      36.616 -24.759 -15.255  0.00  0.00    -0.170 NA
ATOM     15  H   UNL     1      37.320 -24.031 -15.126  0.00  0.00    +0.149 HD
BRANCH  14  16
ATOM     16  C   UNL     1      36.834 -25.758 -14.186  0.00  0.00    +0.174 C 
BRANCH  16  18
ATOM     17  O   UNL     1      38.610 -27.397 -14.457  0.00  0.00    -0.249 OA
ATOM     18  C   UNL     1      37.519 -26.957 -14.797  0.00  0.00    +0.330 C 
BRANCH  18  19
ATOM     19  O   UNL     1      36.772 -27.528 -15.778  0.00  0.00    -0.479 OA
ATOM     20  H   UNL     1      36.816 -27.196 -16.653  0.00  0.00    +0.295 HD
ENDBRANCH  18  19
ENDBRANCH  16  18
BRANCH  16  21
ATOM     21  C   UNL     1      37.584 -25.127 -13.007  0.00  0.00    +0.040 C 
BRANCH  21  22
ATOM     22  C   UNL     1      37.063 -25.466 -11.607  0.00  0.00    +0.111 C 
BRANCH  22  24
ATOM     23  O   UNL     1      36.329 -24.260  -9.647  0.00  0.00    -0.250 OA
ATOM     24  C   UNL     1      36.509 -24.280 -10.859  0.00  0.00    +0.314 C 
BRANCH  24  25
ATOM     25  O   UNL     1      36.213 -23.235 -11.671  0.00  0.00    -0.480 OA
ATOM     26  H   UNL     1      36.419 -22.361 -11.403  0.00  0.00    +0.295 HD
ENDBRANCH  24  25
ENDBRANCH  22  24
ENDBRANCH  21  22
ENDBRANCH  16  21
ENDBRANCH  14  16
ENDBRANCH  11  14
ENDBRANCH   1  11
BRANCH   9  27
ATOM     27  O   UNL     1      34.992 -19.489 -22.173  0.00  0.00    -0.471 OA
BRANCH  27  28
ATOM     28  C   UNL     1      35.631 -18.226 -21.995  0.00  0.00    +0.234 C 
BRANCH  28  30
ATOM     29  F   UNL     1      34.947 -15.587 -21.233  0.00  0.00    -0.204 F 
ATOM     30  C   UNL     1      35.025 -17.232 -22.942  0.00  0.00    +0.049 C 
ATOM     31  C   UNL     1      34.710 -15.947 -22.502  0.00  0.00    +0.140 C 
ATOM     32  C   UNL     1      34.776 -17.597 -24.265  0.00  0.00    +0.002 C 
ATOM     33  C   UNL     1      34.146 -15.026 -23.385  0.00  0.00    +0.040 C 
ATOM     34  C   UNL     1      34.211 -16.676 -25.148  0.00  0.00    +0.010 C 
ATOM     35  C   UNL     1      33.896 -15.390 -24.708  0.00  0.00    +0.071 C 
BRANCH  35  37
ATOM     36  N   UNL     1      32.852 -13.680 -26.348  0.00  0.00    -0.191 NA
ATOM     37  C   UNL     1      33.320 -14.446 -25.612  0.00  0.00    +0.100 C 
ENDBRANCH  35  37
ENDBRANCH  28  30
ENDBRANCH  27  28
ENDBRANCH   9  27
TORSDOF 13
ENDMDL
MODEL 5
REMARK VINA RESULT:     -11.0      2.689      5.160
REMARK  Name = 25058128
REMARK  13 active torsions:
REMARK  status: ('A' for Active; 'I' for Inactive)
REMARK    1  A    between atoms: C_1  and  S_11
REMARK    2  A    between atoms: C_9  and  O_27
REMARK    3  A    between atoms: S_11  and  N_14
REMARK    4  A    between atoms: N_14  and  C_16
REMARK    5  A    between atoms: C_16  and  C_18
REMARK    6  A    between atoms: C_16  and  C_21
REMARK    7  A    between atoms: C_18  and  O_19
REMARK    8  A    between atoms: C_21  and  C_22
REMARK    9  A    between atoms: C_22  and  C_24
REMARK   10  A    between atoms: C_24  and  O_25
REMARK   11  A    between atoms: O_27  and  C_28
REMARK   12  A    between atoms: C_28  and  C_30
REMARK   13  A    between atoms: C_35  and  C_37
REMARK                            x       y       z     vdW  Elec       q    Type
REMARK                         _______ _______ _______ _____ _____    ______ ____
ROOT
ATOM      1  C   UNL     1      35.324 -23.126 -16.345  0.00  0.00    +0.122 C 
ATOM      2  C   UNL     1      34.497 -22.068 -18.373  0.00  0.00    +0.002 C 
ATOM      3  C   UNL     1      34.271 -22.811 -17.202  0.00  0.00    +0.020 C 
ATOM      4  C   UNL     1      35.812 -21.640 -18.677  0.00  0.00    +0.003 C 
ATOM      5  C   UNL     1      36.616 -22.705 -16.643  0.00  0.00    +0.020 C 
ATOM      6  C   UNL     1      36.860 -21.966 -17.802  0.00  0.00    +0.001 C 
ATOM      7  C   UNL     1      36.038 -20.897 -19.847  0.00  0.00    +0.037 C 
ATOM      8  C   UNL     1      33.448 -21.741 -19.248  0.00  0.00    +0.003 C 
ATOM      9  C   UNL     1      34.984 -20.581 -20.705  0.00  0.00    +0.139 C 
ATOM     10  C   UNL     1      33.692 -21.003 -20.407  0.00  0.00    +0.037 C 
ENDROOT
BRANCH   1  11
ATOM     11  S   UNL     1      35.018 -24.062 -14.876  0.00  0.00    +0.061 S 
ATOM     12  O   UNL     1      34.907 -25.458 -15.250  0.00  0.00    -0.153 OA
ATOM     13  O   UNL     1      36.003 -23.644 -13.896  0.00  0.00    -0.153 OA
BRANCH  11  14
ATOM     14  N   UNL     1      33.492 -23.481 -14.404  0.00  0.00    -0.170 NA
ATOM     15  H   UNL     1      33.242 -22.741 -15.060  0.00  0.00    +0.149 HD
BRANCH  14  16
ATOM     16  C   UNL     1      32.337 -24.403 -14.340  0.00  0.00    +0.174 C 
BRANCH  16  18
ATOM     17  O   UNL     1      30.742 -24.899 -12.573  0.00  0.00    -0.249 OA
ATOM     18  C   UNL     1      31.661 -24.214 -13.004  0.00  0.00    +0.330 C 
BRANCH  18  19
ATOM     19  O   UNL     1      32.201 -23.187 -12.297  0.00  0.00    -0.479 OA
ATOM     20  H   UNL     1      32.506 -22.421 -12.741  0.00  0.00    +0.295 HD
ENDBRANCH  18  19
ENDBRANCH  16  18
BRANCH  16  21
ATOM     21  C   UNL     1      31.422 -24.201 -15.554  0.00  0.00    +0.040 C 
BRANCH  21  22
ATOM     22  C   UNL     1      30.549 -22.943 -15.547  0.00  0.00    +0.111 C 
BRANCH  22  24
ATOM     23  O   UNL     1      28.198 -22.387 -15.540  0.00  0.00    -0.250 OA
ATOM     24  C   UNL     1      29.078 -23.222 -15.368  0.00  0.00    +0.314 C 
BRANCH  24  25
ATOM     25  O   UNL     1      28.827 -24.496 -14.979  0.00  0.00    -0.480 OA
ATOM     26  H   UNL     1      28.500 -24.666 -14.116  0.00  0.00    +0.295 HD
ENDBRANCH  24  25
ENDBRANCH  22  24
ENDBRANCH  21  22
ENDBRANCH  16  21
ENDBRANCH  14  16
ENDBRANCH  11  14
ENDBRANCH   1  11
BRANCH   9  27
ATOM     27  O   UNL     1      35.219 -19.859 -21.835  0.00  0.00    -0.471 OA
BRANCH  27  28
ATOM     28  C   UNL     1      35.842 -18.586 -21.674  0.00  0.00    +0.234 C 
BRANCH  28  30
ATOM     29  F   UNL     1      35.001 -15.992 -20.916  0.00  0.00    -0.204 F 
ATOM     30  C   UNL     1      35.224 -17.614 -22.635  0.00  0.00    +0.049 C 
ATOM     31  C   UNL     1      34.830 -16.350 -22.196  0.00  0.00    +0.140 C 
ATOM     32  C   UNL     1      35.044 -17.976 -23.970  0.00  0.00    +0.002 C 
ATOM     33  C   UNL     1      34.255 -15.448 -23.093  0.00  0.00    +0.040 C 
ATOM     34  C   UNL     1      34.468 -17.075 -24.866  0.00  0.00    +0.010 C 
ATOM     35  C   UNL     1      34.074 -15.811 -24.427  0.00  0.00    +0.071 C 
BRANCH  35  37
ATOM     36  N   UNL     1      33.009 -14.136 -26.090  0.00  0.00    -0.191 NA
ATOM     37  C   UNL     1      33.487 -14.887 -25.345  0.00  0.00    +0.100 C 
ENDBRANCH  35  37
ENDBRANCH  28  30
ENDBRANCH  27  28
ENDBRANCH   9  27
TORSDOF 13
ENDMDL
MODEL 6
REMARK VINA RESULT:     -11.0      3.406     11.293
REMARK  Name = 25058128
REMARK  13 active torsions:
REMARK  status: ('A' for Active; 'I' for Inactive)
REMARK    1  A    between atoms: C_1  and  S_11
REMARK    2  A    between atoms: C_9  and  O_27
REMARK    3  A    between atoms: S_11  and  N_14
REMARK    4  A    between atoms: N_14  and  C_16
REMARK    5  A    between atoms: C_16  and  C_18
REMARK    6  A    between atoms: C_16  and  C_21
REMARK    7  A    between atoms: C_18  and  O_19
REMARK    8  A    between atoms: C_21  and  C_22
REMARK    9  A    between atoms: C_22  and  C_24
REMARK   10  A    between atoms: C_24  and  O_25
REMARK   11  A    between atoms: O_27  and  C_28
REMARK   12  A    between atoms: C_28  and  C_30
REMARK   13  A    between atoms: C_35  and  C_37
REMARK                            x       y       z     vdW  Elec       q    Type
REMARK                         _______ _______ _______ _____ _____    ______ ____
ROOT
ATOM      1  C   UNL     1      35.351 -20.027 -20.864  0.00  0.00    +0.122 C 
ATOM      2  C   UNL     1      34.172 -21.475 -19.305  0.00  0.00    +0.002 C 
ATOM      3  C   UNL     1      34.160 -20.554 -20.365  0.00  0.00    +0.020 C 
ATOM      4  C   UNL     1      35.411 -21.866 -18.742  0.00  0.00    +0.003 C 
ATOM      5  C   UNL     1      36.569 -20.411 -20.311  0.00  0.00    +0.020 C 
ATOM      6  C   UNL     1      36.600 -21.325 -19.257  0.00  0.00    +0.001 C 
ATOM      7  C   UNL     1      35.424 -22.787 -17.682  0.00  0.00    +0.037 C 
ATOM      8  C   UNL     1      32.983 -22.016 -18.789  0.00  0.00    +0.003 C 
ATOM      9  C   UNL     1      34.232 -23.314 -17.183  0.00  0.00    +0.139 C 
ATOM     10  C   UNL     1      33.015 -22.929 -17.735  0.00  0.00    +0.037 C 
ENDROOT
BRANCH   1  11
ATOM     11  S   UNL     1      35.313 -18.869 -22.200  0.00  0.00    +0.061 S 
ATOM     12  O   UNL     1      36.678 -18.481 -22.494  0.00  0.00    -0.153 OA
ATOM     13  O   UNL     1      34.479 -19.447 -23.236  0.00  0.00    -0.153 OA
BRANCH  11  14
ATOM     14  N   UNL     1      34.491 -17.556 -21.501  0.00  0.00    -0.170 NA
ATOM     15  H   UNL     1      34.475 -17.720 -20.494  0.00  0.00    +0.149 HD
BRANCH  14  16
ATOM     16  C   UNL     1      34.991 -16.179 -21.702  0.00  0.00    +0.174 C 
BRANCH  16  18
ATOM     17  O   UNL     1      33.690 -15.289 -23.554  0.00  0.00    -0.249 OA
ATOM     18  C   UNL     1      34.727 -15.789 -23.136  0.00  0.00    +0.330 C 
BRANCH  18  19
ATOM     19  O   UNL     1      35.794 -16.037 -23.939  0.00  0.00    -0.479 OA
ATOM     20  H   UNL     1      36.327 -15.329 -24.243  0.00  0.00    +0.295 HD
ENDBRANCH  18  19
ENDBRANCH  16  18
BRANCH  16  21
ATOM     21  C   UNL     1      34.385 -15.230 -20.660  0.00  0.00    +0.040 C 
BRANCH  21  22
ATOM     22  C   UNL     1      32.858 -15.238 -20.540  0.00  0.00    +0.111 C 
BRANCH  22  24
ATOM     23  O   UNL     1      31.939 -13.123 -19.821  0.00  0.00    -0.250 OA
ATOM     24  C   UNL     1      32.224 -13.884 -20.737  0.00  0.00    +0.314 C 
BRANCH  24  25
ATOM     25  O   UNL     1      31.984 -13.600 -22.041  0.00  0.00    -0.480 OA
ATOM     26  H   UNL     1      31.585 -12.784 -22.276  0.00  0.00    +0.295 HD
ENDBRANCH  24  25
ENDBRANCH  22  24
ENDBRANCH  21  22
ENDBRANCH  16  21
ENDBRANCH  14  16
ENDBRANCH  11  14
ENDBRANCH   1  11
BRANCH   9  27
ATOM     27  O   UNL     1      34.261 -24.207 -16.156  0.00  0.00    -0.471 OA
BRANCH  27  28
ATOM     28  C   UNL     1      34.840 -23.766 -14.928  0.00  0.00    +0.234 C 
BRANCH  28  30
ATOM     29  F   UNL     1      37.303 -22.375 -15.038  0.00  0.00    -0.204 F 
ATOM     30  C   UNL     1      36.168 -24.439 -14.743  0.00  0.00    +0.049 C 
ATOM     31  C   UNL     1      37.346 -23.695 -14.810  0.00  0.00    +0.140 C 
ATOM     32  C   UNL     1      36.223 -25.812 -14.504  0.00  0.00    +0.002 C 
ATOM     33  C   UNL     1      38.579 -24.325 -14.637  0.00  0.00    +0.040 C 
ATOM     34  C   UNL     1      37.456 -26.441 -14.332  0.00  0.00    +0.010 C 
ATOM     35  C   UNL     1      38.634 -25.698 -14.399  0.00  0.00    +0.071 C 
BRANCH  35  37
ATOM     36  N   UNL     1      40.923 -26.863 -14.076  0.00  0.00    -0.191 NA
ATOM     37  C   UNL     1      39.897 -26.341 -14.221  0.00  0.00    +0.100 C 
ENDBRANCH  35  37
ENDBRANCH  28  30
ENDBRANCH  27  28
ENDBRANCH   9  27
TORSDOF 13
ENDMDL
MODEL 7
REMARK VINA RESULT:     -10.8      4.817      8.321
REMARK  Name = 25058128
REMARK  13 active torsions:
REMARK  status: ('A' for Active; 'I' for Inactive)
REMARK    1  A    between atoms: C_1  and  S_11
REMARK    2  A    between atoms: C_9  and  O_27
REMARK    3  A    between atoms: S_11  and  N_14
REMARK    4  A    between atoms: N_14  and  C_16
REMARK    5  A    between atoms: C_16  and  C_18
REMARK    6  A    between atoms: C_16  and  C_21
REMARK    7  A    between atoms: C_18  and  O_19
REMARK    8  A    between atoms: C_21  and  C_22
REMARK    9  A    between atoms: C_22  and  C_24
REMARK   10  A    between atoms: C_24  and  O_25
REMARK   11  A    between atoms: O_27  and  C_28
REMARK   12  A    between atoms: C_28  and  C_30
REMARK   13  A    between atoms: C_35  and  C_37
REMARK                            x       y       z     vdW  Elec       q    Type
REMARK                         _______ _______ _______ _____ _____    ______ ____
ROOT
ATOM      1  C   UNL     1      35.228 -17.353 -21.844  0.00  0.00    +0.122 C 
ATOM      2  C   UNL     1      33.758 -15.585 -21.049  0.00  0.00    +0.002 C 
ATOM      3  C   UNL     1      34.462 -16.781 -20.829  0.00  0.00    +0.020 C 
ATOM      4  C   UNL     1      33.835 -14.961 -22.318  0.00  0.00    +0.003 C 
ATOM      5  C   UNL     1      35.304 -16.739 -23.090  0.00  0.00    +0.020 C 
ATOM      6  C   UNL     1      34.612 -15.551 -23.327  0.00  0.00    +0.001 C 
ATOM      7  C   UNL     1      33.133 -13.765 -22.538  0.00  0.00    +0.037 C 
ATOM      8  C   UNL     1      32.981 -14.995 -20.039  0.00  0.00    +0.003 C 
ATOM      9  C   UNL     1      32.365 -13.193 -21.523  0.00  0.00    +0.139 C 
ATOM     10  C   UNL     1      32.289 -13.807 -20.276  0.00  0.00    +0.037 C 
ENDROOT
BRANCH   1  11
ATOM     11  S   UNL     1      36.106 -18.859 -21.546  0.00  0.00    +0.061 S 
ATOM     12  O   UNL     1      36.836 -19.197 -22.752  0.00  0.00    -0.153 OA
ATOM     13  O   UNL     1      36.809 -18.695 -20.288  0.00  0.00    -0.153 OA
BRANCH  11  14
ATOM     14  N   UNL     1      34.835 -19.965 -21.326  0.00  0.00    -0.170 NA
ATOM     15  H   UNL     1      34.973 -20.713 -22.006  0.00  0.00    +0.149 HD
BRANCH  14  16
ATOM     16  C   UNL     1      34.641 -20.616 -20.011  0.00  0.00    +0.174 C 
BRANCH  16  18
ATOM     17  O   UNL     1      32.298 -20.656 -20.662  0.00  0.00    -0.249 OA
ATOM     18  C   UNL     1      33.183 -20.987 -19.883  0.00  0.00    +0.330 C 
BRANCH  18  19
ATOM     19  O   UNL     1      32.946 -21.764 -18.795  0.00  0.00    -0.479 OA
ATOM     20  H   UNL     1      33.355 -22.604 -18.720  0.00  0.00    +0.295 HD
ENDBRANCH  18  19
ENDBRANCH  16  18
BRANCH  16  21
ATOM     21  C   UNL     1      35.615 -21.788 -19.843  0.00  0.00    +0.040 C 
BRANCH  21  22
ATOM     22  C   UNL     1      36.628 -21.674 -18.701  0.00  0.00    +0.111 C 
BRANCH  22  24
ATOM     23  O   UNL     1      36.784 -22.256 -16.362  0.00  0.00    -0.250 OA
ATOM     24  C   UNL     1      36.198 -22.365 -17.432  0.00  0.00    +0.314 C 
BRANCH  24  25
ATOM     25  O   UNL     1      35.098 -23.140 -17.601  0.00  0.00    -0.480 OA
ATOM     26  H   UNL     1      34.443 -22.893 -18.225  0.00  0.00    +0.295 HD
ENDBRANCH  24  25
ENDBRANCH  22  24
ENDBRANCH  21  22
ENDBRANCH  16  21
ENDBRANCH  14  16
ENDBRANCH  11  14
ENDBRANCH   1  11
BRANCH   9  27
ATOM     27  O   UNL     1      31.691 -12.033 -21.751  0.00  0.00    -0.471 OA
BRANCH  27  28
ATOM     28  C   UNL     1      31.633 -11.093 -20.680  0.00  0.00    +0.234 C 
BRANCH  28  30
ATOM     29  F   UNL     1      32.034  -8.800 -19.069  0.00  0.00    -0.204 F 
ATOM     30  C   UNL     1      31.719  -9.704 -21.241  0.00  0.00    +0.049 C 
ATOM     31  C   UNL     1      31.917  -8.616 -20.391  0.00  0.00    +0.140 C 
ATOM     32  C   UNL     1      31.601  -9.503 -22.616  0.00  0.00    +0.002 C 
ATOM     33  C   UNL     1      31.996  -7.326 -20.917  0.00  0.00    +0.040 C 
ATOM     34  C   UNL     1      31.679  -8.212 -23.142  0.00  0.00    +0.010 C 
ATOM     35  C   UNL     1      31.877  -7.124 -22.292  0.00  0.00    +0.071 C 
BRANCH  35  37
ATOM     36  N   UNL     1      32.026  -4.730 -23.268  0.00  0.00    -0.191 NA
ATOM     37  C   UNL     1      31.960  -5.803 -22.830  0.00  0.00    +0.100 C 
ENDBRANCH  35  37
ENDBRANCH  28  30
ENDBRANCH  27  28
ENDBRANCH   9  27
TORSDOF 13
ENDMDL
MODEL 8
REMARK VINA RESULT:     -10.7      3.409     11.241
REMARK  Name = 25058128
REMARK  13 active torsions:
REMARK  status: ('A' for Active; 'I' for Inactive)
REMARK    1  A    between atoms: C_1  and  S_11
REMARK    2  A    between atoms: C_9  and  O_27
REMARK    3  A    between atoms: S_11  and  N_14
REMARK    4  A    between atoms: N_14  and  C_16
REMARK    5  A    between atoms: C_16  and  C_18
REMARK    6  A    between atoms: C_16  and  C_21
REMARK    7  A    between atoms: C_18  and  O_19
REMARK    8  A    between atoms: C_21  and  C_22
REMARK    9  A    between atoms: C_22  and  C_24
REMARK   10  A    between atoms: C_24  and  O_25
REMARK   11  A    between atoms: O_27  and  C_28
REMARK   12  A    between atoms: C_28  and  C_30
REMARK   13  A    between atoms: C_35  and  C_37
REMARK                            x       y       z     vdW  Elec       q    Type
REMARK                         _______ _______ _______ _____ _____    ______ ____
ROOT
ATOM      1  C   UNL     1      35.514 -20.033 -20.725  0.00  0.00    +0.122 C 
ATOM      2  C   UNL     1      34.238 -21.491 -19.254  0.00  0.00    +0.002 C 
ATOM      3  C   UNL     1      34.291 -20.541 -20.288  0.00  0.00    +0.020 C 
ATOM      4  C   UNL     1      35.444 -21.931 -18.657  0.00  0.00    +0.003 C 
ATOM      5  C   UNL     1      36.699 -20.466 -20.139  0.00  0.00    +0.020 C 
ATOM      6  C   UNL     1      36.666 -21.409 -19.111  0.00  0.00    +0.001 C 
ATOM      7  C   UNL     1      35.392 -22.881 -17.624  0.00  0.00    +0.037 C 
ATOM      8  C   UNL     1      33.017 -22.014 -18.800  0.00  0.00    +0.003 C 
ATOM      9  C   UNL     1      34.169 -23.390 -17.186  0.00  0.00    +0.139 C 
ATOM     10  C   UNL     1      32.984 -22.957 -17.772  0.00  0.00    +0.037 C 
ENDROOT
BRANCH   1  11
ATOM     11  S   UNL     1      35.558 -18.837 -22.028  0.00  0.00    +0.061 S 
ATOM     12  O   UNL     1      36.922 -18.752 -22.510  0.00  0.00    -0.153 OA
ATOM     13  O   UNL     1      34.480 -19.168 -22.940  0.00  0.00    -0.153 OA
BRANCH  11  14
ATOM     14  N   UNL     1      35.159 -17.407 -21.202  0.00  0.00    -0.170 NA
ATOM     15  H   UNL     1      36.036 -16.921 -21.012  0.00  0.00    +0.149 HD
BRANCH  14  16
ATOM     16  C   UNL     1      34.253 -16.420 -21.829  0.00  0.00    +0.174 C 
BRANCH  16  18
ATOM     17  O   UNL     1      32.755 -15.531 -20.131  0.00  0.00    -0.249 OA
ATOM     18  C   UNL     1      33.803 -15.453 -20.760  0.00  0.00    +0.330 C 
BRANCH  18  19
ATOM     19  O   UNL     1      34.713 -14.468 -20.545  0.00  0.00    -0.479 OA
ATOM     20  H   UNL     1      34.989 -14.267 -19.672  0.00  0.00    +0.295 HD
ENDBRANCH  18  19
ENDBRANCH  16  18
BRANCH  16  21
ATOM     21  C   UNL     1      34.928 -15.764 -23.040  0.00  0.00    +0.040 C 
BRANCH  21  22
ATOM     22  C   UNL     1      33.997 -15.208 -24.121  0.00  0.00    +0.111 C 
BRANCH  22  24
ATOM     23  O   UNL     1      33.647 -15.569 -26.484  0.00  0.00    -0.250 OA
ATOM     24  C   UNL     1      33.992 -16.014 -25.395  0.00  0.00    +0.314 C 
BRANCH  24  25
ATOM     25  O   UNL     1      34.396 -17.295 -25.210  0.00  0.00    -0.480 OA
ATOM     26  H   UNL     1      34.967 -17.700 -25.834  0.00  0.00    +0.295 HD
ENDBRANCH  24  25
ENDBRANCH  22  24
ENDBRANCH  21  22
ENDBRANCH  16  21
ENDBRANCH  14  16
ENDBRANCH  11  14
ENDBRANCH   1  11
BRANCH   9  27
ATOM     27  O   UNL     1      34.135 -24.311 -16.185  0.00  0.00    -0.471 OA
BRANCH  27  28
ATOM     28  C   UNL     1      34.691 -23.927 -14.929  0.00  0.00    +0.234 C 
BRANCH  28  30
ATOM     29  F   UNL     1      37.108 -22.455 -14.868  0.00  0.00    -0.204 F 
ATOM     30  C   UNL     1      36.037 -24.571 -14.771  0.00  0.00    +0.049 C 
ATOM     31  C   UNL     1      37.191 -23.787 -14.750  0.00  0.00    +0.140 C 
ATOM     32  C   UNL     1      36.132 -25.957 -14.646  0.00  0.00    +0.002 C 
ATOM     33  C   UNL     1      38.440 -24.390 -14.603  0.00  0.00    +0.040 C 
ATOM     34  C   UNL     1      37.382 -26.559 -14.500  0.00  0.00    +0.010 C 
ATOM     35  C   UNL     1      38.536 -25.776 -14.478  0.00  0.00    +0.071 C 
BRANCH  35  37
ATOM     36  N   UNL     1      40.855 -26.895 -14.203  0.00  0.00    -0.191 NA
ATOM     37  C   UNL     1      39.816 -26.393 -14.327  0.00  0.00    +0.100 C 
ENDBRANCH  35  37
ENDBRANCH  28  30
ENDBRANCH  27  28
ENDBRANCH   9  27
TORSDOF 13
ENDMDL
MODEL 9
REMARK VINA RESULT:     -10.7      1.576      2.174
REMARK  Name = 25058128
REMARK  13 active torsions:
REMARK  status: ('A' for Active; 'I' for Inactive)
REMARK    1  A    between atoms: C_1  and  S_11
REMARK    2  A    between atoms: C_9  and  O_27
REMARK    3  A    between atoms: S_11  and  N_14
REMARK    4  A    between atoms: N_14  and  C_16
REMARK    5  A    between atoms: C_16  and  C_18
REMARK    6  A    between atoms: C_16  and  C_21
REMARK    7  A    between atoms: C_18  and  O_19
REMARK    8  A    between atoms: C_21  and  C_22
REMARK    9  A    between atoms: C_22  and  C_24
REMARK   10  A    between atoms: C_24  and  O_25
REMARK   11  A    between atoms: O_27  and  C_28
REMARK   12  A    between atoms: C_28  and  C_30
REMARK   13  A    between atoms: C_35  and  C_37
REMARK                            x       y       z     vdW  Elec       q    Type
REMARK                         _______ _______ _______ _____ _____    ______ ____
ROOT
ATOM      1  C   UNL     1      34.772 -23.652 -15.984  0.00  0.00    +0.122 C 
ATOM      2  C   UNL     1      35.354 -22.325 -17.938  0.00  0.00    +0.002 C 
ATOM      3  C   UNL     1      35.730 -23.024 -16.779  0.00  0.00    +0.020 C 
ATOM      4  C   UNL     1      33.986 -22.262 -18.294  0.00  0.00    +0.003 C 
ATOM      5  C   UNL     1      33.427 -23.591 -16.335  0.00  0.00    +0.020 C 
ATOM      6  C   UNL     1      33.034 -22.901 -17.483  0.00  0.00    +0.001 C 
ATOM      7  C   UNL     1      33.609 -21.564 -19.453  0.00  0.00    +0.037 C 
ATOM      8  C   UNL     1      36.305 -21.686 -18.750  0.00  0.00    +0.003 C 
ATOM      9  C   UNL     1      34.568 -20.935 -20.249  0.00  0.00    +0.139 C 
ATOM     10  C   UNL     1      35.913 -20.996 -19.898  0.00  0.00    +0.037 C 
ENDROOT
BRANCH   1  11
ATOM     11  S   UNL     1      35.267 -24.527 -14.530  0.00  0.00    +0.061 S 
ATOM     12  O   UNL     1      34.310 -24.231 -13.482  0.00  0.00    -0.153 OA
ATOM     13  O   UNL     1      35.513 -25.900 -14.927  0.00  0.00    -0.153 OA
BRANCH  11  14
ATOM     14  N   UNL     1      36.751 -23.786 -14.164  0.00  0.00    -0.170 NA
ATOM     15  H   UNL     1      36.541 -22.829 -13.877  0.00  0.00    +0.149 HD
BRANCH  14  16
ATOM     16  C   UNL     1      37.628 -24.361 -13.121  0.00  0.00    +0.174 C 
BRANCH  16  18
ATOM     17  O   UNL     1      36.639 -22.880 -11.465  0.00  0.00    -0.249 OA
ATOM     18  C   UNL     1      37.060 -23.989 -11.774  0.00  0.00    +0.330 C 
BRANCH  18  19
ATOM     19  O   UNL     1      37.041 -25.042 -10.916  0.00  0.00    -0.479 OA
ATOM     20  H   UNL     1      37.802 -25.248 -10.410  0.00  0.00    +0.295 HD
ENDBRANCH  18  19
ENDBRANCH  16  18
BRANCH  16  21
ATOM     21  C   UNL     1      37.808 -25.868 -13.343  0.00  0.00    +0.040 C 
BRANCH  21  22
ATOM     22  C   UNL     1      38.779 -26.282 -14.453  0.00  0.00    +0.111 C 
BRANCH  22  24
ATOM     23  O   UNL     1      40.654 -25.038 -13.575  0.00  0.00    -0.250 OA
ATOM     24  C   UNL     1      40.229 -26.054 -14.112  0.00  0.00    +0.314 C 
BRANCH  24  25
ATOM     25  O   UNL     1      41.026 -27.088 -14.479  0.00  0.00    -0.480 OA
ATOM     26  H   UNL     1      41.420 -27.096 -15.330  0.00  0.00    +0.295 HD
ENDBRANCH  24  25
ENDBRANCH  22  24
ENDBRANCH  21  22
ENDBRANCH  16  21
ENDBRANCH  14  16
ENDBRANCH  11  14
ENDBRANCH   1  11
BRANCH   9  27
ATOM     27  O   UNL     1      34.187 -20.263 -21.369  0.00  0.00    -0.471 OA
BRANCH  27  28
ATOM     28  C   UNL     1      35.225 -19.752 -22.204  0.00  0.00    +0.234 C 
BRANCH  28  30
ATOM     29  F   UNL     1      34.745 -18.636 -24.761  0.00  0.00    -0.204 F 
ATOM     30  C   UNL     1      34.998 -18.286 -22.427  0.00  0.00    +0.049 C 
ATOM     31  C   UNL     1      34.767 -17.800 -23.713  0.00  0.00    +0.140 C 
ATOM     32  C   UNL     1      35.018 -17.408 -21.342  0.00  0.00    +0.002 C 
ATOM     33  C   UNL     1      34.557 -16.435 -23.916  0.00  0.00    +0.040 C 
ATOM     34  C   UNL     1      34.808 -16.044 -21.546  0.00  0.00    +0.010 C 
ATOM     35  C   UNL     1      34.577 -15.557 -22.833  0.00  0.00    +0.071 C 
BRANCH  35  37
ATOM     36  N   UNL     1      34.185 -13.026 -23.210  0.00  0.00    -0.191 NA
ATOM     37  C   UNL     1      34.360 -14.161 -23.041  0.00  0.00    +0.100 C 
ENDBRANCH  35  37
ENDBRANCH  28  30
ENDBRANCH  27  28
ENDBRANCH   9  27
TORSDOF 13
ENDMDL
