MODEL 1
REMARK VINA RESULT:     -11.3      0.000      0.000
REMARK  Name = 6918388
REMARK  5 active torsions:
REMARK  status: ('A' for Active; 'I' for Inactive)
REMARK    1  A    between atoms: N_1  and  C_4
REMARK    2  A    between atoms: N_1  and  C_15
REMARK    3  A    between atoms: C_4  and  C_6
REMARK    4  A    between atoms: C_15  and  C_17
REMARK    5  A    between atoms: C_19  and  C_23
REMARK                            x       y       z     vdW  Elec       q    Type
REMARK                         _______ _______ _______ _____ _____    ______ ____
ROOT
ATOM      1  N   UNL     1      35.410 -16.245 -23.489  0.00  0.00    +0.389 N 
ATOM      2  H   UNL     1      35.686 -16.014 -22.535  0.00  0.00    -0.084 HD
ATOM      3  H   UNL     1      36.196 -16.121 -24.127  0.00  0.00    -0.084 HD
ENDROOT
BRANCH   1   4
ATOM      4  C   UNL     1      34.332 -15.358 -23.902  0.00  0.00    -0.037 C 
BRANCH   4   6
ATOM      5  O   UNL     1      33.107 -13.588 -22.879  0.00  0.00    -0.482 OA
ATOM      6  C   UNL     1      33.460 -14.970 -22.715  0.00  0.00    +0.145 C 
ATOM      7  C   UNL     1      34.198 -15.201 -21.398  0.00  0.00    +0.046 C 
ATOM      8  C   UNL     1      33.274 -14.853 -20.239  0.00  0.00    +0.033 C 
ATOM      9  C   UNL     1      32.577 -13.547 -20.497  0.00  0.00    +0.012 C 
ATOM     10  C   UNL     1      32.525 -13.002 -21.786  0.00  0.00    +0.134 C 
ATOM     11  C   UNL     1      31.946 -12.872 -19.443  0.00  0.00    -0.001 C 
ATOM     12  C   UNL     1      31.885 -11.780 -22.008  0.00  0.00    +0.037 C 
ATOM     13  C   UNL     1      31.297 -11.658 -19.670  0.00  0.00    -0.000 C 
ATOM     14  C   UNL     1      31.270 -11.111 -20.951  0.00  0.00    +0.003 C 
ENDBRANCH   4   6
ENDBRANCH   1   4
BRANCH   1  15
ATOM     15  C   UNL     1      34.988 -17.638 -23.539  0.00  0.00    -0.053 C 
BRANCH  15  17
ATOM     16  N   UNL     1      37.693 -19.105 -21.366  0.00  0.00    -0.243 NA
ATOM     17  C   UNL     1      35.664 -18.468 -22.481  0.00  0.00    -0.025 C 
ATOM     18  C   UNL     1      34.925 -19.320 -21.684  0.00  0.00    -0.003 C 
ATOM     19  C   UNL     1      35.576 -20.074 -20.715  0.00  0.00    +0.019 C 
ATOM     20  C   UNL     1      37.025 -18.388 -22.296  0.00  0.00    +0.092 C 
ATOM     21  C   UNL     1      36.950 -19.932 -20.597  0.00  0.00    +0.099 C 
BRANCH  19  23
ATOM     22  F   UNL     1      32.759 -23.569 -17.407  0.00  0.00    -0.204 F 
ATOM     23  C   UNL     1      34.845 -20.978 -19.858  0.00  0.00    +0.002 C 
ATOM     24  C   UNL     1      35.534 -21.886 -19.050  0.00  0.00    +0.002 C 
ATOM     25  C   UNL     1      33.450 -20.950 -19.835  0.00  0.00    +0.002 C 
ATOM     26  C   UNL     1      34.829 -22.761 -18.223  0.00  0.00    +0.030 C 
ATOM     27  C   UNL     1      32.746 -21.825 -19.007  0.00  0.00    +0.030 C 
ATOM     28  C   UNL     1      33.435 -22.730 -18.202  0.00  0.00    +0.140 C 
ENDBRANCH  19  23
ENDBRANCH  15  17
ENDBRANCH   1  15
TORSDOF 5
ENDMDL
MODEL 2
REMARK VINA RESULT:     -11.2      2.928      5.248
REMARK  Name = 6918388
REMARK  5 active torsions:
REMARK  status: ('A' for Active; 'I' for Inactive)
REMARK    1  A    between atoms: N_1  and  C_4
REMARK    2  A    between atoms: N_1  and  C_15
REMARK    3  A    between atoms: C_4  and  C_6
REMARK    4  A    between atoms: C_15  and  C_17
REMARK    5  A    between atoms: C_19  and  C_23
REMARK                            x       y       z     vdW  Elec       q    Type
REMARK                         _______ _______ _______ _____ _____    ______ ____
ROOT
ATOM      1  N   UNL     1      36.146 -20.650 -19.783  0.00  0.00    +0.389 N 
ATOM      2  H   UNL     1      36.028 -20.125 -18.917  0.00  0.00    -0.084 HD
ATOM      3  H   UNL     1      37.032 -20.411 -20.227  0.00  0.00    -0.084 HD
ENDROOT
BRANCH   1   4
ATOM      4  C   UNL     1      35.063 -20.312 -20.697  0.00  0.00    -0.037 C 
BRANCH   4   6
ATOM      5  O   UNL     1      34.685 -17.959 -20.686  0.00  0.00    -0.482 OA
ATOM      6  C   UNL     1      35.347 -19.001 -21.418  0.00  0.00    +0.145 C 
ATOM      7  C   UNL     1      34.859 -19.060 -22.865  0.00  0.00    +0.046 C 
ATOM      8  C   UNL     1      35.209 -17.752 -23.564  0.00  0.00    +0.033 C 
ATOM      9  C   UNL     1      34.858 -16.580 -22.693  0.00  0.00    +0.012 C 
ATOM     10  C   UNL     1      34.630 -16.746 -21.321  0.00  0.00    +0.134 C 
ATOM     11  C   UNL     1      34.781 -15.296 -23.248  0.00  0.00    -0.001 C 
ATOM     12  C   UNL     1      34.290 -15.648 -20.526  0.00  0.00    +0.037 C 
ATOM     13  C   UNL     1      34.455 -14.199 -22.449  0.00  0.00    -0.000 C 
ATOM     14  C   UNL     1      34.206 -14.377 -21.090  0.00  0.00    +0.003 C 
ENDBRANCH   4   6
ENDBRANCH   1   4
BRANCH   1  15
ATOM     15  C   UNL     1      36.148 -22.075 -19.481  0.00  0.00    -0.053 C 
BRANCH  15  17
ATOM     16  N   UNL     1      37.008 -22.283 -15.819  0.00  0.00    -0.243 NA
ATOM     17  C   UNL     1      36.015 -22.336 -18.004  0.00  0.00    -0.025 C 
ATOM     18  C   UNL     1      34.839 -22.845 -17.489  0.00  0.00    -0.003 C 
ATOM     19  C   UNL     1      34.745 -23.076 -16.121  0.00  0.00    +0.019 C 
ATOM     20  C   UNL     1      37.063 -22.071 -17.152  0.00  0.00    +0.092 C 
ATOM     21  C   UNL     1      35.848 -22.780 -15.336  0.00  0.00    +0.099 C 
BRANCH  19  23
ATOM     22  F   UNL     1      30.080 -25.131 -13.860  0.00  0.00    -0.204 F 
ATOM     23  C   UNL     1      33.536 -23.607 -15.536  0.00  0.00    +0.002 C 
ATOM     24  C   UNL     1      33.586 -24.268 -14.307  0.00  0.00    +0.002 C 
ATOM     25  C   UNL     1      32.315 -23.463 -16.196  0.00  0.00    +0.002 C 
ATOM     26  C   UNL     1      32.419 -24.783 -13.741  0.00  0.00    +0.030 C 
ATOM     27  C   UNL     1      31.148 -23.978 -15.631  0.00  0.00    +0.030 C 
ATOM     28  C   UNL     1      31.201 -24.637 -14.404  0.00  0.00    +0.140 C 
ENDBRANCH  19  23
ENDBRANCH  15  17
ENDBRANCH   1  15
TORSDOF 5
ENDMDL
MODEL 3
REMARK VINA RESULT:     -11.2      2.004      3.475
REMARK  Name = 6918388
REMARK  5 active torsions:
REMARK  status: ('A' for Active; 'I' for Inactive)
REMARK    1  A    between atoms: N_1  and  C_4
REMARK    2  A    between atoms: N_1  and  C_15
REMARK    3  A    between atoms: C_4  and  C_6
REMARK    4  A    between atoms: C_15  and  C_17
REMARK    5  A    between atoms: C_19  and  C_23
REMARK                            x       y       z     vdW  Elec       q    Type
REMARK                         _______ _______ _______ _____ _____    ______ ____
ROOT
ATOM      1  N   UNL     1      33.299 -13.608 -22.032  0.00  0.00    +0.389 N 
ATOM      2  H   UNL     1      33.641 -12.653 -22.129  0.00  0.00    -0.084 HD
ATOM      3  H   UNL     1      33.208 -14.049 -22.948  0.00  0.00    -0.084 HD
ENDROOT
BRANCH   1   4
ATOM      4  C   UNL     1      31.989 -13.584 -21.397  0.00  0.00    -0.037 C 
BRANCH   4   6
ATOM      5  O   UNL     1      32.335 -11.267 -21.836  0.00  0.00    -0.482 OA
ATOM      6  C   UNL     1      31.608 -12.167 -20.987  0.00  0.00    +0.145 C 
ATOM      7  C   UNL     1      31.930 -11.922 -19.514  0.00  0.00    +0.046 C 
ATOM      8  C   UNL     1      31.485 -10.516 -19.132  0.00  0.00    +0.033 C 
ATOM      9  C   UNL     1      31.917  -9.527 -20.176  0.00  0.00    +0.012 C 
ATOM     10  C   UNL     1      32.301  -9.951 -21.454  0.00  0.00    +0.134 C 
ATOM     11  C   UNL     1      31.913  -8.156 -19.884  0.00  0.00    -0.001 C 
ATOM     12  C   UNL     1      32.714  -9.020 -22.411  0.00  0.00    +0.037 C 
ATOM     13  C   UNL     1      32.313  -7.227 -20.845  0.00  0.00    -0.000 C 
ATOM     14  C   UNL     1      32.717  -7.660 -22.106  0.00  0.00    +0.003 C 
ENDBRANCH   4   6
ENDBRANCH   1   4
BRANCH   1  15
ATOM     15  C   UNL     1      34.249 -14.377 -21.240  0.00  0.00    -0.053 C 
BRANCH  15  17
ATOM     16  N   UNL     1      35.082 -16.914 -23.898  0.00  0.00    -0.243 NA
ATOM     17  C   UNL     1      34.590 -15.691 -21.890  0.00  0.00    -0.025 C 
ATOM     18  C   UNL     1      34.719 -16.835 -21.128  0.00  0.00    -0.003 C 
ATOM     19  C   UNL     1      35.035 -18.034 -21.756  0.00  0.00    +0.019 C 
ATOM     20  C   UNL     1      34.775 -15.767 -23.252  0.00  0.00    +0.092 C 
ATOM     21  C   UNL     1      35.205 -18.020 -23.132  0.00  0.00    +0.099 C 
BRANCH  19  23
ATOM     22  F   UNL     1      35.605 -22.755 -18.843  0.00  0.00    -0.204 F 
ATOM     23  C   UNL     1      35.182 -19.256 -21.001  0.00  0.00    +0.002 C 
ATOM     24  C   UNL     1      36.451 -19.690 -20.613  0.00  0.00    +0.002 C 
ATOM     25  C   UNL     1      34.057 -20.008 -20.658  0.00  0.00    +0.002 C 
ATOM     26  C   UNL     1      36.594 -20.872 -19.885  0.00  0.00    +0.030 C 
ATOM     27  C   UNL     1      34.200 -21.189 -19.929  0.00  0.00    +0.030 C 
ATOM     28  C   UNL     1      35.468 -21.621 -19.543  0.00  0.00    +0.140 C 
ENDBRANCH  19  23
ENDBRANCH  15  17
ENDBRANCH   1  15
TORSDOF 5
ENDMDL
MODEL 4
REMARK VINA RESULT:     -11.1      2.132      3.881
REMARK  Name = 6918388
REMARK  5 active torsions:
REMARK  status: ('A' for Active; 'I' for Inactive)
REMARK    1  A    between atoms: N_1  and  C_4
REMARK    2  A    between atoms: N_1  and  C_15
REMARK    3  A    between atoms: C_4  and  C_6
REMARK    4  A    between atoms: C_15  and  C_17
REMARK    5  A    between atoms: C_19  and  C_23
REMARK                            x       y       z     vdW  Elec       q    Type
REMARK                         _______ _______ _______ _____ _____    ______ ____
ROOT
ATOM      1  N   UNL     1      33.139 -13.375 -22.465  0.00  0.00    +0.389 N 
ATOM      2  H   UNL     1      33.396 -12.408 -22.656  0.00  0.00    -0.084 HD
ATOM      3  H   UNL     1      32.933 -13.867 -23.335  0.00  0.00    -0.084 HD
ENDROOT
BRANCH   1   4
ATOM      4  C   UNL     1      31.949 -13.397 -21.626  0.00  0.00    -0.037 C 
BRANCH   4   6
ATOM      5  O   UNL     1      32.343 -11.069 -21.951  0.00  0.00    -0.482 OA
ATOM      6  C   UNL     1      31.590 -11.995 -21.153  0.00  0.00    +0.145 C 
ATOM      7  C   UNL     1      31.900 -11.826 -19.666  0.00  0.00    +0.046 C 
ATOM      8  C   UNL     1      31.477 -10.432 -19.222  0.00  0.00    +0.033 C 
ATOM      9  C   UNL     1      31.939  -9.402 -20.214  0.00  0.00    +0.012 C 
ATOM     10  C   UNL     1      32.329  -9.772 -21.507  0.00  0.00    +0.134 C 
ATOM     11  C   UNL     1      31.957  -8.047 -19.856  0.00  0.00    -0.001 C 
ATOM     12  C   UNL     1      32.770  -8.805 -22.414  0.00  0.00    +0.037 C 
ATOM     13  C   UNL     1      32.384  -7.081 -20.768  0.00  0.00    -0.000 C 
ATOM     14  C   UNL     1      32.794  -7.461 -22.044  0.00  0.00    +0.003 C 
ENDBRANCH   4   6
ENDBRANCH   1   4
BRANCH   1  15
ATOM     15  C   UNL     1      34.254 -14.044 -21.808  0.00  0.00    -0.053 C 
BRANCH  15  17
ATOM     16  N   UNL     1      34.702 -16.765 -24.374  0.00  0.00    -0.243 NA
ATOM     17  C   UNL     1      34.532 -15.396 -22.409  0.00  0.00    -0.025 C 
ATOM     18  C   UNL     1      34.857 -16.466 -21.600  0.00  0.00    -0.003 C 
ATOM     19  C   UNL     1      35.110 -17.702 -22.183  0.00  0.00    +0.019 C 
ATOM     20  C   UNL     1      34.464 -15.579 -23.771  0.00  0.00    +0.092 C 
ATOM     21  C   UNL     1      35.020 -17.799 -23.563  0.00  0.00    +0.099 C 
BRANCH  19  23
ATOM     22  F   UNL     1      36.436 -22.135 -19.071  0.00  0.00    -0.204 F 
ATOM     23  C   UNL     1      35.454 -18.851 -21.378  0.00  0.00    +0.002 C 
ATOM     24  C   UNL     1      34.470 -19.774 -21.019  0.00  0.00    +0.002 C 
ATOM     25  C   UNL     1      36.770 -19.041 -20.954  0.00  0.00    +0.002 C 
ATOM     26  C   UNL     1      34.802 -20.883 -20.241  0.00  0.00    +0.030 C 
ATOM     27  C   UNL     1      37.102 -20.149 -20.175  0.00  0.00    +0.030 C 
ATOM     28  C   UNL     1      36.117 -21.070 -19.819  0.00  0.00    +0.140 C 
ENDBRANCH  19  23
ENDBRANCH  15  17
ENDBRANCH   1  15
TORSDOF 5
ENDMDL
MODEL 5
REMARK VINA RESULT:     -11.1      3.148      5.249
REMARK  Name = 6918388
REMARK  5 active torsions:
REMARK  status: ('A' for Active; 'I' for Inactive)
REMARK    1  A    between atoms: N_1  and  C_4
REMARK    2  A    between atoms: N_1  and  C_15
REMARK    3  A    between atoms: C_4  and  C_6
REMARK    4  A    between atoms: C_15  and  C_17
REMARK    5  A    between atoms: C_19  and  C_23
REMARK                            x       y       z     vdW  Elec       q    Type
REMARK                         _______ _______ _______ _____ _____    ______ ____
ROOT
ATOM      1  N   UNL     1      35.636 -20.260 -20.255  0.00  0.00    +0.389 N 
ATOM      2  H   UNL     1      34.968 -20.456 -21.000  0.00  0.00    -0.084 HD
ATOM      3  H   UNL     1      35.207 -19.679 -19.535  0.00  0.00    -0.084 HD
ENDROOT
BRANCH   1   4
ATOM      4  C   UNL     1      36.774 -19.543 -20.812  0.00  0.00    -0.037 C 
BRANCH   4   6
ATOM      5  O   UNL     1      35.471 -17.555 -20.636  0.00  0.00    -0.482 OA
ATOM      6  C   UNL     1      36.323 -18.280 -21.536  0.00  0.00    +0.145 C 
ATOM      7  C   UNL     1      35.594 -18.628 -22.832  0.00  0.00    +0.046 C 
ATOM      8  C   UNL     1      35.208 -17.340 -23.549  0.00  0.00    +0.033 C 
ATOM      9  C   UNL     1      34.607 -16.360 -22.582  0.00  0.00    +0.012 C 
ATOM     10  C   UNL     1      34.780 -16.515 -21.201  0.00  0.00    +0.134 C 
ATOM     11  C   UNL     1      33.886 -15.259 -23.062  0.00  0.00    -0.001 C 
ATOM     12  C   UNL     1      34.203 -15.603 -20.313  0.00  0.00    +0.037 C 
ATOM     13  C   UNL     1      33.323 -14.342 -22.173  0.00  0.00    -0.000 C 
ATOM     14  C   UNL     1      33.478 -14.517 -20.800  0.00  0.00    +0.003 C 
ENDBRANCH   4   6
ENDBRANCH   1   4
BRANCH   1  15
ATOM     15  C   UNL     1      36.057 -21.516 -19.648  0.00  0.00    -0.053 C 
BRANCH  15  17
ATOM     16  N   UNL     1      32.662 -22.628 -18.453  0.00  0.00    -0.243 NA
ATOM     17  C   UNL     1      34.983 -22.104 -18.772  0.00  0.00    -0.025 C 
ATOM     18  C   UNL     1      35.303 -22.636 -17.539  0.00  0.00    -0.003 C 
ATOM     19  C   UNL     1      34.291 -23.173 -16.752  0.00  0.00    +0.019 C 
ATOM     20  C   UNL     1      33.672 -22.116 -19.190  0.00  0.00    +0.092 C 
ATOM     21  C   UNL     1      32.997 -23.145 -17.250  0.00  0.00    +0.099 C 
BRANCH  19  23
ATOM     22  F   UNL     1      35.395 -25.373 -11.748  0.00  0.00    -0.204 F 
ATOM     23  C   UNL     1      34.576 -23.741 -15.455  0.00  0.00    +0.002 C 
ATOM     24  C   UNL     1      35.898 -23.969 -15.067  0.00  0.00    +0.002 C 
ATOM     25  C   UNL     1      33.532 -24.068 -14.588  0.00  0.00    +0.002 C 
ATOM     26  C   UNL     1      36.174 -24.520 -13.815  0.00  0.00    +0.030 C 
ATOM     27  C   UNL     1      33.809 -24.619 -13.336  0.00  0.00    +0.030 C 
ATOM     28  C   UNL     1      35.129 -24.845 -12.950  0.00  0.00    +0.140 C 
ENDBRANCH  19  23
ENDBRANCH  15  17
ENDBRANCH   1  15
TORSDOF 5
ENDMDL
MODEL 6
REMARK VINA RESULT:     -11.0      2.123      3.181
REMARK  Name = 6918388
REMARK  5 active torsions:
REMARK  status: ('A' for Active; 'I' for Inactive)
REMARK    1  A    between atoms: N_1  and  C_4
REMARK    2  A    between atoms: N_1  and  C_15
REMARK    3  A    between atoms: C_4  and  C_6
REMARK    4  A    between atoms: C_15  and  C_17
REMARK    5  A    between atoms: C_19  and  C_23
REMARK                            x       y       z     vdW  Elec       q    Type
REMARK                         _______ _______ _______ _____ _____    ______ ____
ROOT
ATOM      1  N   UNL     1      33.136 -14.618 -21.442  0.00  0.00    +0.389 N 
ATOM      2  H   UNL     1      32.561 -15.458 -21.385  0.00  0.00    -0.084 HD
ATOM      3  H   UNL     1      32.963 -14.011 -20.641  0.00  0.00    -0.084 HD
ENDROOT
BRANCH   1   4
ATOM      4  C   UNL     1      32.796 -13.890 -22.657  0.00  0.00    -0.037 C 
BRANCH   4   6
ATOM      5  O   UNL     1      32.287 -11.610 -22.185  0.00  0.00    -0.482 OA
ATOM      6  C   UNL     1      33.351 -12.472 -22.616  0.00  0.00    +0.145 C 
ATOM      7  C   UNL     1      33.881 -12.056 -23.987  0.00  0.00    +0.046 C 
ATOM      8  C   UNL     1      34.474 -10.656 -23.891  0.00  0.00    +0.033 C 
ATOM      9  C   UNL     1      33.553  -9.747 -23.127  0.00  0.00    +0.012 C 
ATOM     10  C   UNL     1      32.534 -10.268 -22.321  0.00  0.00    +0.134 C 
ATOM     11  C   UNL     1      33.727  -8.359 -23.197  0.00  0.00    -0.001 C 
ATOM     12  C   UNL     1      31.676  -9.410 -21.628  0.00  0.00    +0.037 C 
ATOM     13  C   UNL     1      32.878  -7.504 -22.493  0.00  0.00    -0.000 C 
ATOM     14  C   UNL     1      31.851  -8.030 -21.713  0.00  0.00    +0.003 C 
ENDBRANCH   4   6
ENDBRANCH   1   4
BRANCH   1  15
ATOM     15  C   UNL     1      34.541 -15.001 -21.440  0.00  0.00    -0.053 C 
BRANCH  15  17
ATOM     16  N   UNL     1      35.201 -17.856 -23.808  0.00  0.00    -0.243 NA
ATOM     17  C   UNL     1      34.743 -16.402 -21.952  0.00  0.00    -0.025 C 
ATOM     18  C   UNL     1      34.661 -17.479 -21.092  0.00  0.00    -0.003 C 
ATOM     19  C   UNL     1      34.852 -18.761 -21.594  0.00  0.00    +0.019 C 
ATOM     20  C   UNL     1      35.010 -16.625 -23.284  0.00  0.00    +0.092 C 
ATOM     21  C   UNL     1      35.117 -18.895 -22.948  0.00  0.00    +0.099 C 
BRANCH  19  23
ATOM     22  F   UNL     1      34.564 -23.231 -18.273  0.00  0.00    -0.204 F 
ATOM     23  C   UNL     1      34.777 -19.917 -20.733  0.00  0.00    +0.002 C 
ATOM     24  C   UNL     1      35.946 -20.557 -20.316  0.00  0.00    +0.002 C 
ATOM     25  C   UNL     1      33.536 -20.402 -20.316  0.00  0.00    +0.002 C 
ATOM     26  C   UNL     1      35.874 -21.676 -19.486  0.00  0.00    +0.030 C 
ATOM     27  C   UNL     1      33.464 -21.521 -19.485  0.00  0.00    +0.030 C 
ATOM     28  C   UNL     1      34.633 -22.157 -19.071  0.00  0.00    +0.140 C 
ENDBRANCH  19  23
ENDBRANCH  15  17
ENDBRANCH   1  15
TORSDOF 5
ENDMDL
MODEL 7
REMARK VINA RESULT:     -11.0      4.121      8.909
REMARK  Name = 6918388
REMARK  5 active torsions:
REMARK  status: ('A' for Active; 'I' for Inactive)
REMARK    1  A    between atoms: N_1  and  C_4
REMARK    2  A    between atoms: N_1  and  C_15
REMARK    3  A    between atoms: C_4  and  C_6
REMARK    4  A    between atoms: C_15  and  C_17
REMARK    5  A    between atoms: C_19  and  C_23
REMARK                            x       y       z     vdW  Elec       q    Type
REMARK                         _______ _______ _______ _____ _____    ______ ____
ROOT
ATOM      1  N   UNL     1      34.707 -22.107 -18.870  0.00  0.00    +0.389 N 
ATOM      2  H   UNL     1      35.689 -22.189 -19.130  0.00  0.00    -0.084 HD
ATOM      3  H   UNL     1      34.618 -21.726 -17.928  0.00  0.00    -0.084 HD
ENDROOT
BRANCH   1   4
ATOM      4  C   UNL     1      34.095 -23.428 -18.895  0.00  0.00    -0.037 C 
BRANCH   4   6
ATOM      5  O   UNL     1      32.241 -23.315 -17.402  0.00  0.00    -0.482 OA
ATOM      6  C   UNL     1      33.581 -23.818 -17.515  0.00  0.00    +0.145 C 
ATOM      7  C   UNL     1      34.481 -23.250 -16.419  0.00  0.00    +0.046 C 
ATOM      8  C   UNL     1      33.963 -23.706 -15.060  0.00  0.00    +0.033 C 
ATOM      9  C   UNL     1      32.473 -23.534 -14.982  0.00  0.00    +0.012 C 
ATOM     10  C   UNL     1      31.706 -23.362 -16.141  0.00  0.00    +0.134 C 
ATOM     11  C   UNL     1      31.830 -23.572 -13.737  0.00  0.00    -0.001 C 
ATOM     12  C   UNL     1      30.322 -23.189 -16.051  0.00  0.00    +0.037 C 
ATOM     13  C   UNL     1      30.447 -23.413 -13.651  0.00  0.00    -0.000 C 
ATOM     14  C   UNL     1      29.695 -23.217 -14.807  0.00  0.00    +0.003 C 
ENDBRANCH   4   6
ENDBRANCH   1   4
BRANCH   1  15
ATOM     15  C   UNL     1      34.041 -21.205 -19.800  0.00  0.00    -0.053 C 
BRANCH  15  17
ATOM     16  N   UNL     1      37.269 -19.481 -20.695  0.00  0.00    -0.243 NA
ATOM     17  C   UNL     1      35.004 -20.231 -20.424  0.00  0.00    -0.025 C 
ATOM     18  C   UNL     1      34.544 -19.233 -21.261  0.00  0.00    -0.003 C 
ATOM     19  C   UNL     1      35.456 -18.348 -21.823  0.00  0.00    +0.019 C 
ATOM     20  C   UNL     1      36.353 -20.323 -20.167  0.00  0.00    +0.092 C 
ATOM     21  C   UNL     1      36.796 -18.513 -21.511  0.00  0.00    +0.099 C 
BRANCH  19  23
ATOM     22  F   UNL     1      33.776 -14.260 -25.222  0.00  0.00    -0.204 F 
ATOM     23  C   UNL     1      35.022 -17.290 -22.704  0.00  0.00    +0.002 C 
ATOM     24  C   UNL     1      34.765 -16.016 -22.194  0.00  0.00    +0.002 C 
ATOM     25  C   UNL     1      34.855 -17.537 -24.068  0.00  0.00    +0.002 C 
ATOM     26  C   UNL     1      34.345 -14.993 -23.044  0.00  0.00    +0.030 C 
ATOM     27  C   UNL     1      34.435 -16.514 -24.918  0.00  0.00    +0.030 C 
ATOM     28  C   UNL     1      34.179 -15.242 -24.406  0.00  0.00    +0.140 C 
ENDBRANCH  19  23
ENDBRANCH  15  17
ENDBRANCH   1  15
TORSDOF 5
ENDMDL
MODEL 8
REMARK VINA RESULT:     -11.0      4.892     10.170
REMARK  Name = 6918388
REMARK  5 active torsions:
REMARK  status: ('A' for Active; 'I' for Inactive)
REMARK    1  A    between atoms: N_1  and  C_4
REMARK    2  A    between atoms: N_1  and  C_15
REMARK    3  A    between atoms: C_4  and  C_6
REMARK    4  A    between atoms: C_15  and  C_17
REMARK    5  A    between atoms: C_19  and  C_23
REMARK                            x       y       z     vdW  Elec       q    Type
REMARK                         _______ _______ _______ _____ _____    ______ ____
ROOT
ATOM      1  N   UNL     1      33.896 -23.676 -17.555  0.00  0.00    +0.389 N 
ATOM      2  H   UNL     1      33.847 -24.632 -17.904  0.00  0.00    -0.084 HD
ATOM      3  H   UNL     1      34.856 -23.434 -17.309  0.00  0.00    -0.084 HD
ENDROOT
BRANCH   1   4
ATOM      4  C   UNL     1      33.069 -23.560 -16.362  0.00  0.00    -0.037 C 
BRANCH   4   6
ATOM      5  O   UNL     1      35.179 -24.229 -15.476  0.00  0.00    -0.482 OA
ATOM      6  C   UNL     1      33.917 -23.658 -15.099  0.00  0.00    +0.145 C 
ATOM      7  C   UNL     1      33.217 -24.509 -14.040  0.00  0.00    +0.046 C 
ATOM      8  C   UNL     1      34.071 -24.536 -12.778  0.00  0.00    +0.033 C 
ATOM      9  C   UNL     1      35.511 -24.790 -13.123  0.00  0.00    +0.012 C 
ATOM     10  C   UNL     1      35.979 -24.613 -14.432  0.00  0.00    +0.134 C 
ATOM     11  C   UNL     1      36.410 -25.183 -12.123  0.00  0.00    -0.001 C 
ATOM     12  C   UNL     1      37.318 -24.866 -14.741  0.00  0.00    +0.037 C 
ATOM     13  C   UNL     1      37.750 -25.422 -12.431  0.00  0.00    -0.000 C 
ATOM     14  C   UNL     1      38.201 -25.267 -13.740  0.00  0.00    +0.003 C 
ENDBRANCH   4   6
ENDBRANCH   1   4
BRANCH   1  15
ATOM     15  C   UNL     1      33.440 -22.764 -18.596  0.00  0.00    -0.053 C 
BRANCH  15  17
ATOM     16  N   UNL     1      36.860 -21.233 -18.981  0.00  0.00    -0.243 NA
ATOM     17  C   UNL     1      34.558 -21.902 -19.117  0.00  0.00    -0.025 C 
ATOM     18  C   UNL     1      34.335 -21.025 -20.160  0.00  0.00    -0.003 C 
ATOM     19  C   UNL     1      35.387 -20.242 -20.621  0.00  0.00    +0.019 C 
ATOM     20  C   UNL     1      35.814 -21.978 -18.560  0.00  0.00    +0.092 C 
ATOM     21  C   UNL     1      36.619 -20.382 -20.003  0.00  0.00    +0.099 C 
BRANCH  19  23
ATOM     22  F   UNL     1      34.670 -16.644 -24.820  0.00  0.00    -0.204 F 
ATOM     23  C   UNL     1      35.202 -19.311 -21.710  0.00  0.00    +0.002 C 
ATOM     24  C   UNL     1      35.407 -17.945 -21.504  0.00  0.00    +0.002 C 
ATOM     25  C   UNL     1      34.816 -19.772 -22.969  0.00  0.00    +0.002 C 
ATOM     26  C   UNL     1      35.227 -17.044 -22.554  0.00  0.00    +0.030 C 
ATOM     27  C   UNL     1      34.637 -18.872 -24.020  0.00  0.00    +0.030 C 
ATOM     28  C   UNL     1      34.842 -17.508 -23.812  0.00  0.00    +0.140 C 
ENDBRANCH  19  23
ENDBRANCH  15  17
ENDBRANCH   1  15
TORSDOF 5
ENDMDL
MODEL 9
REMARK VINA RESULT:     -10.9      5.198     10.449
REMARK  Name = 6918388
REMARK  5 active torsions:
REMARK  status: ('A' for Active; 'I' for Inactive)
REMARK    1  A    between atoms: N_1  and  C_4
REMARK    2  A    between atoms: N_1  and  C_15
REMARK    3  A    between atoms: C_4  and  C_6
REMARK    4  A    between atoms: C_15  and  C_17
REMARK    5  A    between atoms: C_19  and  C_23
REMARK                            x       y       z     vdW  Elec       q    Type
REMARK                         _______ _______ _______ _____ _____    ______ ____
ROOT
ATOM      1  N   UNL     1      36.396 -22.543 -17.568  0.00  0.00    +0.389 N 
ATOM      2  H   UNL     1      35.422 -22.330 -17.353  0.00  0.00    -0.084 HD
ATOM      3  H   UNL     1      36.545 -23.552 -17.584  0.00  0.00    -0.084 HD
ENDROOT
BRANCH   1   4
ATOM      4  C   UNL     1      37.249 -21.963 -16.541  0.00  0.00    -0.037 C 
BRANCH   4   6
ATOM      5  O   UNL     1      38.004 -23.692 -15.085  0.00  0.00    -0.482 OA
ATOM      6  C   UNL     1      37.027 -22.647 -15.198  0.00  0.00    +0.145 C 
ATOM      7  C   UNL     1      35.607 -23.201 -15.098  0.00  0.00    +0.046 C 
ATOM      8  C   UNL     1      35.410 -23.827 -13.723  0.00  0.00    +0.033 C 
ATOM      9  C   UNL     1      36.587 -24.689 -13.365  0.00  0.00    +0.012 C 
ATOM     10  C   UNL     1      37.803 -24.567 -14.049  0.00  0.00    +0.134 C 
ATOM     11  C   UNL     1      36.482 -25.613 -12.317  0.00  0.00    -0.001 C 
ATOM     12  C   UNL     1      38.885 -25.386 -13.714  0.00  0.00    +0.037 C 
ATOM     13  C   UNL     1      37.568 -26.420 -11.975  0.00  0.00    -0.000 C 
ATOM     14  C   UNL     1      38.766 -26.309 -12.677  0.00  0.00    +0.003 C 
ENDBRANCH   4   6
ENDBRANCH   1   4
BRANCH   1  15
ATOM     15  C   UNL     1      36.722 -22.005 -18.882  0.00  0.00    -0.053 C 
BRANCH  15  17
ATOM     16  N   UNL     1      33.127 -21.282 -19.746  0.00  0.00    -0.243 NA
ATOM     17  C   UNL     1      35.518 -21.408 -19.560  0.00  0.00    -0.025 C 
ATOM     18  C   UNL     1      35.674 -20.482 -20.572  0.00  0.00    -0.003 C 
ATOM     19  C   UNL     1      34.544 -19.947 -21.179  0.00  0.00    +0.019 C 
ATOM     20  C   UNL     1      34.249 -21.779 -19.179  0.00  0.00    +0.092 C 
ATOM     21  C   UNL     1      33.303 -20.376 -20.733  0.00  0.00    +0.099 C 
BRANCH  19  23
ATOM     22  F   UNL     1      34.976 -16.190 -25.278  0.00  0.00    -0.204 F 
ATOM     23  C   UNL     1      34.657 -18.975 -22.241  0.00  0.00    +0.002 C 
ATOM     24  C   UNL     1      35.034 -17.662 -21.951  0.00  0.00    +0.002 C 
ATOM     25  C   UNL     1      34.387 -19.343 -23.560  0.00  0.00    +0.002 C 
ATOM     26  C   UNL     1      35.142 -16.722 -22.976  0.00  0.00    +0.030 C 
ATOM     27  C   UNL     1      34.495 -18.403 -24.586  0.00  0.00    +0.030 C 
ATOM     28  C   UNL     1      34.872 -17.093 -24.293  0.00  0.00    +0.140 C 
ENDBRANCH  19  23
ENDBRANCH  15  17
ENDBRANCH   1  15
TORSDOF 5
ENDMDL
