MODEL 1
REMARK VINA RESULT:     -11.5      0.000      0.000
REMARK  Name = 6852141
REMARK  6 active torsions:
REMARK  status: ('A' for Active; 'I' for Inactive)
REMARK    1  A    between atoms: C_3  and  N_18
REMARK    2  A    between atoms: C_7  and  C_31
REMARK    3  A    between atoms: C_9  and  C_13
REMARK    4  A    between atoms: C_19  and  C_21
REMARK    5  A    between atoms: C_24  and  O_28
REMARK    6  A    between atoms: C_31  and  O_32
REMARK                            x       y       z     vdW  Elec       q    Type
REMARK                         _______ _______ _______ _____ _____    ______ ____
ROOT
ATOM      1  C   UNL     1      31.790 -23.987 -15.064  0.00  0.00    +0.014 C 
ATOM      2  C   UNL     1      31.591 -24.770 -13.903  0.00  0.00    +0.001 C 
ATOM      3  C   UNL     1      33.087 -23.558 -15.390  0.00  0.00    +0.051 C 
ATOM      4  C   UNL     1      30.686 -23.654 -15.865  0.00  0.00    +0.004 C 
ATOM      5  C   UNL     1      32.695 -25.103 -13.101  0.00  0.00    +0.007 C 
ATOM      6  C   UNL     1      34.173 -23.899 -14.582  0.00  0.00    +0.021 C 
ATOM      7  C   UNL     1      33.977 -24.669 -13.440  0.00  0.00    +0.077 C 
ATOM      8  C   UNL     1      30.293 -25.198 -13.577  0.00  0.00    +0.000 C 
ATOM      9  C   UNL     1      29.404 -24.088 -15.527  0.00  0.00    +0.031 C 
ATOM     10  C   UNL     1      29.208 -24.859 -14.385  0.00  0.00    +0.003 C 
ENDROOT
BRANCH   9  13
ATOM     11  N   UNL     1      27.687 -22.472 -16.305  0.00  0.00    -0.343 N 
ATOM     12  N   UNL     1      27.775 -24.624 -17.212  0.00  0.00    -0.285 NA
ATOM     13  C   UNL     1      28.272 -23.736 -16.369  0.00  0.00    +0.117 C 
ATOM     14  H   UNL     1      26.921 -22.254 -16.884  0.00  0.00    +0.144 HD
ATOM     15  H   UNL     1      28.040 -21.797 -15.680  0.00  0.00    +0.144 HD
ATOM     16  H   UNL     1      27.009 -24.388 -17.782  0.00  0.00    +0.188 HD
ENDBRANCH   9  13
BRANCH   3  18
ATOM     17  O   UNL     1      33.628 -24.379 -18.221  0.00  0.00    -0.270 OA
ATOM     18  N   UNL     1      33.345 -22.779 -16.525  0.00  0.00    -0.280 N 
ATOM     19  C   UNL     1      33.592 -23.219 -17.828  0.00  0.00    +0.249 C 
ATOM     20  H   UNL     1      33.354 -21.805 -16.387  0.00  0.00    +0.155 HD
BRANCH  19  21
ATOM     21  C   UNL     1      33.862 -22.144 -18.818  0.00  0.00    +0.053 C 
ATOM     22  C   UNL     1      35.152 -21.704 -19.031  0.00  0.00    +0.016 C 
ATOM     23  C   UNL     1      32.785 -21.616 -19.502  0.00  0.00    +0.004 C 
ATOM     24  C   UNL     1      35.376 -20.694 -19.967  0.00  0.00    +0.130 C 
ATOM     25  C   UNL     1      36.308 -22.288 -18.282  0.00  0.00    +0.034 C 
ATOM     26  C   UNL     1      33.009 -20.605 -20.437  0.00  0.00    +0.003 C 
ATOM     27  C   UNL     1      34.304 -20.145 -20.669  0.00  0.00    +0.036 C 
BRANCH  24  28
ATOM     28  O   UNL     1      36.635 -20.232 -20.208  0.00  0.00    -0.506 OA
ATOM     29  H   UNL     1      36.808 -19.723 -20.976  0.00  0.00    +0.292 HD
ENDBRANCH  24  28
ENDBRANCH  19  21
ENDBRANCH   3  18
BRANCH   7  31
ATOM     30  O   UNL     1      35.038 -25.243 -11.382  0.00  0.00    -0.245 OA
ATOM     31  C   UNL     1      35.110 -25.022 -12.598  0.00  0.00    +0.341 C 
BRANCH  31  32
ATOM     32  O   UNL     1      36.272 -25.082 -13.319  0.00  0.00    -0.441 OA
ATOM     33  C   UNL     1      37.116 -26.217 -13.093  0.00  0.00    +0.256 C 
ENDBRANCH  31  32
ENDBRANCH   7  31
TORSDOF 6
ENDMDL
MODEL 2
REMARK VINA RESULT:     -11.2      2.451      5.036
REMARK  Name = 6852141
REMARK  6 active torsions:
REMARK  status: ('A' for Active; 'I' for Inactive)
REMARK    1  A    between atoms: C_3  and  N_18
REMARK    2  A    between atoms: C_7  and  C_31
REMARK    3  A    between atoms: C_9  and  C_13
REMARK    4  A    between atoms: C_19  and  C_21
REMARK    5  A    between atoms: C_24  and  O_28
REMARK    6  A    between atoms: C_31  and  O_32
REMARK                            x       y       z     vdW  Elec       q    Type
REMARK                         _______ _______ _______ _____ _____    ______ ____
ROOT
ATOM      1  C   UNL     1      33.320 -23.750 -15.142  0.00  0.00    +0.014 C 
ATOM      2  C   UNL     1      32.772 -24.549 -14.111  0.00  0.00    +0.001 C 
ATOM      3  C   UNL     1      32.475 -23.248 -16.145  0.00  0.00    +0.051 C 
ATOM      4  C   UNL     1      34.698 -23.479 -15.141  0.00  0.00    +0.004 C 
ATOM      5  C   UNL     1      31.394 -24.820 -14.111  0.00  0.00    +0.007 C 
ATOM      6  C   UNL     1      31.108 -23.527 -16.129  0.00  0.00    +0.021 C 
ATOM      7  C   UNL     1      30.569 -24.313 -15.115  0.00  0.00    +0.077 C 
ATOM      8  C   UNL     1      33.617 -25.052 -13.108  0.00  0.00    +0.000 C 
ATOM      9  C   UNL     1      35.523 -23.987 -14.138  0.00  0.00    +0.031 C 
ATOM     10  C   UNL     1      34.983 -24.771 -13.123  0.00  0.00    +0.003 C 
ENDROOT
BRANCH   9  13
ATOM     11  N   UNL     1      37.707 -23.846 -15.310  0.00  0.00    -0.343 N 
ATOM     12  N   UNL     1      37.546 -23.282 -13.047  0.00  0.00    -0.285 NA
ATOM     13  C   UNL     1      36.948 -23.695 -14.151  0.00  0.00    +0.117 C 
ATOM     14  H   UNL     1      38.670 -23.643 -15.297  0.00  0.00    +0.144 HD
ATOM     15  H   UNL     1      37.280 -24.155 -16.142  0.00  0.00    +0.144 HD
ATOM     16  H   UNL     1      38.510 -23.085 -13.055  0.00  0.00    +0.188 HD
ENDBRANCH   9  13
BRANCH   3  18
ATOM     17  O   UNL     1      33.653 -24.033 -18.787  0.00  0.00    -0.270 OA
ATOM     18  N   UNL     1      32.961 -22.454 -17.191  0.00  0.00    -0.280 N 
ATOM     19  C   UNL     1      33.503 -22.877 -18.408  0.00  0.00    +0.249 C 
ATOM     20  H   UNL     1      32.916 -21.481 -17.052  0.00  0.00    +0.155 HD
BRANCH  19  21
ATOM     21  C   UNL     1      33.962 -21.788 -19.309  0.00  0.00    +0.053 C 
ATOM     22  C   UNL     1      35.296 -21.436 -19.350  0.00  0.00    +0.016 C 
ATOM     23  C   UNL     1      33.013 -21.156 -20.088  0.00  0.00    +0.004 C 
ATOM     24  C   UNL     1      35.698 -20.410 -20.206  0.00  0.00    +0.130 C 
ATOM     25  C   UNL     1      36.312 -22.131 -18.500  0.00  0.00    +0.034 C 
ATOM     26  C   UNL     1      33.415 -20.130 -20.943  0.00  0.00    +0.003 C 
ATOM     27  C   UNL     1      34.757 -19.758 -21.001  0.00  0.00    +0.036 C 
BRANCH  24  28
ATOM     28  O   UNL     1      37.005 -20.033 -20.278  0.00  0.00    -0.506 OA
ATOM     29  H   UNL     1      37.226 -19.148 -20.493  0.00  0.00    +0.292 HD
ENDBRANCH  24  28
ENDBRANCH  19  21
ENDBRANCH   3  18
BRANCH   7  31
ATOM     30  O   UNL     1      28.601 -25.415 -14.339  0.00  0.00    -0.245 OA
ATOM     31  C   UNL     1      29.143 -24.603 -15.101  0.00  0.00    +0.341 C 
BRANCH  31  32
ATOM     32  O   UNL     1      28.470 -23.866 -16.037  0.00  0.00    -0.441 OA
ATOM     33  C   UNL     1      27.503 -22.929 -15.550  0.00  0.00    +0.256 C 
ENDBRANCH  31  32
ENDBRANCH   7  31
TORSDOF 6
ENDMDL
MODEL 3
REMARK VINA RESULT:     -11.1      2.539      5.331
REMARK  Name = 6852141
REMARK  6 active torsions:
REMARK  status: ('A' for Active; 'I' for Inactive)
REMARK    1  A    between atoms: C_3  and  N_18
REMARK    2  A    between atoms: C_7  and  C_31
REMARK    3  A    between atoms: C_9  and  C_13
REMARK    4  A    between atoms: C_19  and  C_21
REMARK    5  A    between atoms: C_24  and  O_28
REMARK    6  A    between atoms: C_31  and  O_32
REMARK                            x       y       z     vdW  Elec       q    Type
REMARK                         _______ _______ _______ _____ _____    ______ ____
ROOT
ATOM      1  C   UNL     1      32.220 -23.741 -15.321  0.00  0.00    +0.014 C 
ATOM      2  C   UNL     1      31.187 -24.350 -14.570  0.00  0.00    +0.001 C 
ATOM      3  C   UNL     1      31.896 -23.052 -16.502  0.00  0.00    +0.051 C 
ATOM      4  C   UNL     1      33.546 -23.839 -14.870  0.00  0.00    +0.004 C 
ATOM      5  C   UNL     1      29.860 -24.252 -15.020  0.00  0.00    +0.007 C 
ATOM      6  C   UNL     1      30.573 -22.964 -16.934  0.00  0.00    +0.021 C 
ATOM      7  C   UNL     1      29.557 -23.564 -16.195  0.00  0.00    +0.077 C 
ATOM      8  C   UNL     1      31.511 -25.039 -13.390  0.00  0.00    +0.000 C 
ATOM      9  C   UNL     1      33.850 -24.527 -13.695  0.00  0.00    +0.031 C 
ATOM     10  C   UNL     1      32.834 -25.125 -12.956  0.00  0.00    +0.003 C 
ENDROOT
BRANCH   9  13
ATOM     11  N   UNL     1      35.902 -23.505 -12.740  0.00  0.00    -0.343 N 
ATOM     12  N   UNL     1      35.868 -25.773 -13.306  0.00  0.00    -0.285 NA
ATOM     13  C   UNL     1      35.229 -24.618 -13.242  0.00  0.00    +0.117 C 
ATOM     14  H   UNL     1      36.835 -23.589 -12.439  0.00  0.00    +0.144 HD
ATOM     15  H   UNL     1      35.443 -22.635 -12.688  0.00  0.00    +0.144 HD
ATOM     16  H   UNL     1      36.801 -25.836 -13.000  0.00  0.00    +0.188 HD
ENDBRANCH   9  13
BRANCH   3  18
ATOM     17  O   UNL     1      33.494 -24.114 -18.805  0.00  0.00    -0.270 OA
ATOM     18  N   UNL     1      32.876 -22.431 -17.287  0.00  0.00    -0.280 N 
ATOM     19  C   UNL     1      33.593 -22.979 -18.354  0.00  0.00    +0.249 C 
ATOM     20  H   UNL     1      33.085 -21.497 -17.058  0.00  0.00    +0.155 HD
BRANCH  19  21
ATOM     21  C   UNL     1      34.594 -22.072 -18.975  0.00  0.00    +0.053 C 
ATOM     22  C   UNL     1      34.192 -21.100 -19.867  0.00  0.00    +0.016 C 
ATOM     23  C   UNL     1      35.919 -22.243 -18.624  0.00  0.00    +0.004 C 
ATOM     24  C   UNL     1      35.153 -20.263 -20.434  0.00  0.00    +0.130 C 
ATOM     25  C   UNL     1      32.752 -20.928 -20.236  0.00  0.00    +0.034 C 
ATOM     26  C   UNL     1      36.880 -21.406 -19.191  0.00  0.00    +0.003 C 
ATOM     27  C   UNL     1      36.497 -20.417 -20.095  0.00  0.00    +0.036 C 
BRANCH  24  28
ATOM     28  O   UNL     1      34.798 -19.289 -21.319  0.00  0.00    -0.506 OA
ATOM     29  H   UNL     1      35.293 -18.494 -21.364  0.00  0.00    +0.292 HD
ENDBRANCH  24  28
ENDBRANCH  19  21
ENDBRANCH   3  18
BRANCH   7  31
ATOM     30  O   UNL     1      27.559 -24.390 -17.203  0.00  0.00    -0.245 OA
ATOM     31  C   UNL     1      28.177 -23.471 -16.648  0.00  0.00    +0.341 C 
BRANCH  31  32
ATOM     32  O   UNL     1      27.643 -22.240 -16.385  0.00  0.00    -0.441 OA
ATOM     33  C   UNL     1      26.412 -21.915 -17.041  0.00  0.00    +0.256 C 
ENDBRANCH  31  32
ENDBRANCH   7  31
TORSDOF 6
ENDMDL
MODEL 4
REMARK VINA RESULT:     -10.6      2.615      6.239
REMARK  Name = 6852141
REMARK  6 active torsions:
REMARK  status: ('A' for Active; 'I' for Inactive)
REMARK    1  A    between atoms: C_3  and  N_18
REMARK    2  A    between atoms: C_7  and  C_31
REMARK    3  A    between atoms: C_9  and  C_13
REMARK    4  A    between atoms: C_19  and  C_21
REMARK    5  A    between atoms: C_24  and  O_28
REMARK    6  A    between atoms: C_31  and  O_32
REMARK                            x       y       z     vdW  Elec       q    Type
REMARK                         _______ _______ _______ _____ _____    ______ ____
ROOT
ATOM      1  C   UNL     1      34.988 -22.726 -17.212  0.00  0.00    +0.014 C 
ATOM      2  C   UNL     1      36.383 -22.489 -17.243  0.00  0.00    +0.001 C 
ATOM      3  C   UNL     1      34.443 -23.478 -16.159  0.00  0.00    +0.051 C 
ATOM      4  C   UNL     1      34.180 -22.206 -18.236  0.00  0.00    +0.004 C 
ATOM      5  C   UNL     1      37.191 -23.009 -16.219  0.00  0.00    +0.007 C 
ATOM      6  C   UNL     1      35.261 -23.986 -15.149  0.00  0.00    +0.021 C 
ATOM      7  C   UNL     1      36.632 -23.753 -15.180  0.00  0.00    +0.077 C 
ATOM      8  C   UNL     1      36.929 -21.738 -18.297  0.00  0.00    +0.000 C 
ATOM      9  C   UNL     1      34.739 -21.462 -19.276  0.00  0.00    +0.031 C 
ATOM     10  C   UNL     1      36.111 -21.228 -19.306  0.00  0.00    +0.003 C 
ENDROOT
BRANCH   9  13
ATOM     11  N   UNL     1      34.425 -20.259 -21.425  0.00  0.00    -0.343 N 
ATOM     12  N   UNL     1      32.577 -21.075 -20.251  0.00  0.00    -0.285 NA
ATOM     13  C   UNL     1      33.888 -20.930 -20.328  0.00  0.00    +0.117 C 
ATOM     14  H   UNL     1      33.831 -19.907 -22.126  0.00  0.00    +0.144 HD
ATOM     15  H   UNL     1      35.400 -20.138 -21.498  0.00  0.00    +0.144 HD
ATOM     16  H   UNL     1      31.999 -20.716 -20.962  0.00  0.00    +0.188 HD
ENDBRANCH   9  13
BRANCH   3  18
ATOM     17  O   UNL     1      32.401 -22.543 -14.173  0.00  0.00    -0.270 OA
ATOM     18  N   UNL     1      33.070 -23.746 -16.076  0.00  0.00    -0.280 N 
ATOM     19  C   UNL     1      32.162 -23.280 -15.122  0.00  0.00    +0.249 C 
ATOM     20  H   UNL     1      32.703 -24.335 -16.774  0.00  0.00    +0.155 HD
BRANCH  19  21
ATOM     21  C   UNL     1      30.767 -23.768 -15.285  0.00  0.00    +0.053 C 
ATOM     22  C   UNL     1      30.299 -24.807 -14.507  0.00  0.00    +0.016 C 
ATOM     23  C   UNL     1      29.977 -23.148 -16.232  0.00  0.00    +0.004 C 
ATOM     24  C   UNL     1      28.986 -25.244 -14.682  0.00  0.00    +0.130 C 
ATOM     25  C   UNL     1      31.169 -25.468 -13.484  0.00  0.00    +0.034 C 
ATOM     26  C   UNL     1      28.664 -23.585 -16.408  0.00  0.00    +0.003 C 
ATOM     27  C   UNL     1      28.169 -24.633 -15.632  0.00  0.00    +0.036 C 
BRANCH  24  28
ATOM     28  O   UNL     1      28.484 -26.266 -13.932  0.00  0.00    -0.506 OA
ATOM     29  H   UNL     1      28.608 -26.270 -13.003  0.00  0.00    +0.292 HD
ENDBRANCH  24  28
ENDBRANCH  19  21
ENDBRANCH   3  18
BRANCH   7  31
ATOM     30  O   UNL     1      37.880 -23.634 -13.150  0.00  0.00    -0.245 OA
ATOM     31  C   UNL     1      37.484 -24.285 -14.126  0.00  0.00    +0.341 C 
BRANCH  31  32
ATOM     32  O   UNL     1      37.794 -25.599 -14.346  0.00  0.00    -0.441 OA
ATOM     33  C   UNL     1      37.391 -26.536 -13.342  0.00  0.00    +0.256 C 
ENDBRANCH  31  32
ENDBRANCH   7  31
TORSDOF 6
ENDMDL
MODEL 5
REMARK VINA RESULT:     -10.3      3.052      6.162
REMARK  Name = 6852141
REMARK  6 active torsions:
REMARK  status: ('A' for Active; 'I' for Inactive)
REMARK    1  A    between atoms: C_3  and  N_18
REMARK    2  A    between atoms: C_7  and  C_31
REMARK    3  A    between atoms: C_9  and  C_13
REMARK    4  A    between atoms: C_19  and  C_21
REMARK    5  A    between atoms: C_24  and  O_28
REMARK    6  A    between atoms: C_31  and  O_32
REMARK                            x       y       z     vdW  Elec       q    Type
REMARK                         _______ _______ _______ _____ _____    ______ ____
ROOT
ATOM      1  C   UNL     1      35.653 -23.760 -15.292  0.00  0.00    +0.014 C 
ATOM      2  C   UNL     1      37.031 -23.672 -14.983  0.00  0.00    +0.001 C 
ATOM      3  C   UNL     1      34.796 -24.448 -14.417  0.00  0.00    +0.051 C 
ATOM      4  C   UNL     1      35.173 -23.160 -16.467  0.00  0.00    +0.004 C 
ATOM      5  C   UNL     1      37.512 -24.272 -13.808  0.00  0.00    +0.007 C 
ATOM      6  C   UNL     1      35.291 -25.038 -13.254  0.00  0.00    +0.021 C 
ATOM      7  C   UNL     1      36.646 -24.950 -12.950  0.00  0.00    +0.077 C 
ATOM      8  C   UNL     1      37.888 -22.985 -15.858  0.00  0.00    +0.000 C 
ATOM      9  C   UNL     1      36.039 -22.481 -17.325  0.00  0.00    +0.031 C 
ATOM     10  C   UNL     1      37.394 -22.393 -17.020  0.00  0.00    +0.003 C 
ENDROOT
BRANCH   9  13
ATOM     11  N   UNL     1      34.198 -22.031 -18.929  0.00  0.00    -0.343 N 
ATOM     12  N   UNL     1      36.324 -21.131 -19.293  0.00  0.00    -0.285 NA
ATOM     13  C   UNL     1      35.525 -21.864 -18.537  0.00  0.00    +0.117 C 
ATOM     14  H   UNL     1      33.871 -21.604 -19.753  0.00  0.00    +0.144 HD
ATOM     15  H   UNL     1      33.588 -22.576 -18.381  0.00  0.00    +0.144 HD
ATOM     16  H   UNL     1      35.978 -20.713 -20.114  0.00  0.00    +0.188 HD
ENDBRANCH   9  13
BRANCH   3  18
ATOM     17  O   UNL     1      32.438 -23.553 -12.798  0.00  0.00    -0.270 OA
ATOM     18  N   UNL     1      33.424 -24.570 -14.672  0.00  0.00    -0.280 N 
ATOM     19  C   UNL     1      32.362 -24.131 -13.876  0.00  0.00    +0.249 C 
ATOM     20  H   UNL     1      33.179 -25.019 -15.512  0.00  0.00    +0.155 HD
BRANCH  19  21
ATOM     21  C   UNL     1      31.007 -24.436 -14.405  0.00  0.00    +0.053 C 
ATOM     22  C   UNL     1      30.555 -23.818 -15.553  0.00  0.00    +0.016 C 
ATOM     23  C   UNL     1      30.236 -25.347 -13.711  0.00  0.00    +0.004 C 
ATOM     24  C   UNL     1      29.279 -24.123 -16.027  0.00  0.00    +0.130 C 
ATOM     25  C   UNL     1      31.403 -22.833 -16.294  0.00  0.00    +0.034 C 
ATOM     26  C   UNL     1      28.960 -25.652 -14.184  0.00  0.00    +0.003 C 
ATOM     27  C   UNL     1      28.483 -25.040 -15.342  0.00  0.00    +0.036 C 
BRANCH  24  28
ATOM     28  O   UNL     1      28.794 -23.536 -17.158  0.00  0.00    -0.506 OA
ATOM     29  H   UNL     1      28.559 -24.065 -17.896  0.00  0.00    +0.292 HD
ENDBRANCH  24  28
ENDBRANCH  19  21
ENDBRANCH   3  18
BRANCH   7  31
ATOM     30  O   UNL     1      37.183 -26.788 -11.527  0.00  0.00    -0.245 OA
ATOM     31  C   UNL     1      37.159 -25.567 -11.736  0.00  0.00    +0.341 C 
BRANCH  31  32
ATOM     32  O   UNL     1      37.616 -24.630 -10.850  0.00  0.00    -0.441 OA
ATOM     33  C   UNL     1      36.631 -23.818 -10.202  0.00  0.00    +0.256 C 
ENDBRANCH  31  32
ENDBRANCH   7  31
TORSDOF 6
ENDMDL
MODEL 6
REMARK VINA RESULT:     -10.2      2.231      6.694
REMARK  Name = 6852141
REMARK  6 active torsions:
REMARK  status: ('A' for Active; 'I' for Inactive)
REMARK    1  A    between atoms: C_3  and  N_18
REMARK    2  A    between atoms: C_7  and  C_31
REMARK    3  A    between atoms: C_9  and  C_13
REMARK    4  A    between atoms: C_19  and  C_21
REMARK    5  A    between atoms: C_24  and  O_28
REMARK    6  A    between atoms: C_31  and  O_32
REMARK                            x       y       z     vdW  Elec       q    Type
REMARK                         _______ _______ _______ _____ _____    ______ ____
ROOT
ATOM      1  C   UNL     1      33.525 -23.581 -16.249  0.00  0.00    +0.014 C 
ATOM      2  C   UNL     1      32.571 -22.927 -17.064  0.00  0.00    +0.001 C 
ATOM      3  C   UNL     1      34.886 -23.502 -16.588  0.00  0.00    +0.051 C 
ATOM      4  C   UNL     1      33.091 -24.296 -15.121  0.00  0.00    +0.004 C 
ATOM      5  C   UNL     1      33.004 -22.212 -18.192  0.00  0.00    +0.007 C 
ATOM      6  C   UNL     1      35.299 -22.787 -17.712  0.00  0.00    +0.021 C 
ATOM      7  C   UNL     1      34.360 -22.144 -18.513  0.00  0.00    +0.077 C 
ATOM      8  C   UNL     1      31.210 -23.007 -16.726  0.00  0.00    +0.000 C 
ATOM      9  C   UNL     1      31.735 -24.364 -14.800  0.00  0.00    +0.031 C 
ATOM     10  C   UNL     1      30.796 -23.720 -15.601  0.00  0.00    +0.003 C 
ENDROOT
BRANCH   9  13
ATOM     11  N   UNL     1      29.954 -25.373 -13.394  0.00  0.00    -0.343 N 
ATOM     12  N   UNL     1      32.196 -25.542 -12.756  0.00  0.00    -0.285 NA
ATOM     13  C   UNL     1      31.302 -25.108 -13.628  0.00  0.00    +0.117 C 
ATOM     14  H   UNL     1      29.683 -25.878 -12.594  0.00  0.00    +0.144 HD
ATOM     15  H   UNL     1      29.273 -25.054 -14.030  0.00  0.00    +0.144 HD
ATOM     16  H   UNL     1      31.905 -26.045 -11.962  0.00  0.00    +0.188 HD
ENDBRANCH   9  13
BRANCH   3  18
ATOM     17  O   UNL     1      37.254 -22.347 -15.159  0.00  0.00    -0.270 OA
ATOM     18  N   UNL     1      35.876 -24.130 -15.820  0.00  0.00    -0.280 N 
ATOM     19  C   UNL     1      36.964 -23.537 -15.174  0.00  0.00    +0.249 C 
ATOM     20  H   UNL     1      35.795 -25.106 -15.726  0.00  0.00    +0.155 HD
BRANCH  19  21
ATOM     21  C   UNL     1      37.863 -24.479 -14.457  0.00  0.00    +0.053 C 
ATOM     22  C   UNL     1      37.477 -25.025 -13.250  0.00  0.00    +0.016 C 
ATOM     23  C   UNL     1      39.078 -24.777 -15.041  0.00  0.00    +0.004 C 
ATOM     24  C   UNL     1      38.341 -25.906 -12.600  0.00  0.00    +0.130 C 
ATOM     25  C   UNL     1      36.156 -24.692 -12.631  0.00  0.00    +0.034 C 
ATOM     26  C   UNL     1      39.942 -25.658 -14.391  0.00  0.00    +0.003 C 
ATOM     27  C   UNL     1      39.573 -26.222 -13.171  0.00  0.00    +0.036 C 
BRANCH  24  28
ATOM     28  O   UNL     1      37.998 -26.469 -11.407  0.00  0.00    -0.506 OA
ATOM     29  H   UNL     1      38.636 -26.946 -10.913  0.00  0.00    +0.292 HD
ENDBRANCH  24  28
ENDBRANCH  19  21
ENDBRANCH   3  18
BRANCH   7  31
ATOM     30  O   UNL     1      35.962 -21.356 -20.096  0.00  0.00    -0.245 OA
ATOM     31  C   UNL     1      34.794 -21.400 -19.686  0.00  0.00    +0.341 C 
BRANCH  31  32
ATOM     32  O   UNL     1      33.749 -20.750 -20.284  0.00  0.00    -0.441 OA
ATOM     33  C   UNL     1      34.077 -19.780 -21.285  0.00  0.00    +0.256 C 
ENDBRANCH  31  32
ENDBRANCH   7  31
TORSDOF 6
ENDMDL
MODEL 7
REMARK VINA RESULT:     -10.0      2.582      7.223
REMARK  Name = 6852141
REMARK  6 active torsions:
REMARK  status: ('A' for Active; 'I' for Inactive)
REMARK    1  A    between atoms: C_3  and  N_18
REMARK    2  A    between atoms: C_7  and  C_31
REMARK    3  A    between atoms: C_9  and  C_13
REMARK    4  A    between atoms: C_19  and  C_21
REMARK    5  A    between atoms: C_24  and  O_28
REMARK    6  A    between atoms: C_31  and  O_32
REMARK                            x       y       z     vdW  Elec       q    Type
REMARK                         _______ _______ _______ _____ _____    ______ ____
ROOT
ATOM      1  C   UNL     1      35.367 -23.548 -15.799  0.00  0.00    +0.014 C 
ATOM      2  C   UNL     1      36.686 -23.122 -16.080  0.00  0.00    +0.001 C 
ATOM      3  C   UNL     1      34.331 -23.204 -16.684  0.00  0.00    +0.051 C 
ATOM      4  C   UNL     1      35.121 -24.303 -14.642  0.00  0.00    +0.004 C 
ATOM      5  C   UNL     1      36.933 -22.366 -17.238  0.00  0.00    +0.007 C 
ATOM      6  C   UNL     1      34.595 -22.453 -17.830  0.00  0.00    +0.021 C 
ATOM      7  C   UNL     1      35.893 -22.034 -18.106  0.00  0.00    +0.077 C 
ATOM      8  C   UNL     1      37.722 -23.464 -15.195  0.00  0.00    +0.000 C 
ATOM      9  C   UNL     1      36.161 -24.635 -13.774  0.00  0.00    +0.031 C 
ATOM     10  C   UNL     1      37.459 -24.217 -14.050  0.00  0.00    +0.003 C 
ENDROOT
BRANCH   9  13
ATOM     11  N   UNL     1      36.779 -26.396 -12.135  0.00  0.00    -0.343 N 
ATOM     12  N   UNL     1      34.777 -25.215 -11.896  0.00  0.00    -0.285 NA
ATOM     13  C   UNL     1      35.889 -25.419 -12.580  0.00  0.00    +0.117 C 
ATOM     14  H   UNL     1      36.576 -26.915 -11.325  0.00  0.00    +0.144 HD
ATOM     15  H   UNL     1      37.612 -26.565 -12.633  0.00  0.00    +0.144 HD
ATOM     16  H   UNL     1      34.591 -25.745 -11.088  0.00  0.00    +0.188 HD
ENDBRANCH   9  13
BRANCH   3  18
ATOM     17  O   UNL     1      32.428 -22.432 -14.501  0.00  0.00    -0.270 OA
ATOM     18  N   UNL     1      33.006 -23.596 -16.458  0.00  0.00    -0.280 N 
ATOM     19  C   UNL     1      32.161 -23.201 -15.416  0.00  0.00    +0.249 C 
ATOM     20  H   UNL     1      32.624 -24.226 -17.110  0.00  0.00    +0.155 HD
BRANCH  19  21
ATOM     21  C   UNL     1      30.809 -23.818 -15.431  0.00  0.00    +0.053 C 
ATOM     22  C   UNL     1      30.536 -24.912 -14.636  0.00  0.00    +0.016 C 
ATOM     23  C   UNL     1      29.857 -23.256 -16.259  0.00  0.00    +0.004 C 
ATOM     24  C   UNL     1      29.257 -25.470 -14.671  0.00  0.00    +0.130 C 
ATOM     25  C   UNL     1      31.579 -25.508 -13.745  0.00  0.00    +0.034 C 
ATOM     26  C   UNL     1      28.578 -23.814 -16.293  0.00  0.00    +0.003 C 
ATOM     27  C   UNL     1      28.280 -24.920 -15.499  0.00  0.00    +0.036 C 
BRANCH  24  28
ATOM     28  O   UNL     1      28.945 -26.550 -13.901  0.00  0.00    -0.506 OA
ATOM     29  H   UNL     1      28.725 -27.366 -14.306  0.00  0.00    +0.292 HD
ENDBRANCH  24  28
ENDBRANCH  19  21
ENDBRANCH   3  18
BRANCH   7  31
ATOM     30  O   UNL     1      37.175 -20.553 -19.467  0.00  0.00    -0.245 OA
ATOM     31  C   UNL     1      36.164 -21.250 -19.301  0.00  0.00    +0.341 C 
BRANCH  31  32
ATOM     32  O   UNL     1      35.163 -21.377 -20.224  0.00  0.00    -0.441 OA
ATOM     33  C   UNL     1      34.669 -20.169 -20.814  0.00  0.00    +0.256 C 
ENDBRANCH  31  32
ENDBRANCH   7  31
TORSDOF 6
ENDMDL
MODEL 8
REMARK VINA RESULT:      -9.9      2.695      5.432
REMARK  Name = 6852141
REMARK  6 active torsions:
REMARK  status: ('A' for Active; 'I' for Inactive)
REMARK    1  A    between atoms: C_3  and  N_18
REMARK    2  A    between atoms: C_7  and  C_31
REMARK    3  A    between atoms: C_9  and  C_13
REMARK    4  A    between atoms: C_19  and  C_21
REMARK    5  A    between atoms: C_24  and  O_28
REMARK    6  A    between atoms: C_31  and  O_32
REMARK                            x       y       z     vdW  Elec       q    Type
REMARK                         _______ _______ _______ _____ _____    ______ ____
ROOT
ATOM      1  C   UNL     1      34.821 -24.032 -15.064  0.00  0.00    +0.014 C 
ATOM      2  C   UNL     1      34.228 -24.785 -14.023  0.00  0.00    +0.001 C 
ATOM      3  C   UNL     1      34.002 -23.274 -15.916  0.00  0.00    +0.051 C 
ATOM      4  C   UNL     1      36.216 -24.061 -15.223  0.00  0.00    +0.004 C 
ATOM      5  C   UNL     1      32.833 -24.757 -13.863  0.00  0.00    +0.007 C 
ATOM      6  C   UNL     1      32.617 -23.257 -15.742  0.00  0.00    +0.021 C 
ATOM      7  C   UNL     1      32.034 -23.998 -14.718  0.00  0.00    +0.077 C 
ATOM      8  C   UNL     1      35.048 -25.545 -13.171  0.00  0.00    +0.000 C 
ATOM      9  C   UNL     1      37.015 -24.820 -14.368  0.00  0.00    +0.031 C 
ATOM     10  C   UNL     1      36.432 -25.560 -13.343  0.00  0.00    +0.003 C 
ENDROOT
BRANCH   9  13
ATOM     11  N   UNL     1      39.279 -25.623 -13.738  0.00  0.00    -0.343 N 
ATOM     12  N   UNL     1      39.015 -24.095 -15.486  0.00  0.00    -0.285 NA
ATOM     13  C   UNL     1      38.458 -24.837 -14.545  0.00  0.00    +0.117 C 
ATOM     14  H   UNL     1      40.253 -25.620 -13.875  0.00  0.00    +0.144 HD
ATOM     15  H   UNL     1      38.883 -26.181 -13.029  0.00  0.00    +0.144 HD
ATOM     16  H   UNL     1      39.991 -24.105 -15.608  0.00  0.00    +0.188 HD
ENDBRANCH   9  13
BRANCH   3  18
ATOM     17  O   UNL     1      33.697 -23.579 -18.882  0.00  0.00    -0.270 OA
ATOM     18  N   UNL     1      34.532 -22.511 -16.964  0.00  0.00    -0.280 N 
ATOM     19  C   UNL     1      34.355 -22.701 -18.337  0.00  0.00    +0.249 C 
ATOM     20  H   UNL     1      35.097 -21.749 -16.701  0.00  0.00    +0.155 HD
BRANCH  19  21
ATOM     21  C   UNL     1      35.076 -21.735 -19.207  0.00  0.00    +0.053 C 
ATOM     22  C   UNL     1      34.372 -20.898 -20.048  0.00  0.00    +0.016 C 
ATOM     23  C   UNL     1      36.455 -21.713 -19.136  0.00  0.00    +0.004 C 
ATOM     24  C   UNL     1      35.075 -20.001 -20.853  0.00  0.00    +0.130 C 
ATOM     25  C   UNL     1      32.878 -20.934 -20.111  0.00  0.00    +0.034 C 
ATOM     26  C   UNL     1      37.158 -20.816 -19.941  0.00  0.00    +0.003 C 
ATOM     27  C   UNL     1      36.468 -19.961 -20.799  0.00  0.00    +0.036 C 
BRANCH  24  28
ATOM     28  O   UNL     1      34.418 -19.156 -21.697  0.00  0.00    -0.506 OA
ATOM     29  H   UNL     1      34.710 -19.057 -22.582  0.00  0.00    +0.292 HD
ENDBRANCH  24  28
ENDBRANCH  19  21
ENDBRANCH   3  18
BRANCH   7  31
ATOM     30  O   UNL     1      29.837 -23.118 -15.014  0.00  0.00    -0.245 OA
ATOM     31  C   UNL     1      30.590 -23.980 -14.540  0.00  0.00    +0.341 C 
BRANCH  31  32
ATOM     32  O   UNL     1      30.163 -25.036 -13.782  0.00  0.00    -0.441 OA
ATOM     33  C   UNL     1      29.240 -25.941 -14.396  0.00  0.00    +0.256 C 
ENDBRANCH  31  32
ENDBRANCH   7  31
TORSDOF 6
ENDMDL
MODEL 9
REMARK VINA RESULT:      -9.9      2.451      7.744
REMARK  Name = 6852141
REMARK  6 active torsions:
REMARK  status: ('A' for Active; 'I' for Inactive)
REMARK    1  A    between atoms: C_3  and  N_18
REMARK    2  A    between atoms: C_7  and  C_31
REMARK    3  A    between atoms: C_9  and  C_13
REMARK    4  A    between atoms: C_19  and  C_21
REMARK    5  A    between atoms: C_24  and  O_28
REMARK    6  A    between atoms: C_31  and  O_32
REMARK                            x       y       z     vdW  Elec       q    Type
REMARK                         _______ _______ _______ _____ _____    ______ ____
ROOT
ATOM      1  C   UNL     1      35.199 -22.947 -16.821  0.00  0.00    +0.014 C 
ATOM      2  C   UNL     1      36.180 -22.269 -17.583  0.00  0.00    +0.001 C 
ATOM      3  C   UNL     1      33.865 -22.944 -17.261  0.00  0.00    +0.051 C 
ATOM      4  C   UNL     1      35.580 -23.608 -15.643  0.00  0.00    +0.004 C 
ATOM      5  C   UNL     1      35.799 -21.608 -18.762  0.00  0.00    +0.007 C 
ATOM      6  C   UNL     1      33.504 -22.282 -18.435  0.00  0.00    +0.021 C 
ATOM      7  C   UNL     1      34.469 -21.615 -19.184  0.00  0.00    +0.077 C 
ATOM      8  C   UNL     1      37.514 -22.271 -17.143  0.00  0.00    +0.000 C 
ATOM      9  C   UNL     1      36.910 -23.600 -15.221  0.00  0.00    +0.031 C 
ATOM     10  C   UNL     1      37.875 -22.934 -15.970  0.00  0.00    +0.003 C 
ENDROOT
BRANCH   9  13
ATOM     11  N   UNL     1      37.130 -25.669 -13.865  0.00  0.00    -0.343 N 
ATOM     12  N   UNL     1      37.790 -23.608 -12.984  0.00  0.00    -0.285 NA
ATOM     13  C   UNL     1      37.288 -24.291 -13.998  0.00  0.00    +0.117 C 
ATOM     14  H   UNL     1      37.392 -26.117 -13.029  0.00  0.00    +0.144 HD
ATOM     15  H   UNL     1      36.755 -26.195 -14.609  0.00  0.00    +0.144 HD
ATOM     16  H   UNL     1      38.046 -24.073 -12.155  0.00  0.00    +0.188 HD
ENDBRANCH   9  13
BRANCH   3  18
ATOM     17  O   UNL     1      30.958 -22.270 -16.972  0.00  0.00    -0.270 OA
ATOM     18  N   UNL     1      32.851 -23.596 -16.548  0.00  0.00    -0.280 N 
ATOM     19  C   UNL     1      31.504 -23.234 -16.448  0.00  0.00    +0.249 C 
ATOM     20  H   UNL     1      33.120 -24.406 -16.058  0.00  0.00    +0.155 HD
BRANCH  19  21
ATOM     21  C   UNL     1      30.675 -24.117 -15.587  0.00  0.00    +0.053 C 
ATOM     22  C   UNL     1      31.012 -24.312 -14.263  0.00  0.00    +0.016 C 
ATOM     23  C   UNL     1      29.573 -24.721 -16.160  0.00  0.00    +0.004 C 
ATOM     24  C   UNL     1      30.215 -25.146 -13.479  0.00  0.00    +0.130 C 
ATOM     25  C   UNL     1      32.209 -23.649 -13.658  0.00  0.00    +0.034 C 
ATOM     26  C   UNL     1      28.776 -25.555 -15.375  0.00  0.00    +0.003 C 
ATOM     27  C   UNL     1      29.097 -25.766 -14.035  0.00  0.00    +0.036 C 
BRANCH  24  28
ATOM     28  O   UNL     1      30.512 -25.364 -12.166  0.00  0.00    -0.506 OA
ATOM     29  H   UNL     1      30.212 -26.144 -11.742  0.00  0.00    +0.292 HD
ENDBRANCH  24  28
ENDBRANCH  19  21
ENDBRANCH   3  18
BRANCH   7  31
ATOM     30  O   UNL     1      32.922 -20.736 -20.773  0.00  0.00    -0.245 OA
ATOM     31  C   UNL     1      34.091 -20.925 -20.408  0.00  0.00    +0.341 C 
BRANCH  31  32
ATOM     32  O   UNL     1      35.188 -20.507 -21.110  0.00  0.00    -0.441 OA
ATOM     33  C   UNL     1      34.947 -19.695 -22.264  0.00  0.00    +0.256 C 
ENDBRANCH  31  32
ENDBRANCH   7  31
TORSDOF 6
ENDMDL
