MODEL 1
REMARK VINA RESULT:     -11.4      0.000      0.000
REMARK  Name = 17754438
REMARK  6 active torsions:
REMARK  status: ('A' for Active; 'I' for Inactive)
REMARK    1  A    between atoms: N_1  and  C_19
REMARK    2  A    between atoms: C_7  and  C_12
REMARK    3  A    between atoms: N_10  and  C_15
REMARK    4  A    between atoms: C_15  and  C_16
REMARK    5  A    between atoms: C_16  and  O_17
REMARK    6  A    between atoms: C_19  and  C_21
REMARK                            x       y       z     vdW  Elec       q    Type
REMARK                         _______ _______ _______ _____ _____    ______ ____
ROOT
ATOM      1  N   UNL     1      34.736 -20.639 -20.238  0.00  0.00    -0.163 N 
ATOM      2  N   UNL     1      35.645 -21.824 -18.304  0.00  0.00    -0.378 NA
ATOM      3  N   UNL     1      33.530 -20.530 -20.831  0.00  0.00    -0.033 NA
ATOM      4  N   UNL     1      32.887 -22.696 -18.159  0.00  0.00    -0.208 NA
ATOM      5  N   UNL     1      32.669 -21.280 -20.144  0.00  0.00    -0.086 NA
ATOM      6  C   UNL     1      34.676 -21.460 -19.157  0.00  0.00    +0.267 C 
ATOM      7  C   UNL     1      35.167 -22.662 -17.356  0.00  0.00    +0.140 C 
ATOM      8  C   UNL     1      33.353 -21.857 -19.114  0.00  0.00    +0.098 C 
ATOM      9  C   UNL     1      33.846 -23.080 -17.285  0.00  0.00    +0.195 C 
ENDROOT
BRANCH   7  12
ATOM     10  N   UNL     1      37.017 -24.214 -14.724  0.00  0.00    -0.208 N 
ATOM     11  N   UNL     1      38.016 -23.419 -15.145  0.00  0.00    -0.176 NA
ATOM     12  C   UNL     1      36.123 -23.117 -16.387  0.00  0.00    +0.064 C 
ATOM     13  C   UNL     1      35.862 -24.071 -15.435  0.00  0.00    +0.088 C 
ATOM     14  C   UNL     1      37.463 -22.751 -16.161  0.00  0.00    +0.121 C 
BRANCH  10  15
ATOM     15  C   UNL     1      37.235 -25.111 -13.614  0.00  0.00    +0.148 C 
BRANCH  15  16
ATOM     16  C   UNL     1      37.555 -26.530 -14.064  0.00  0.00    +0.161 C 
BRANCH  16  17
ATOM     17  O   UNL     1      38.540 -26.497 -15.088  0.00  0.00    -0.380 OA
ATOM     18  H   UNL     1      39.055 -27.318 -15.068  0.00  0.00    +0.211 HD
ENDBRANCH  16  17
ENDBRANCH  15  16
ENDBRANCH  10  15
ENDBRANCH   7  12
BRANCH   1  19
ATOM     19  C   UNL     1      35.898 -19.920 -20.770  0.00  0.00    +0.145 C 
BRANCH  19  21
ATOM     20  N   UNL     1      34.376 -15.338 -23.721  0.00  0.00    -0.244 NA
ATOM     21  C   UNL     1      35.497 -18.707 -21.539  0.00  0.00    -0.000 C 
ATOM     22  C   UNL     1      35.143 -17.539 -20.870  0.00  0.00    -0.001 C 
ATOM     23  C   UNL     1      34.763 -16.394 -21.591  0.00  0.00    +0.017 C 
ATOM     24  C   UNL     1      35.472 -18.737 -22.928  0.00  0.00    -0.001 C 
ATOM     25  C   UNL     1      34.736 -16.417 -23.001  0.00  0.00    +0.081 C 
ATOM     26  C   UNL     1      35.095 -17.598 -23.644  0.00  0.00    +0.019 C 
ATOM     27  C   UNL     1      34.402 -15.206 -20.942  0.00  0.00    +0.003 C 
ATOM     28  C   UNL     1      34.031 -14.092 -21.682  0.00  0.00    +0.021 C 
ATOM     29  C   UNL     1      34.035 -14.210 -23.057  0.00  0.00    +0.099 C 
ENDBRANCH  19  21
ENDBRANCH   1  19
TORSDOF 6
ENDMDL
MODEL 2
REMARK VINA RESULT:     -11.1      2.562      4.283
REMARK  Name = 17754438
REMARK  6 active torsions:
REMARK  status: ('A' for Active; 'I' for Inactive)
REMARK    1  A    between atoms: N_1  and  C_19
REMARK    2  A    between atoms: C_7  and  C_12
REMARK    3  A    between atoms: N_10  and  C_15
REMARK    4  A    between atoms: C_15  and  C_16
REMARK    5  A    between atoms: C_16  and  O_17
REMARK    6  A    between atoms: C_19  and  C_21
REMARK                            x       y       z     vdW  Elec       q    Type
REMARK                         _______ _______ _______ _____ _____    ______ ____
ROOT
ATOM      1  N   UNL     1      33.225 -23.606 -17.206  0.00  0.00    -0.163 N 
ATOM      2  N   UNL     1      34.775 -24.393 -15.488  0.00  0.00    -0.378 NA
ATOM      3  N   UNL     1      31.972 -23.109 -17.229  0.00  0.00    -0.033 NA
ATOM      4  N   UNL     1      32.518 -23.676 -13.819  0.00  0.00    -0.208 NA
ATOM      5  N   UNL     1      31.528 -23.064 -15.973  0.00  0.00    -0.086 NA
ATOM      6  C   UNL     1      33.614 -23.890 -15.936  0.00  0.00    +0.267 C 
ATOM      7  C   UNL     1      34.759 -24.525 -14.142  0.00  0.00    +0.140 C 
ATOM      8  C   UNL     1      32.521 -23.538 -15.167  0.00  0.00    +0.098 C 
ATOM      9  C   UNL     1      33.678 -24.182 -13.342  0.00  0.00    +0.195 C 
ENDROOT
BRANCH   7  12
ATOM     10  N   UNL     1      37.976 -25.860 -13.349  0.00  0.00    -0.208 N 
ATOM     11  N   UNL     1      37.521 -25.835 -12.084  0.00  0.00    -0.176 NA
ATOM     12  C   UNL     1      35.955 -25.056 -13.555  0.00  0.00    +0.064 C 
ATOM     13  C   UNL     1      37.076 -25.404 -14.268  0.00  0.00    +0.088 C 
ATOM     14  C   UNL     1      36.286 -25.343 -12.217  0.00  0.00    +0.121 C 
BRANCH  10  15
ATOM     15  C   UNL     1      39.310 -26.339 -13.621  0.00  0.00    +0.148 C 
BRANCH  15  16
ATOM     16  C   UNL     1      40.028 -25.503 -14.671  0.00  0.00    +0.161 C 
BRANCH  16  17
ATOM     17  O   UNL     1      40.448 -26.337 -15.743  0.00  0.00    -0.380 OA
ATOM     18  H   UNL     1      41.188 -25.917 -16.208  0.00  0.00    +0.211 HD
ENDBRANCH  16  17
ENDBRANCH  15  16
ENDBRANCH  10  15
ENDBRANCH   7  12
BRANCH   1  19
ATOM     19  C   UNL     1      33.985 -23.777 -18.449  0.00  0.00    +0.145 C 
BRANCH  19  21
ATOM     20  N   UNL     1      34.676 -18.858 -21.162  0.00  0.00    -0.244 NA
ATOM     21  C   UNL     1      34.177 -22.482 -19.165  0.00  0.00    -0.000 C 
ATOM     22  C   UNL     1      35.460 -21.996 -19.399  0.00  0.00    -0.001 C 
ATOM     23  C   UNL     1      35.645 -20.776 -20.072  0.00  0.00    +0.017 C 
ATOM     24  C   UNL     1      33.076 -21.753 -19.598  0.00  0.00    -0.001 C 
ATOM     25  C   UNL     1      34.533 -20.031 -20.515  0.00  0.00    +0.081 C 
ATOM     26  C   UNL     1      33.261 -20.540 -20.266  0.00  0.00    +0.019 C 
ATOM     27  C   UNL     1      36.926 -20.264 -20.322  0.00  0.00    +0.003 C 
ATOM     28  C   UNL     1      37.076 -19.056 -20.989  0.00  0.00    +0.021 C 
ATOM     29  C   UNL     1      35.929 -18.399 -21.384  0.00  0.00    +0.099 C 
ENDBRANCH  19  21
ENDBRANCH   1  19
TORSDOF 6
ENDMDL
MODEL 3
REMARK VINA RESULT:      -9.7      3.069      5.783
REMARK  Name = 17754438
REMARK  6 active torsions:
REMARK  status: ('A' for Active; 'I' for Inactive)
REMARK    1  A    between atoms: N_1  and  C_19
REMARK    2  A    between atoms: C_7  and  C_12
REMARK    3  A    between atoms: N_10  and  C_15
REMARK    4  A    between atoms: C_15  and  C_16
REMARK    5  A    between atoms: C_16  and  O_17
REMARK    6  A    between atoms: C_19  and  C_21
REMARK                            x       y       z     vdW  Elec       q    Type
REMARK                         _______ _______ _______ _____ _____    ______ ____
ROOT
ATOM      1  N   UNL     1      34.785 -16.023 -23.856  0.00  0.00    -0.163 N 
ATOM      2  N   UNL     1      35.307 -17.869 -22.343  0.00  0.00    -0.378 NA
ATOM      3  N   UNL     1      34.234 -15.897 -25.080  0.00  0.00    -0.033 NA
ATOM      4  N   UNL     1      34.155 -19.355 -24.547  0.00  0.00    -0.208 NA
ATOM      5  N   UNL     1      33.920 -17.118 -25.513  0.00  0.00    -0.086 NA
ATOM      6  C   UNL     1      34.838 -17.327 -23.476  0.00  0.00    +0.267 C 
ATOM      7  C   UNL     1      35.174 -19.216 -22.358  0.00  0.00    +0.140 C 
ATOM      8  C   UNL     1      34.283 -18.006 -24.544  0.00  0.00    +0.098 C 
ATOM      9  C   UNL     1      34.622 -19.928 -23.414  0.00  0.00    +0.195 C 
ENDROOT
BRANCH   7  12
ATOM     10  N   UNL     1      35.721 -21.257 -19.479  0.00  0.00    -0.208 N 
ATOM     11  N   UNL     1      36.907 -20.626 -19.428  0.00  0.00    -0.176 NA
ATOM     12  C   UNL     1      35.646 -19.902 -21.190  0.00  0.00    +0.064 C 
ATOM     13  C   UNL     1      34.929 -20.859 -20.515  0.00  0.00    +0.088 C 
ATOM     14  C   UNL     1      36.855 -19.799 -20.477  0.00  0.00    +0.121 C 
BRANCH  10  15
ATOM     15  C   UNL     1      35.398 -22.255 -18.487  0.00  0.00    +0.148 C 
BRANCH  15  16
ATOM     16  C   UNL     1      33.954 -22.728 -18.584  0.00  0.00    +0.161 C 
BRANCH  16  17
ATOM     17  O   UNL     1      33.914 -24.029 -19.156  0.00  0.00    -0.380 OA
ATOM     18  H   UNL     1      34.369 -24.020 -20.012  0.00  0.00    +0.211 HD
ENDBRANCH  16  17
ENDBRANCH  15  16
ENDBRANCH  10  15
ENDBRANCH   7  12
BRANCH   1  19
ATOM     19  C   UNL     1      35.237 -14.841 -23.114  0.00  0.00    +0.145 C 
BRANCH  19  21
ATOM     20  N   UNL     1      31.056 -12.557 -20.060  0.00  0.00    -0.244 NA
ATOM     21  C   UNL     1      34.134 -14.231 -22.316  0.00  0.00    -0.000 C 
ATOM     22  C   UNL     1      33.625 -12.984 -22.664  0.00  0.00    -0.001 C 
ATOM     23  C   UNL     1      32.587 -12.405 -21.914  0.00  0.00    +0.017 C 
ATOM     24  C   UNL     1      33.611 -14.905 -21.219  0.00  0.00    -0.001 C 
ATOM     25  C   UNL     1      32.050 -13.083 -20.800  0.00  0.00    +0.081 C 
ATOM     26  C   UNL     1      32.578 -14.329 -20.474  0.00  0.00    +0.019 C 
ATOM     27  C   UNL     1      32.056 -11.151 -22.243  0.00  0.00    +0.003 C 
ATOM     28  C   UNL     1      31.031 -10.606 -21.483  0.00  0.00    +0.021 C 
ATOM     29  C   UNL     1      30.571 -11.344 -20.411  0.00  0.00    +0.099 C 
ENDBRANCH  19  21
ENDBRANCH   1  19
TORSDOF 6
ENDMDL
MODEL 4
REMARK VINA RESULT:      -9.7      8.238     14.454
REMARK  Name = 17754438
REMARK  6 active torsions:
REMARK  status: ('A' for Active; 'I' for Inactive)
REMARK    1  A    between atoms: N_1  and  C_19
REMARK    2  A    between atoms: C_7  and  C_12
REMARK    3  A    between atoms: N_10  and  C_15
REMARK    4  A    between atoms: C_15  and  C_16
REMARK    5  A    between atoms: C_16  and  O_17
REMARK    6  A    between atoms: C_19  and  C_21
REMARK                            x       y       z     vdW  Elec       q    Type
REMARK                         _______ _______ _______ _____ _____    ______ ____
ROOT
ATOM      1  N   UNL     1      31.595 -10.801 -20.523  0.00  0.00    -0.163 N 
ATOM      2  N   UNL     1      32.075  -8.813 -21.861  0.00  0.00    -0.378 NA
ATOM      3  N   UNL     1      31.612 -11.117 -19.213  0.00  0.00    -0.033 NA
ATOM      4  N   UNL     1      32.614  -7.764 -19.215  0.00  0.00    -0.208 NA
ATOM      5  N   UNL     1      31.993 -10.033 -18.537  0.00  0.00    -0.086 NA
ATOM      6  C   UNL     1      31.965  -9.508 -20.719  0.00  0.00    +0.267 C 
ATOM      7  C   UNL     1      32.475  -7.544 -21.619  0.00  0.00    +0.140 C 
ATOM      8  C   UNL     1      32.214  -9.038 -19.444  0.00  0.00    +0.098 C 
ATOM      9  C   UNL     1      32.733  -7.040 -20.352  0.00  0.00    +0.195 C 
ENDROOT
BRANCH   7  12
ATOM     10  N   UNL     1      32.414  -5.022 -24.148  0.00  0.00    -0.208 N 
ATOM     11  N   UNL     1      33.241  -5.856 -24.804  0.00  0.00    -0.176 NA
ATOM     12  C   UNL     1      32.626  -6.708 -22.775  0.00  0.00    +0.064 C 
ATOM     13  C   UNL     1      32.017  -5.486 -22.929  0.00  0.00    +0.088 C 
ATOM     14  C   UNL     1      33.366  -6.883 -23.959  0.00  0.00    +0.121 C 
BRANCH  10  15
ATOM     15  C   UNL     1      32.034  -3.768 -24.753  0.00  0.00    +0.148 C 
BRANCH  15  16
ATOM     16  C   UNL     1      31.097  -2.954 -23.871  0.00  0.00    +0.161 C 
BRANCH  16  17
ATOM     17  O   UNL     1      29.806  -2.902 -24.463  0.00  0.00    -0.380 OA
ATOM     18  H   UNL     1      29.502  -3.803 -24.656  0.00  0.00    +0.211 HD
ENDBRANCH  16  17
ENDBRANCH  15  16
ENDBRANCH  10  15
ENDBRANCH   7  12
BRANCH   1  19
ATOM     19  C   UNL     1      31.211 -11.799 -21.528  0.00  0.00    +0.145 C 
BRANCH  19  21
ATOM     20  N   UNL     1      34.493 -16.402 -21.266  0.00  0.00    -0.244 NA
ATOM     21  C   UNL     1      32.080 -13.010 -21.469  0.00  0.00    -0.000 C 
ATOM     22  C   UNL     1      32.776 -13.428 -22.599  0.00  0.00    -0.001 C 
ATOM     23  C   UNL     1      33.595 -14.570 -22.547  0.00  0.00    +0.017 C 
ATOM     24  C   UNL     1      32.196 -13.729 -20.285  0.00  0.00    -0.001 C 
ATOM     25  C   UNL     1      33.718 -15.304 -21.349  0.00  0.00    +0.081 C 
ATOM     26  C   UNL     1      33.010 -14.863 -20.234  0.00  0.00    +0.019 C 
ATOM     27  C   UNL     1      34.307 -15.012 -23.670  0.00  0.00    +0.003 C 
ATOM     28  C   UNL     1      35.106 -16.144 -23.587  0.00  0.00    +0.021 C 
ATOM     29  C   UNL     1      35.164 -16.796 -22.372  0.00  0.00    +0.099 C 
ENDBRANCH  19  21
ENDBRANCH   1  19
TORSDOF 6
ENDMDL
MODEL 5
REMARK VINA RESULT:      -9.6      3.632      7.469
REMARK  Name = 17754438
REMARK  6 active torsions:
REMARK  status: ('A' for Active; 'I' for Inactive)
REMARK    1  A    between atoms: N_1  and  C_19
REMARK    2  A    between atoms: C_7  and  C_12
REMARK    3  A    between atoms: N_10  and  C_15
REMARK    4  A    between atoms: C_15  and  C_16
REMARK    5  A    between atoms: C_16  and  O_17
REMARK    6  A    between atoms: C_19  and  C_21
REMARK                            x       y       z     vdW  Elec       q    Type
REMARK                         _______ _______ _______ _____ _____    ______ ____
ROOT
ATOM      1  N   UNL     1      33.319 -14.399 -23.635  0.00  0.00    -0.163 N 
ATOM      2  N   UNL     1      34.367 -16.380 -22.661  0.00  0.00    -0.378 NA
ATOM      3  N   UNL     1      33.037 -13.962 -24.879  0.00  0.00    -0.033 NA
ATOM      4  N   UNL     1      34.570 -17.052 -25.472  0.00  0.00    -0.208 NA
ATOM      5  N   UNL     1      33.462 -14.885 -25.741  0.00  0.00    -0.086 NA
ATOM      6  C   UNL     1      33.931 -15.612 -23.671  0.00  0.00    +0.267 C 
ATOM      7  C   UNL     1      34.922 -17.523 -23.127  0.00  0.00    +0.140 C 
ATOM      8  C   UNL     1      34.012 -15.903 -25.019  0.00  0.00    +0.098 C 
ATOM      9  C   UNL     1      35.020 -17.845 -24.473  0.00  0.00    +0.195 C 
ENDROOT
BRANCH   7  12
ATOM     10  N   UNL     1      35.530 -20.061 -20.688  0.00  0.00    -0.208 N 
ATOM     11  N   UNL     1      36.746 -19.494 -20.603  0.00  0.00    -0.176 NA
ATOM     12  C   UNL     1      35.425 -18.422 -22.128  0.00  0.00    +0.064 C 
ATOM     13  C   UNL     1      34.701 -19.457 -21.587  0.00  0.00    +0.088 C 
ATOM     14  C   UNL     1      36.675 -18.493 -21.485  0.00  0.00    +0.121 C 
BRANCH  10  15
ATOM     15  C   UNL     1      35.216 -21.206 -19.868  0.00  0.00    +0.148 C 
BRANCH  15  16
ATOM     16  C   UNL     1      36.455 -21.844 -19.255  0.00  0.00    +0.161 C 
BRANCH  16  17
ATOM     17  O   UNL     1      36.873 -21.089 -18.124  0.00  0.00    -0.380 OA
ATOM     18  H   UNL     1      37.494 -20.400 -18.407  0.00  0.00    +0.211 HD
ENDBRANCH  16  17
ENDBRANCH  15  16
ENDBRANCH  10  15
ENDBRANCH   7  12
BRANCH   1  19
ATOM     19  C   UNL     1      32.968 -13.592 -22.461  0.00  0.00    +0.145 C 
BRANCH  19  21
ATOM     20  N   UNL     1      33.686  -8.067 -23.452  0.00  0.00    -0.244 NA
ATOM     21  C   UNL     1      33.150 -12.134 -22.715  0.00  0.00    -0.000 C 
ATOM     22  C   UNL     1      32.288 -11.209 -22.133  0.00  0.00    -0.001 C 
ATOM     23  C   UNL     1      32.456  -9.834 -22.371  0.00  0.00    +0.017 C 
ATOM     24  C   UNL     1      34.179 -11.691 -23.537  0.00  0.00    -0.001 C 
ATOM     25  C   UNL     1      33.499  -9.377 -23.203  0.00  0.00    +0.081 C 
ATOM     26  C   UNL     1      34.346 -10.324 -23.773  0.00  0.00    +0.019 C 
ATOM     27  C   UNL     1      31.603  -8.882 -21.797  0.00  0.00    +0.003 C 
ATOM     28  C   UNL     1      31.795  -7.531 -22.051  0.00  0.00    +0.021 C 
ATOM     29  C   UNL     1      32.842  -7.180 -22.878  0.00  0.00    +0.099 C 
ENDBRANCH  19  21
ENDBRANCH   1  19
TORSDOF 6
ENDMDL
MODEL 6
REMARK VINA RESULT:      -9.6      8.158     14.213
REMARK  Name = 17754438
REMARK  6 active torsions:
REMARK  status: ('A' for Active; 'I' for Inactive)
REMARK    1  A    between atoms: N_1  and  C_19
REMARK    2  A    between atoms: C_7  and  C_12
REMARK    3  A    between atoms: N_10  and  C_15
REMARK    4  A    between atoms: C_15  and  C_16
REMARK    5  A    between atoms: C_16  and  O_17
REMARK    6  A    between atoms: C_19  and  C_21
REMARK                            x       y       z     vdW  Elec       q    Type
REMARK                         _______ _______ _______ _____ _____    ______ ____
ROOT
ATOM      1  N   UNL     1      31.573 -10.873 -20.505  0.00  0.00    -0.163 N 
ATOM      2  N   UNL     1      32.088  -8.903 -21.856  0.00  0.00    -0.378 NA
ATOM      3  N   UNL     1      31.568 -11.174 -19.191  0.00  0.00    -0.033 NA
ATOM      4  N   UNL     1      32.597  -7.829 -19.213  0.00  0.00    -0.208 NA
ATOM      5  N   UNL     1      31.948 -10.087 -18.521  0.00  0.00    -0.086 NA
ATOM      6  C   UNL     1      31.956  -9.585 -20.708  0.00  0.00    +0.267 C 
ATOM      7  C   UNL     1      32.495  -7.634 -21.621  0.00  0.00    +0.140 C 
ATOM      8  C   UNL     1      32.190  -9.103 -19.434  0.00  0.00    +0.098 C 
ATOM      9  C   UNL     1      32.738  -7.119 -20.356  0.00  0.00    +0.195 C 
ENDROOT
BRANCH   7  12
ATOM     10  N   UNL     1      33.574  -5.885 -24.543  0.00  0.00    -0.208 N 
ATOM     11  N   UNL     1      32.355  -5.321 -24.486  0.00  0.00    -0.176 NA
ATOM     12  C   UNL     1      32.669  -6.811 -22.783  0.00  0.00    +0.064 C 
ATOM     13  C   UNL     1      33.812  -6.784 -23.545  0.00  0.00    +0.088 C 
ATOM     14  C   UNL     1      31.807  -5.891 -23.410  0.00  0.00    +0.121 C 
BRANCH  10  15
ATOM     15  C   UNL     1      34.486  -5.516 -25.599  0.00  0.00    +0.148 C 
BRANCH  15  16
ATOM     16  C   UNL     1      33.813  -4.694 -26.691  0.00  0.00    +0.161 C 
BRANCH  16  17
ATOM     17  O   UNL     1      33.772  -3.326 -26.305  0.00  0.00    -0.380 OA
ATOM     18  H   UNL     1      33.874  -3.259 -25.343  0.00  0.00    +0.211 HD
ENDBRANCH  16  17
ENDBRANCH  15  16
ENDBRANCH  10  15
ENDBRANCH   7  12
BRANCH   1  19
ATOM     19  C   UNL     1      31.196 -11.878 -21.504  0.00  0.00    +0.145 C 
BRANCH  19  21
ATOM     20  N   UNL     1      34.567 -16.418 -21.280  0.00  0.00    -0.244 NA
ATOM     21  C   UNL     1      32.088 -13.072 -21.455  0.00  0.00    -0.000 C 
ATOM     22  C   UNL     1      32.754 -13.496 -22.601  0.00  0.00    -0.001 C 
ATOM     23  C   UNL     1      33.595 -14.622 -22.558  0.00  0.00    +0.017 C 
ATOM     24  C   UNL     1      32.255 -13.770 -20.265  0.00  0.00    -0.001 C 
ATOM     25  C   UNL     1      33.770 -15.335 -21.354  0.00  0.00    +0.081 C 
ATOM     26  C   UNL     1      33.091 -14.889 -20.224  0.00  0.00    +0.019 C 
ATOM     27  C   UNL     1      34.278 -15.070 -23.697  0.00  0.00    +0.003 C 
ATOM     28  C   UNL     1      35.100 -16.186 -23.623  0.00  0.00    +0.021 C 
ATOM     29  C   UNL     1      35.209 -16.817 -22.401  0.00  0.00    +0.099 C 
ENDBRANCH  19  21
ENDBRANCH   1  19
TORSDOF 6
ENDMDL
MODEL 7
REMARK VINA RESULT:      -9.5      3.816      7.574
REMARK  Name = 17754438
REMARK  6 active torsions:
REMARK  status: ('A' for Active; 'I' for Inactive)
REMARK    1  A    between atoms: N_1  and  C_19
REMARK    2  A    between atoms: C_7  and  C_12
REMARK    3  A    between atoms: N_10  and  C_15
REMARK    4  A    between atoms: C_15  and  C_16
REMARK    5  A    between atoms: C_16  and  O_17
REMARK    6  A    between atoms: C_19  and  C_21
REMARK                            x       y       z     vdW  Elec       q    Type
REMARK                         _______ _______ _______ _____ _____    ______ ____
ROOT
ATOM      1  N   UNL     1      32.865 -14.236 -22.003  0.00  0.00    -0.163 N 
ATOM      2  N   UNL     1      34.073 -16.305 -21.522  0.00  0.00    -0.378 NA
ATOM      3  N   UNL     1      32.782 -13.379 -23.040  0.00  0.00    -0.033 NA
ATOM      4  N   UNL     1      35.047 -15.782 -24.200  0.00  0.00    -0.208 NA
ATOM      5  N   UNL     1      33.582 -13.830 -24.006  0.00  0.00    -0.086 NA
ATOM      6  C   UNL     1      33.719 -15.257 -22.280  0.00  0.00    +0.267 C 
ATOM      7  C   UNL     1      34.955 -17.098 -22.174  0.00  0.00    +0.140 C 
ATOM      8  C   UNL     1      34.163 -14.979 -23.558  0.00  0.00    +0.098 C 
ATOM      9  C   UNL     1      35.421 -16.848 -23.457  0.00  0.00    +0.195 C 
ENDROOT
BRANCH   7  12
ATOM     10  N   UNL     1      35.384 -20.158 -20.382  0.00  0.00    -0.208 N 
ATOM     11  N   UNL     1      36.683 -19.812 -20.378  0.00  0.00    -0.176 NA
ATOM     12  C   UNL     1      35.403 -18.254 -21.453  0.00  0.00    +0.064 C 
ATOM     13  C   UNL     1      34.576 -19.259 -21.013  0.00  0.00    +0.088 C 
ATOM     14  C   UNL     1      36.688 -18.648 -21.033  0.00  0.00    +0.121 C 
BRANCH  10  15
ATOM     15  C   UNL     1      34.969 -21.390 -19.755  0.00  0.00    +0.148 C 
BRANCH  15  16
ATOM     16  C   UNL     1      33.469 -21.438 -19.497  0.00  0.00    +0.161 C 
BRANCH  16  17
ATOM     17  O   UNL     1      33.066 -22.780 -19.260  0.00  0.00    -0.380 OA
ATOM     18  H   UNL     1      32.135 -22.796 -18.990  0.00  0.00    +0.211 HD
ENDBRANCH  16  17
ENDBRANCH  15  16
ENDBRANCH  10  15
ENDBRANCH   7  12
BRANCH   1  19
ATOM     19  C   UNL     1      32.090 -14.006 -20.778  0.00  0.00    +0.145 C 
BRANCH  19  21
ATOM     20  N   UNL     1      31.777  -8.514 -19.450  0.00  0.00    -0.244 NA
ATOM     21  C   UNL     1      32.007 -12.556 -20.438  0.00  0.00    -0.000 C 
ATOM     22  C   UNL     1      32.050 -11.597 -21.446  0.00  0.00    -0.001 C 
ATOM     23  C   UNL     1      31.972 -10.230 -21.129  0.00  0.00    +0.017 C 
ATOM     24  C   UNL     1      31.889 -12.155 -19.113  0.00  0.00    -0.001 C 
ATOM     25  C   UNL     1      31.852  -9.816 -19.787  0.00  0.00    +0.081 C 
ATOM     26  C   UNL     1      31.812 -10.796 -18.799  0.00  0.00    +0.019 C 
ATOM     27  C   UNL     1      32.012  -9.244 -22.124  0.00  0.00    +0.003 C 
ATOM     28  C   UNL     1      31.935  -7.902 -21.779  0.00  0.00    +0.021 C 
ATOM     29  C   UNL     1      31.818  -7.593 -20.440  0.00  0.00    +0.099 C 
ENDBRANCH  19  21
ENDBRANCH   1  19
TORSDOF 6
ENDMDL
MODEL 8
REMARK VINA RESULT:      -9.4      3.209      9.654
REMARK  Name = 17754438
REMARK  6 active torsions:
REMARK  status: ('A' for Active; 'I' for Inactive)
REMARK    1  A    between atoms: N_1  and  C_19
REMARK    2  A    between atoms: C_7  and  C_12
REMARK    3  A    between atoms: N_10  and  C_15
REMARK    4  A    between atoms: C_15  and  C_16
REMARK    5  A    between atoms: C_16  and  O_17
REMARK    6  A    between atoms: C_19  and  C_21
REMARK                            x       y       z     vdW  Elec       q    Type
REMARK                         _______ _______ _______ _____ _____    ______ ____
ROOT
ATOM      1  N   UNL     1      35.642 -22.721 -17.122  0.00  0.00    -0.163 N 
ATOM      2  N   UNL     1      35.615 -21.272 -19.090  0.00  0.00    -0.378 NA
ATOM      3  N   UNL     1      34.759 -23.526 -16.497  0.00  0.00    -0.033 NA
ATOM      4  N   UNL     1      32.894 -22.261 -19.174  0.00  0.00    -0.208 NA
ATOM      5  N   UNL     1      33.610 -23.471 -17.170  0.00  0.00    -0.086 NA
ATOM      6  C   UNL     1      35.080 -22.131 -18.210  0.00  0.00    +0.267 C 
ATOM      7  C   UNL     1      34.713 -20.920 -20.034  0.00  0.00    +0.140 C 
ATOM      8  C   UNL     1      33.788 -22.622 -18.222  0.00  0.00    +0.098 C 
ATOM      9  C   UNL     1      33.409 -21.394 -20.075  0.00  0.00    +0.195 C 
ENDROOT
BRANCH   7  12
ATOM     10  N   UNL     1      35.259 -18.771 -22.835  0.00  0.00    -0.208 N 
ATOM     11  N   UNL     1      36.429 -18.507 -22.228  0.00  0.00    -0.176 NA
ATOM     12  C   UNL     1      35.181 -20.000 -21.031  0.00  0.00    +0.064 C 
ATOM     13  C   UNL     1      34.475 -19.660 -22.159  0.00  0.00    +0.088 C 
ATOM     14  C   UNL     1      36.375 -19.261 -21.126  0.00  0.00    +0.121 C 
BRANCH  10  15
ATOM     15  C   UNL     1      34.940 -18.126 -24.086  0.00  0.00    +0.148 C 
BRANCH  15  16
ATOM     16  C   UNL     1      34.649 -16.641 -23.919  0.00  0.00    +0.161 C 
BRANCH  16  17
ATOM     17  O   UNL     1      35.782 -15.990 -23.358  0.00  0.00    -0.380 OA
ATOM     18  H   UNL     1      35.660 -15.898 -22.400  0.00  0.00    +0.211 HD
ENDBRANCH  16  17
ENDBRANCH  15  16
ENDBRANCH  10  15
ENDBRANCH   7  12
BRANCH   1  19
ATOM     19  C   UNL     1      37.009 -22.572 -16.612  0.00  0.00    +0.145 C 
BRANCH  19  21
ATOM     20  N   UNL     1      37.873 -25.599 -11.909  0.00  0.00    -0.244 NA
ATOM     21  C   UNL     1      37.228 -23.366 -15.369  0.00  0.00    -0.000 C 
ATOM     22  C   UNL     1      36.377 -23.209 -14.279  0.00  0.00    -0.001 C 
ATOM     23  C   UNL     1      36.580 -23.955 -13.105  0.00  0.00    +0.017 C 
ATOM     24  C   UNL     1      38.285 -24.265 -15.291  0.00  0.00    -0.001 C 
ATOM     25  C   UNL     1      37.650 -24.870 -13.019  0.00  0.00    +0.081 C 
ATOM     26  C   UNL     1      38.486 -25.006 -14.124  0.00  0.00    +0.019 C 
ATOM     27  C   UNL     1      35.738 -23.817 -11.994  0.00  0.00    +0.003 C 
ATOM     28  C   UNL     1      35.965 -24.568 -10.849  0.00  0.00    +0.021 C 
ATOM     29  C   UNL     1      37.037 -25.437 -10.859  0.00  0.00    +0.099 C 
ENDBRANCH  19  21
ENDBRANCH   1  19
TORSDOF 6
ENDMDL
MODEL 9
REMARK VINA RESULT:      -9.2      7.149     12.921
REMARK  Name = 17754438
REMARK  6 active torsions:
REMARK  status: ('A' for Active; 'I' for Inactive)
REMARK    1  A    between atoms: N_1  and  C_19
REMARK    2  A    between atoms: C_7  and  C_12
REMARK    3  A    between atoms: N_10  and  C_15
REMARK    4  A    between atoms: C_15  and  C_16
REMARK    5  A    between atoms: C_16  and  O_17
REMARK    6  A    between atoms: C_19  and  C_21
REMARK                            x       y       z     vdW  Elec       q    Type
REMARK                         _______ _______ _______ _____ _____    ______ ____
ROOT
ATOM      1  N   UNL     1      33.135 -13.232 -22.463  0.00  0.00    -0.163 N 
ATOM      2  N   UNL     1      32.909 -10.814 -22.727  0.00  0.00    -0.378 NA
ATOM      3  N   UNL     1      32.631 -14.170 -21.635  0.00  0.00    -0.033 NA
ATOM      4  N   UNL     1      31.145 -11.225 -20.466  0.00  0.00    -0.208 NA
ATOM      5  N   UNL     1      31.818 -13.558 -20.773  0.00  0.00    -0.086 NA
ATOM      6  C   UNL     1      32.657 -11.999 -22.151  0.00  0.00    +0.267 C 
ATOM      7  C   UNL     1      32.227  -9.821 -22.110  0.00  0.00    +0.140 C 
ATOM      8  C   UNL     1      31.822 -12.228 -21.074  0.00  0.00    +0.098 C 
ATOM      9  C   UNL     1      31.382 -10.017 -21.027  0.00  0.00    +0.195 C 
ENDROOT
BRANCH   7  12
ATOM     10  N   UNL     1      32.011  -6.487 -23.375  0.00  0.00    -0.208 N 
ATOM     11  N   UNL     1      33.344  -6.598 -23.504  0.00  0.00    -0.176 NA
ATOM     12  C   UNL     1      32.424  -8.504 -22.646  0.00  0.00    +0.064 C 
ATOM     13  C   UNL     1      31.412  -7.602 -22.866  0.00  0.00    +0.088 C 
ATOM     14  C   UNL     1      33.590  -7.832 -23.057  0.00  0.00    +0.121 C 
BRANCH  10  15
ATOM     15  C   UNL     1      31.353  -5.262 -23.762  0.00  0.00    +0.148 C 
BRANCH  15  16
ATOM     16  C   UNL     1      31.489  -4.169 -22.711  0.00  0.00    +0.161 C 
BRANCH  16  17
ATOM     17  O   UNL     1      30.251  -3.997 -22.035  0.00  0.00    -0.380 OA
ATOM     18  H   UNL     1      30.073  -3.050 -21.921  0.00  0.00    +0.211 HD
ENDBRANCH  16  17
ENDBRANCH  15  16
ENDBRANCH  10  15
ENDBRANCH   7  12
BRANCH   1  19
ATOM     19  C   UNL     1      34.070 -13.602 -23.530  0.00  0.00    +0.145 C 
BRANCH  19  21
ATOM     20  N   UNL     1      35.024 -19.178 -23.692  0.00  0.00    -0.244 NA
ATOM     21  C   UNL     1      34.323 -15.071 -23.563  0.00  0.00    -0.000 C 
ATOM     22  C   UNL     1      34.779 -15.729 -22.424  0.00  0.00    -0.001 C 
ATOM     23  C   UNL     1      35.019 -17.113 -22.451  0.00  0.00    +0.017 C 
ATOM     24  C   UNL     1      34.108 -15.792 -24.731  0.00  0.00    -0.001 C 
ATOM     25  C   UNL     1      34.802 -17.851 -23.633  0.00  0.00    +0.081 C 
ATOM     26  C   UNL     1      34.347 -17.168 -24.757  0.00  0.00    +0.019 C 
ATOM     27  C   UNL     1      35.477 -17.799 -21.318  0.00  0.00    +0.003 C 
ATOM     28  C   UNL     1      35.706 -19.167 -21.376  0.00  0.00    +0.021 C 
ATOM     29  C   UNL     1      35.466 -19.803 -22.577  0.00  0.00    +0.099 C 
ENDBRANCH  19  21
ENDBRANCH   1  19
TORSDOF 6
ENDMDL
