MODEL 1
REMARK VINA RESULT:     -11.8      0.000      0.000
REMARK  Name = 16048422
REMARK  11 active torsions:
REMARK  status: ('A' for Active; 'I' for Inactive)
REMARK    1  A    between atoms: C_1  and  C_4
REMARK    2  A    between atoms: C_1  and  N_18
REMARK    3  A    between atoms: C_1  and  C_33
REMARK    4  A    between atoms: N_3  and  C_6
REMARK    5  A    between atoms: C_6  and  C_9
REMARK    6  A    between atoms: C_9  and  C_11
REMARK    7  A    between atoms: C_19  and  C_21
REMARK    8  A    between atoms: C_24  and  C_27
REMARK    9  A    between atoms: C_33  and  C_34
REMARK   10  A    between atoms: C_34  and  C_36
REMARK   11  A    between atoms: C_36  and  O_37
REMARK                            x       y       z     vdW  Elec       q    Type
REMARK                         _______ _______ _______ _____ _____    ______ ____
ROOT
ATOM      1  C   UNL     1      34.792 -24.481 -15.744  0.00  0.00    +0.149 C 
ENDROOT
BRANCH   1   4
ATOM      2  O   UNL     1      33.825 -23.467 -13.773  0.00  0.00    -0.273 OA
ATOM      3  N   UNL     1      32.420 -24.555 -15.268  0.00  0.00    -0.306 N 
ATOM      4  C   UNL     1      33.648 -24.093 -14.816  0.00  0.00    +0.240 C 
ATOM      5  H   UNL     1      32.391 -25.048 -16.119  0.00  0.00    +0.149 HD
BRANCH   3   6
ATOM      6  C   UNL     1      31.184 -24.348 -14.549  0.00  0.00    +0.061 C 
ATOM      7  C   UNL     1      31.326 -24.906 -13.126  0.00  0.00    +0.020 C 
ATOM      8  C   UNL     1      30.935 -22.833 -14.459  0.00  0.00    +0.020 C 
BRANCH   6   9
ATOM      9  C   UNL     1      29.996 -24.997 -15.307  0.00  0.00    +0.044 C 
BRANCH   9  11
ATOM     10  F   UNL     1      25.722 -21.556 -16.611  0.00  0.00    -0.204 F 
ATOM     11  C   UNL     1      28.850 -24.075 -15.657  0.00  0.00    -0.020 C 
ATOM     12  C   UNL     1      28.168 -23.396 -14.646  0.00  0.00    -0.002 C 
ATOM     13  C   UNL     1      28.476 -23.902 -16.989  0.00  0.00    -0.002 C 
ATOM     14  C   UNL     1      27.112 -22.545 -14.969  0.00  0.00    +0.029 C 
ATOM     15  C   UNL     1      27.419 -23.051 -17.312  0.00  0.00    +0.029 C 
ATOM     16  C   UNL     1      26.737 -22.372 -16.301  0.00  0.00    +0.140 C 
ENDBRANCH   9  11
ENDBRANCH   6   9
ENDBRANCH   3   6
ENDBRANCH   1   4
BRANCH   1  18
ATOM     17  O   UNL     1      33.256 -24.354 -18.167  0.00  0.00    -0.270 OA
ATOM     18  N   UNL     1      34.847 -23.444 -16.745  0.00  0.00    -0.295 N 
ATOM     19  C   UNL     1      34.062 -23.469 -17.889  0.00  0.00    +0.246 C 
ATOM     20  H   UNL     1      35.464 -22.690 -16.612  0.00  0.00    +0.150 HD
BRANCH  19  21
ATOM     21  C   UNL     1      34.256 -22.341 -18.836  0.00  0.00    +0.053 C 
ATOM     22  C   UNL     1      35.542 -21.985 -19.242  0.00  0.00    +0.005 C 
ATOM     23  C   UNL     1      33.153 -21.639 -19.319  0.00  0.00    +0.005 C 
ATOM     24  C   UNL     1      34.621 -20.223 -20.614  0.00  0.00    +0.000 C 
ATOM     25  C   UNL     1      35.725 -20.925 -20.131  0.00  0.00    +0.000 C 
ATOM     26  C   UNL     1      33.334 -20.580 -20.209  0.00  0.00    +0.000 C 
BRANCH  24  27
ATOM     27  C   UNL     1      34.809 -19.125 -21.536  0.00  0.00    +0.000 C 
ATOM     28  C   UNL     1      34.978 -17.828 -21.051  0.00  0.00    +0.000 C 
ATOM     29  C   UNL     1      34.824 -19.362 -22.911  0.00  0.00    +0.000 C 
ATOM     30  C   UNL     1      35.161 -16.768 -21.940  0.00  0.00    +0.000 C 
ATOM     31  C   UNL     1      35.006 -18.302 -23.800  0.00  0.00    +0.000 C 
ATOM     32  C   UNL     1      35.175 -17.006 -23.314  0.00  0.00    +0.000 C 
ENDBRANCH  24  27
ENDBRANCH  19  21
ENDBRANCH   1  18
BRANCH   1  33
ATOM     33  C   UNL     1      36.125 -24.581 -14.994  0.00  0.00    +0.041 C 
BRANCH  33  34
ATOM     34  C   UNL     1      36.280 -25.849 -14.151  0.00  0.00    +0.112 C 
BRANCH  34  36
ATOM     35  O   UNL     1      38.284 -27.220 -14.349  0.00  0.00    -0.250 OA
ATOM     36  C   UNL     1      37.191 -26.879 -14.781  0.00  0.00    +0.314 C 
BRANCH  36  37
ATOM     37  O   UNL     1      36.635 -27.420 -15.896  0.00  0.00    -0.480 OA
ATOM     38  H   UNL     1      36.016 -28.119 -15.820  0.00  0.00    +0.295 HD
ENDBRANCH  36  37
ENDBRANCH  34  36
ENDBRANCH  33  34
ENDBRANCH   1  33
TORSDOF 11
ENDMDL
MODEL 2
REMARK VINA RESULT:     -11.3      5.692     10.960
REMARK  Name = 16048422
REMARK  11 active torsions:
REMARK  status: ('A' for Active; 'I' for Inactive)
REMARK    1  A    between atoms: C_1  and  C_4
REMARK    2  A    between atoms: C_1  and  N_18
REMARK    3  A    between atoms: C_1  and  C_33
REMARK    4  A    between atoms: N_3  and  C_6
REMARK    5  A    between atoms: C_6  and  C_9
REMARK    6  A    between atoms: C_9  and  C_11
REMARK    7  A    between atoms: C_19  and  C_21
REMARK    8  A    between atoms: C_24  and  C_27
REMARK    9  A    between atoms: C_33  and  C_34
REMARK   10  A    between atoms: C_34  and  C_36
REMARK   11  A    between atoms: C_36  and  O_37
REMARK                            x       y       z     vdW  Elec       q    Type
REMARK                         _______ _______ _______ _____ _____    ______ ____
ROOT
ATOM      1  C   UNL     1      35.250 -17.188 -23.039  0.00  0.00    +0.149 C 
ENDROOT
BRANCH   1   4
ATOM      2  O   UNL     1      35.245 -14.773 -22.909  0.00  0.00    -0.273 OA
ATOM      3  N   UNL     1      33.781 -15.965 -21.556  0.00  0.00    -0.306 N 
ATOM      4  C   UNL     1      34.770 -15.839 -22.520  0.00  0.00    +0.240 C 
ATOM      5  H   UNL     1      33.471 -16.869 -21.318  0.00  0.00    +0.149 HD
BRANCH   3   6
ATOM      6  C   UNL     1      33.183 -14.834 -20.884  0.00  0.00    +0.061 C 
ATOM      7  C   UNL     1      32.323 -15.337 -19.715  0.00  0.00    +0.020 C 
ATOM      8  C   UNL     1      34.317 -13.962 -20.319  0.00  0.00    +0.020 C 
BRANCH   6   9
ATOM      9  C   UNL     1      32.356 -13.980 -21.881  0.00  0.00    +0.044 C 
BRANCH   9  11
ATOM     10  F   UNL     1      31.499  -8.604 -20.407  0.00  0.00    -0.204 F 
ATOM     11  C   UNL     1      32.126 -12.539 -21.486  0.00  0.00    -0.020 C 
ATOM     12  C   UNL     1      31.503 -12.239 -20.274  0.00  0.00    -0.002 C 
ATOM     13  C   UNL     1      32.536 -11.510 -22.333  0.00  0.00    -0.002 C 
ATOM     14  C   UNL     1      31.292 -10.909 -19.910  0.00  0.00    +0.029 C 
ATOM     15  C   UNL     1      32.325 -10.180 -21.968  0.00  0.00    +0.029 C 
ATOM     16  C   UNL     1      31.703  -9.880 -20.757  0.00  0.00    +0.140 C 
ENDBRANCH   9  11
ENDBRANCH   6   9
ENDBRANCH   3   6
ENDBRANCH   1   4
BRANCH   1  18
ATOM     17  O   UNL     1      35.288 -20.053 -23.233  0.00  0.00    -0.270 OA
ATOM     18  N   UNL     1      34.995 -18.127 -21.974  0.00  0.00    -0.295 N 
ATOM     19  C   UNL     1      35.037 -19.500 -22.165  0.00  0.00    +0.246 C 
ATOM     20  H   UNL     1      34.783 -17.780 -21.078  0.00  0.00    +0.150 HD
BRANCH  19  21
ATOM     21  C   UNL     1      34.723 -20.331 -20.974  0.00  0.00    +0.053 C 
ATOM     22  C   UNL     1      33.399 -20.503 -20.572  0.00  0.00    +0.005 C 
ATOM     23  C   UNL     1      35.754 -20.941 -20.259  0.00  0.00    +0.005 C 
ATOM     24  C   UNL     1      34.135 -21.893 -18.738  0.00  0.00    +0.000 C 
ATOM     25  C   UNL     1      33.105 -21.283 -19.453  0.00  0.00    +0.000 C 
ATOM     26  C   UNL     1      35.460 -21.722 -19.141  0.00  0.00    +0.000 C 
BRANCH  24  27
ATOM     27  C   UNL     1      33.831 -22.702 -17.579  0.00  0.00    +0.000 C 
ATOM     28  C   UNL     1      34.864 -23.193 -16.780  0.00  0.00    +0.000 C 
ATOM     29  C   UNL     1      32.504 -22.992 -17.258  0.00  0.00    +0.000 C 
ATOM     30  C   UNL     1      34.570 -23.972 -15.661  0.00  0.00    +0.000 C 
ATOM     31  C   UNL     1      32.211 -23.772 -16.140  0.00  0.00    +0.000 C 
ATOM     32  C   UNL     1      33.244 -24.262 -15.341  0.00  0.00    +0.000 C 
ENDBRANCH  24  27
ENDBRANCH  19  21
ENDBRANCH   1  18
BRANCH   1  33
ATOM     33  C   UNL     1      34.509 -17.603 -24.316  0.00  0.00    +0.041 C 
BRANCH  33  34
ATOM     34  C   UNL     1      34.572 -16.571 -25.445  0.00  0.00    +0.112 C 
BRANCH  34  36
ATOM     35  O   UNL     1      32.978 -14.730 -25.431  0.00  0.00    -0.250 OA
ATOM     36  C   UNL     1      33.247 -15.890 -25.707  0.00  0.00    +0.314 C 
BRANCH  36  37
ATOM     37  O   UNL     1      32.373 -16.725 -26.327  0.00  0.00    -0.480 OA
ATOM     38  H   UNL     1      32.683 -17.342 -26.961  0.00  0.00    +0.295 HD
ENDBRANCH  36  37
ENDBRANCH  34  36
ENDBRANCH  33  34
ENDBRANCH   1  33
TORSDOF 11
ENDMDL
MODEL 3
REMARK VINA RESULT:     -11.2      1.189      1.684
REMARK  Name = 16048422
REMARK  11 active torsions:
REMARK  status: ('A' for Active; 'I' for Inactive)
REMARK    1  A    between atoms: C_1  and  C_4
REMARK    2  A    between atoms: C_1  and  N_18
REMARK    3  A    between atoms: C_1  and  C_33
REMARK    4  A    between atoms: N_3  and  C_6
REMARK    5  A    between atoms: C_6  and  C_9
REMARK    6  A    between atoms: C_9  and  C_11
REMARK    7  A    between atoms: C_19  and  C_21
REMARK    8  A    between atoms: C_24  and  C_27
REMARK    9  A    between atoms: C_33  and  C_34
REMARK   10  A    between atoms: C_34  and  C_36
REMARK   11  A    between atoms: C_36  and  O_37
REMARK                            x       y       z     vdW  Elec       q    Type
REMARK                         _______ _______ _______ _____ _____    ______ ____
ROOT
ATOM      1  C   UNL     1      34.658 -24.350 -15.664  0.00  0.00    +0.149 C 
ENDROOT
BRANCH   1   4
ATOM      2  O   UNL     1      33.530 -23.231 -13.840  0.00  0.00    -0.273 OA
ATOM      3  N   UNL     1      32.294 -24.626 -15.225  0.00  0.00    -0.306 N 
ATOM      4  C   UNL     1      33.452 -23.987 -14.807  0.00  0.00    +0.240 C 
ATOM      5  H   UNL     1      32.342 -25.212 -16.015  0.00  0.00    +0.149 HD
BRANCH   3   6
ATOM      6  C   UNL     1      31.022 -24.473 -14.558  0.00  0.00    +0.061 C 
ATOM      7  C   UNL     1      31.091 -25.140 -13.176  0.00  0.00    +0.020 C 
ATOM      8  C   UNL     1      30.763 -22.970 -14.364  0.00  0.00    +0.020 C 
BRANCH   6   9
ATOM      9  C   UNL     1      29.877 -25.061 -15.424  0.00  0.00    +0.044 C 
BRANCH   9  11
ATOM     10  F   UNL     1      25.652 -21.534 -16.658  0.00  0.00    -0.204 F 
ATOM     11  C   UNL     1      28.744 -24.115 -15.755  0.00  0.00    -0.020 C 
ATOM     12  C   UNL     1      28.386 -23.895 -17.085  0.00  0.00    -0.002 C 
ATOM     13  C   UNL     1      28.059 -23.464 -14.730  0.00  0.00    -0.002 C 
ATOM     14  C   UNL     1      27.340 -23.024 -17.390  0.00  0.00    +0.029 C 
ATOM     15  C   UNL     1      27.013 -22.592 -15.035  0.00  0.00    +0.029 C 
ATOM     16  C   UNL     1      26.655 -22.372 -16.365  0.00  0.00    +0.140 C 
ENDBRANCH   9  11
ENDBRANCH   6   9
ENDBRANCH   3   6
ENDBRANCH   1   4
BRANCH   1  18
ATOM     17  O   UNL     1      33.172 -24.273 -18.119  0.00  0.00    -0.270 OA
ATOM     18  N   UNL     1      34.732 -23.332 -16.683  0.00  0.00    -0.295 N 
ATOM     19  C   UNL     1      33.970 -23.381 -17.841  0.00  0.00    +0.246 C 
ATOM     20  H   UNL     1      35.345 -22.574 -16.551  0.00  0.00    +0.150 HD
BRANCH  19  21
ATOM     21  C   UNL     1      34.181 -22.270 -18.805  0.00  0.00    +0.053 C 
ATOM     22  C   UNL     1      35.476 -21.896 -19.166  0.00  0.00    +0.005 C 
ATOM     23  C   UNL     1      33.085 -21.603 -19.350  0.00  0.00    +0.005 C 
ATOM     24  C   UNL     1      34.578 -20.185 -20.615  0.00  0.00    +0.000 C 
ATOM     25  C   UNL     1      35.674 -20.853 -20.070  0.00  0.00    +0.000 C 
ATOM     26  C   UNL     1      33.283 -20.559 -20.255  0.00  0.00    +0.000 C 
BRANCH  24  27
ATOM     27  C   UNL     1      34.783 -19.104 -21.554  0.00  0.00    +0.000 C 
ATOM     28  C   UNL     1      35.003 -17.807 -21.087  0.00  0.00    +0.000 C 
ATOM     29  C   UNL     1      34.762 -19.356 -22.925  0.00  0.00    +0.000 C 
ATOM     30  C   UNL     1      35.202 -16.765 -21.992  0.00  0.00    +0.000 C 
ATOM     31  C   UNL     1      34.960 -18.313 -23.830  0.00  0.00    +0.000 C 
ATOM     32  C   UNL     1      35.180 -17.017 -23.363  0.00  0.00    +0.000 C 
ENDBRANCH  24  27
ENDBRANCH  19  21
ENDBRANCH   1  18
BRANCH   1  33
ATOM     33  C   UNL     1      35.951 -24.387 -14.840  0.00  0.00    +0.041 C 
BRANCH  33  34
ATOM     34  C   UNL     1      36.693 -23.051 -14.772  0.00  0.00    +0.112 C 
BRANCH  34  36
ATOM     35  O   UNL     1      37.817 -22.082 -16.704  0.00  0.00    -0.250 OA
ATOM     36  C   UNL     1      37.783 -22.918 -15.811  0.00  0.00    +0.314 C 
BRANCH  36  37
ATOM     37  O   UNL     1      38.766 -23.838 -15.622  0.00  0.00    -0.480 OA
ATOM     38  H   UNL     1      39.336 -23.769 -14.882  0.00  0.00    +0.295 HD
ENDBRANCH  36  37
ENDBRANCH  34  36
ENDBRANCH  33  34
ENDBRANCH   1  33
TORSDOF 11
ENDMDL
MODEL 4
REMARK VINA RESULT:     -11.0      1.335      2.135
REMARK  Name = 16048422
REMARK  11 active torsions:
REMARK  status: ('A' for Active; 'I' for Inactive)
REMARK    1  A    between atoms: C_1  and  C_4
REMARK    2  A    between atoms: C_1  and  N_18
REMARK    3  A    between atoms: C_1  and  C_33
REMARK    4  A    between atoms: N_3  and  C_6
REMARK    5  A    between atoms: C_6  and  C_9
REMARK    6  A    between atoms: C_9  and  C_11
REMARK    7  A    between atoms: C_19  and  C_21
REMARK    8  A    between atoms: C_24  and  C_27
REMARK    9  A    between atoms: C_33  and  C_34
REMARK   10  A    between atoms: C_34  and  C_36
REMARK   11  A    between atoms: C_36  and  O_37
REMARK                            x       y       z     vdW  Elec       q    Type
REMARK                         _______ _______ _______ _____ _____    ______ ____
ROOT
ATOM      1  C   UNL     1      36.153 -23.859 -15.851  0.00  0.00    +0.149 C 
ENDROOT
BRANCH   1   4
ATOM      2  O   UNL     1      35.042 -22.329 -14.343  0.00  0.00    -0.273 OA
ATOM      3  N   UNL     1      34.268 -24.514 -14.484  0.00  0.00    -0.306 N 
ATOM      4  C   UNL     1      35.103 -23.459 -14.824  0.00  0.00    +0.240 C 
ATOM      5  H   UNL     1      34.403 -25.381 -14.930  0.00  0.00    +0.149 HD
BRANCH   3   6
ATOM      6  C   UNL     1      33.210 -24.402 -13.506  0.00  0.00    +0.061 C 
ATOM      7  C   UNL     1      32.396 -25.704 -13.489  0.00  0.00    +0.020 C 
ATOM      8  C   UNL     1      33.858 -24.210 -12.124  0.00  0.00    +0.020 C 
BRANCH   6   9
ATOM      9  C   UNL     1      32.317 -23.169 -13.805  0.00  0.00    +0.044 C 
BRANCH   9  11
ATOM     10  F   UNL     1      27.688 -24.160 -16.872  0.00  0.00    -0.204 F 
ATOM     11  C   UNL     1      31.076 -23.435 -14.627  0.00  0.00    -0.020 C 
ATOM     12  C   UNL     1      31.015 -23.010 -15.955  0.00  0.00    -0.002 C 
ATOM     13  C   UNL     1      29.993 -24.105 -14.058  0.00  0.00    -0.002 C 
ATOM     14  C   UNL     1      29.871 -23.256 -16.713  0.00  0.00    +0.029 C 
ATOM     15  C   UNL     1      28.849 -24.351 -14.817  0.00  0.00    +0.029 C 
ATOM     16  C   UNL     1      28.788 -23.925 -16.144  0.00  0.00    +0.140 C 
ENDBRANCH   9  11
ENDBRANCH   6   9
ENDBRANCH   3   6
ENDBRANCH   1   4
BRANCH   1  18
ATOM     17  O   UNL     1      33.902 -23.678 -17.624  0.00  0.00    -0.270 OA
ATOM     18  N   UNL     1      35.993 -22.937 -16.949  0.00  0.00    -0.295 N 
ATOM     19  C   UNL     1      34.863 -22.925 -17.753  0.00  0.00    +0.246 C 
ATOM     20  H   UNL     1      36.712 -22.291 -17.134  0.00  0.00    +0.150 HD
BRANCH  19  21
ATOM     21  C   UNL     1      34.863 -21.932 -18.859  0.00  0.00    +0.053 C 
ATOM     22  C   UNL     1      33.656 -21.494 -19.403  0.00  0.00    +0.005 C 
ATOM     23  C   UNL     1      36.070 -21.438 -19.352  0.00  0.00    +0.005 C 
ATOM     24  C   UNL     1      34.864 -20.068 -20.934  0.00  0.00    +0.000 C 
ATOM     25  C   UNL     1      33.656 -20.562 -20.441  0.00  0.00    +0.000 C 
ATOM     26  C   UNL     1      36.071 -20.506 -20.390  0.00  0.00    +0.000 C 
BRANCH  24  27
ATOM     27  C   UNL     1      34.864 -19.102 -22.011  0.00  0.00    +0.000 C 
ATOM     28  C   UNL     1      35.160 -17.764 -21.747  0.00  0.00    +0.000 C 
ATOM     29  C   UNL     1      34.571 -19.507 -23.313  0.00  0.00    +0.000 C 
ATOM     30  C   UNL     1      35.162 -16.832 -22.785  0.00  0.00    +0.000 C 
ATOM     31  C   UNL     1      34.573 -18.575 -24.351  0.00  0.00    +0.000 C 
ATOM     32  C   UNL     1      34.868 -17.238 -24.087  0.00  0.00    +0.000 C 
ENDBRANCH  24  27
ENDBRANCH  19  21
ENDBRANCH   1  18
BRANCH   1  33
ATOM     33  C   UNL     1      37.573 -23.776 -15.276  0.00  0.00    +0.041 C 
BRANCH  33  34
ATOM     34  C   UNL     1      37.841 -24.742 -14.120  0.00  0.00    +0.112 C 
BRANCH  34  36
ATOM     35  O   UNL     1      36.584 -26.814 -14.366  0.00  0.00    -0.250 OA
ATOM     36  C   UNL     1      37.630 -26.193 -14.492  0.00  0.00    +0.314 C 
BRANCH  36  37
ATOM     37  O   UNL     1      38.755 -26.739 -15.024  0.00  0.00    -0.480 OA
ATOM     38  H   UNL     1      39.501 -26.199 -15.200  0.00  0.00    +0.295 HD
ENDBRANCH  36  37
ENDBRANCH  34  36
ENDBRANCH  33  34
ENDBRANCH   1  33
TORSDOF 11
ENDMDL
MODEL 5
REMARK VINA RESULT:     -10.9      3.495      6.877
REMARK  Name = 16048422
REMARK  11 active torsions:
REMARK  status: ('A' for Active; 'I' for Inactive)
REMARK    1  A    between atoms: C_1  and  C_4
REMARK    2  A    between atoms: C_1  and  N_18
REMARK    3  A    between atoms: C_1  and  C_33
REMARK    4  A    between atoms: N_3  and  C_6
REMARK    5  A    between atoms: C_6  and  C_9
REMARK    6  A    between atoms: C_9  and  C_11
REMARK    7  A    between atoms: C_19  and  C_21
REMARK    8  A    between atoms: C_24  and  C_27
REMARK    9  A    between atoms: C_33  and  C_34
REMARK   10  A    between atoms: C_34  and  C_36
REMARK   11  A    between atoms: C_36  and  O_37
REMARK                            x       y       z     vdW  Elec       q    Type
REMARK                         _______ _______ _______ _____ _____    ______ ____
ROOT
ATOM      1  C   UNL     1      31.418 -23.522 -14.810  0.00  0.00    +0.149 C 
ENDROOT
BRANCH   1   4
ATOM      2  O   UNL     1      32.215 -25.542 -13.746  0.00  0.00    -0.273 OA
ATOM      3  N   UNL     1      33.718 -23.811 -14.116  0.00  0.00    -0.306 N 
ATOM      4  C   UNL     1      32.473 -24.419 -14.176  0.00  0.00    +0.240 C 
ATOM      5  H   UNL     1      33.815 -22.906 -14.491  0.00  0.00    +0.149 HD
BRANCH   3   6
ATOM      6  C   UNL     1      34.878 -24.441 -13.529  0.00  0.00    +0.061 C 
ATOM      7  C   UNL     1      34.618 -24.690 -12.036  0.00  0.00    +0.020 C 
ATOM      8  C   UNL     1      35.086 -25.797 -14.223  0.00  0.00    +0.020 C 
BRANCH   6   9
ATOM      9  C   UNL     1      36.144 -23.573 -13.755  0.00  0.00    +0.044 C 
BRANCH   9  11
ATOM     10  F   UNL     1      41.035 -26.369 -14.044  0.00  0.00    -0.204 F 
ATOM     11  C   UNL     1      37.455 -24.323 -13.833  0.00  0.00    -0.020 C 
ATOM     12  C   UNL     1      38.224 -24.265 -14.995  0.00  0.00    -0.002 C 
ATOM     13  C   UNL     1      37.895 -25.073 -12.742  0.00  0.00    -0.002 C 
ATOM     14  C   UNL     1      39.434 -24.955 -15.066  0.00  0.00    +0.029 C 
ATOM     15  C   UNL     1      39.105 -25.763 -12.813  0.00  0.00    +0.029 C 
ATOM     16  C   UNL     1      39.874 -25.705 -13.975  0.00  0.00    +0.140 C 
ENDBRANCH   9  11
ENDBRANCH   6   9
ENDBRANCH   3   6
ENDBRANCH   1   4
BRANCH   1  18
ATOM     17  O   UNL     1      32.955 -24.729 -16.914  0.00  0.00    -0.270 OA
ATOM     18  N   UNL     1      32.089 -22.837 -15.888  0.00  0.00    -0.295 N 
ATOM     19  C   UNL     1      32.811 -23.510 -16.864  0.00  0.00    +0.246 C 
ATOM     20  H   UNL     1      32.033 -21.856 -15.934  0.00  0.00    +0.150 HD
BRANCH  19  21
ATOM     21  C   UNL     1      33.466 -22.660 -17.890  0.00  0.00    +0.053 C 
ATOM     22  C   UNL     1      34.856 -22.654 -18.008  0.00  0.00    +0.005 C 
ATOM     23  C   UNL     1      32.691 -21.867 -18.736  0.00  0.00    +0.005 C 
ATOM     24  C   UNL     1      34.696 -21.062 -19.818  0.00  0.00    +0.000 C 
ATOM     25  C   UNL     1      35.471 -21.855 -18.972  0.00  0.00    +0.000 C 
ATOM     26  C   UNL     1      33.306 -21.068 -19.701  0.00  0.00    +0.000 C 
BRANCH  24  27
ATOM     27  C   UNL     1      35.333 -20.233 -20.818  0.00  0.00    +0.000 C 
ATOM     28  C   UNL     1      36.627 -19.757 -20.608  0.00  0.00    +0.000 C 
ATOM     29  C   UNL     1      34.654 -19.912 -21.994  0.00  0.00    +0.000 C 
ATOM     30  C   UNL     1      37.242 -18.959 -21.573  0.00  0.00    +0.000 C 
ATOM     31  C   UNL     1      35.270 -19.113 -22.958  0.00  0.00    +0.000 C 
ATOM     32  C   UNL     1      36.563 -18.637 -22.747  0.00  0.00    +0.000 C 
ENDBRANCH  24  27
ENDBRANCH  19  21
ENDBRANCH   1  18
BRANCH   1  33
ATOM     33  C   UNL     1      30.227 -24.330 -15.339  0.00  0.00    +0.041 C 
BRANCH  33  34
ATOM     34  C   UNL     1      28.874 -23.631 -15.187  0.00  0.00    +0.112 C 
BRANCH  34  36
ATOM     35  O   UNL     1      27.759 -24.458 -17.188  0.00  0.00    -0.250 OA
ATOM     36  C   UNL     1      28.108 -23.519 -16.486  0.00  0.00    +0.314 C 
BRANCH  36  37
ATOM     37  O   UNL     1      27.817 -22.226 -16.782  0.00  0.00    -0.480 OA
ATOM     38  H   UNL     1      28.472 -21.671 -17.156  0.00  0.00    +0.295 HD
ENDBRANCH  36  37
ENDBRANCH  34  36
ENDBRANCH  33  34
ENDBRANCH   1  33
TORSDOF 11
ENDMDL
MODEL 6
REMARK VINA RESULT:     -10.1      1.570      2.068
REMARK  Name = 16048422
REMARK  11 active torsions:
REMARK  status: ('A' for Active; 'I' for Inactive)
REMARK    1  A    between atoms: C_1  and  C_4
REMARK    2  A    between atoms: C_1  and  N_18
REMARK    3  A    between atoms: C_1  and  C_33
REMARK    4  A    between atoms: N_3  and  C_6
REMARK    5  A    between atoms: C_6  and  C_9
REMARK    6  A    between atoms: C_9  and  C_11
REMARK    7  A    between atoms: C_19  and  C_21
REMARK    8  A    between atoms: C_24  and  C_27
REMARK    9  A    between atoms: C_33  and  C_34
REMARK   10  A    between atoms: C_34  and  C_36
REMARK   11  A    between atoms: C_36  and  O_37
REMARK                            x       y       z     vdW  Elec       q    Type
REMARK                         _______ _______ _______ _____ _____    ______ ____
ROOT
ATOM      1  C   UNL     1      33.591 -23.976 -17.030  0.00  0.00    +0.149 C 
ENDROOT
BRANCH   1   4
ATOM      2  O   UNL     1      31.501 -22.787 -16.767  0.00  0.00    -0.273 OA
ATOM      3  N   UNL     1      31.953 -24.570 -15.350  0.00  0.00    -0.306 N 
ATOM      4  C   UNL     1      32.233 -23.702 -16.395  0.00  0.00    +0.240 C 
ATOM      5  H   UNL     1      32.612 -25.270 -15.134  0.00  0.00    +0.149 HD
BRANCH   3   6
ATOM      6  C   UNL     1      30.743 -24.498 -14.564  0.00  0.00    +0.061 C 
ATOM      7  C   UNL     1      30.955 -25.248 -13.240  0.00  0.00    +0.020 C 
ATOM      8  C   UNL     1      30.468 -23.018 -14.249  0.00  0.00    +0.020 C 
BRANCH   6   9
ATOM      9  C   UNL     1      29.539 -25.063 -15.361  0.00  0.00    +0.044 C 
BRANCH   9  11
ATOM     10  F   UNL     1      25.623 -21.311 -16.910  0.00  0.00    -0.204 F 
ATOM     11  C   UNL     1      28.489 -24.057 -15.776  0.00  0.00    -0.020 C 
ATOM     12  C   UNL     1      27.803 -23.325 -14.807  0.00  0.00    -0.002 C 
ATOM     13  C   UNL     1      28.207 -23.862 -17.128  0.00  0.00    -0.002 C 
ATOM     14  C   UNL     1      26.835 -22.397 -15.190  0.00  0.00    +0.029 C 
ATOM     15  C   UNL     1      27.239 -22.934 -17.511  0.00  0.00    +0.029 C 
ATOM     16  C   UNL     1      26.553 -22.202 -16.542  0.00  0.00    +0.140 C 
ENDBRANCH   9  11
ENDBRANCH   6   9
ENDBRANCH   3   6
ENDBRANCH   1   4
BRANCH   1  18
ATOM     17  O   UNL     1      36.014 -22.644 -17.803  0.00  0.00    -0.270 OA
ATOM     18  N   UNL     1      33.737 -22.991 -18.073  0.00  0.00    -0.295 N 
ATOM     19  C   UNL     1      34.955 -22.400 -18.375  0.00  0.00    +0.246 C 
ATOM     20  H   UNL     1      32.942 -22.727 -18.590  0.00  0.00    +0.150 HD
BRANCH  19  21
ATOM     21  C   UNL     1      34.934 -21.384 -19.459  0.00  0.00    +0.053 C 
ATOM     22  C   UNL     1      33.717 -20.958 -19.992  0.00  0.00    +0.005 C 
ATOM     23  C   UNL     1      36.130 -20.856 -19.942  0.00  0.00    +0.005 C 
ATOM     24  C   UNL     1      34.894 -19.475 -21.493  0.00  0.00    +0.000 C 
ATOM     25  C   UNL     1      33.697 -20.004 -21.009  0.00  0.00    +0.000 C 
ATOM     26  C   UNL     1      36.111 -19.901 -20.960  0.00  0.00    +0.000 C 
BRANCH  24  27
ATOM     27  C   UNL     1      34.874 -18.486 -22.548  0.00  0.00    +0.000 C 
ATOM     28  C   UNL     1      35.204 -17.159 -22.267  0.00  0.00    +0.000 C 
ATOM     29  C   UNL     1      34.527 -18.857 -23.847  0.00  0.00    +0.000 C 
ATOM     30  C   UNL     1      35.186 -16.205 -23.284  0.00  0.00    +0.000 C 
ATOM     31  C   UNL     1      34.508 -17.902 -24.864  0.00  0.00    +0.000 C 
ATOM     32  C   UNL     1      34.838 -16.577 -24.582  0.00  0.00    +0.000 C 
ENDBRANCH  24  27
ENDBRANCH  19  21
ENDBRANCH   1  18
BRANCH   1  33
ATOM     33  C   UNL     1      34.730 -23.858 -16.010  0.00  0.00    +0.041 C 
BRANCH  33  34
ATOM     34  C   UNL     1      34.299 -23.328 -14.641  0.00  0.00    +0.112 C 
BRANCH  34  36
ATOM     35  O   UNL     1      35.667 -23.669 -12.654  0.00  0.00    -0.250 OA
ATOM     36  C   UNL     1      34.884 -24.109 -13.485  0.00  0.00    +0.314 C 
BRANCH  36  37
ATOM     37  O   UNL     1      34.410 -25.382 -13.454  0.00  0.00    -0.480 OA
ATOM     38  H   UNL     1      34.995 -26.104 -13.572  0.00  0.00    +0.295 HD
ENDBRANCH  36  37
ENDBRANCH  34  36
ENDBRANCH  33  34
ENDBRANCH   1  33
TORSDOF 11
ENDMDL
MODEL 7
REMARK VINA RESULT:     -10.0      1.996      2.778
REMARK  Name = 16048422
REMARK  11 active torsions:
REMARK  status: ('A' for Active; 'I' for Inactive)
REMARK    1  A    between atoms: C_1  and  C_4
REMARK    2  A    between atoms: C_1  and  N_18
REMARK    3  A    between atoms: C_1  and  C_33
REMARK    4  A    between atoms: N_3  and  C_6
REMARK    5  A    between atoms: C_6  and  C_9
REMARK    6  A    between atoms: C_9  and  C_11
REMARK    7  A    between atoms: C_19  and  C_21
REMARK    8  A    between atoms: C_24  and  C_27
REMARK    9  A    between atoms: C_33  and  C_34
REMARK   10  A    between atoms: C_34  and  C_36
REMARK   11  A    between atoms: C_36  and  O_37
REMARK                            x       y       z     vdW  Elec       q    Type
REMARK                         _______ _______ _______ _____ _____    ______ ____
ROOT
ATOM      1  C   UNL     1      36.366 -23.901 -15.157  0.00  0.00    +0.149 C 
ENDROOT
BRANCH   1   4
ATOM      2  O   UNL     1      34.933 -25.842 -14.990  0.00  0.00    -0.273 OA
ATOM      3  N   UNL     1      34.051 -23.758 -14.467  0.00  0.00    -0.306 N 
ATOM      4  C   UNL     1      35.060 -24.626 -14.860  0.00  0.00    +0.240 C 
ATOM      5  H   UNL     1      34.261 -22.799 -14.395  0.00  0.00    +0.149 HD
BRANCH   3   6
ATOM      6  C   UNL     1      32.708 -24.194 -14.160  0.00  0.00    +0.061 C 
ATOM      7  C   UNL     1      32.769 -25.344 -13.144  0.00  0.00    +0.020 C 
ATOM      8  C   UNL     1      31.959 -23.013 -13.520  0.00  0.00    +0.020 C 
BRANCH   6   9
ATOM      9  C   UNL     1      31.959 -24.608 -15.454  0.00  0.00    +0.044 C 
BRANCH   9  11
ATOM     10  F   UNL     1      26.580 -22.953 -15.830  0.00  0.00    -0.204 F 
ATOM     11  C   UNL     1      30.517 -24.164 -15.555  0.00  0.00    -0.020 C 
ATOM     12  C   UNL     1      30.197 -22.981 -16.220  0.00  0.00    -0.002 C 
ATOM     13  C   UNL     1      29.508 -24.938 -14.982  0.00  0.00    -0.002 C 
ATOM     14  C   UNL     1      28.866 -22.572 -16.314  0.00  0.00    +0.029 C 
ATOM     15  C   UNL     1      28.178 -24.529 -15.076  0.00  0.00    +0.029 C 
ATOM     16  C   UNL     1      27.857 -23.346 -15.741  0.00  0.00    +0.140 C 
ENDBRANCH   9  11
ENDBRANCH   6   9
ENDBRANCH   3   6
ENDBRANCH   1   4
BRANCH   1  18
ATOM     17  O   UNL     1      38.289 -22.361 -16.632  0.00  0.00    -0.270 OA
ATOM     18  N   UNL     1      36.118 -23.126 -16.348  0.00  0.00    -0.295 N 
ATOM     19  C   UNL     1      37.116 -22.411 -16.994  0.00  0.00    +0.246 C 
ATOM     20  H   UNL     1      35.205 -23.103 -16.716  0.00  0.00    +0.150 HD
BRANCH  19  21
ATOM     21  C   UNL     1      36.692 -21.641 -18.192  0.00  0.00    +0.053 C 
ATOM     22  C   UNL     1      37.501 -20.618 -18.686  0.00  0.00    +0.005 C 
ATOM     23  C   UNL     1      35.486 -21.943 -18.823  0.00  0.00    +0.005 C 
ATOM     24  C   UNL     1      35.897 -20.197 -20.442  0.00  0.00    +0.000 C 
ATOM     25  C   UNL     1      37.103 -19.895 -19.811  0.00  0.00    +0.000 C 
ATOM     26  C   UNL     1      35.087 -21.221 -19.949  0.00  0.00    +0.000 C 
BRANCH  24  27
ATOM     27  C   UNL     1      35.483 -19.448 -21.608  0.00  0.00    +0.000 C 
ATOM     28  C   UNL     1      34.891 -20.106 -22.686  0.00  0.00    +0.000 C 
ATOM     29  C   UNL     1      35.676 -18.067 -21.655  0.00  0.00    +0.000 C 
ATOM     30  C   UNL     1      34.491 -19.383 -23.811  0.00  0.00    +0.000 C 
ATOM     31  C   UNL     1      35.276 -17.345 -22.780  0.00  0.00    +0.000 C 
ATOM     32  C   UNL     1      34.684 -18.003 -23.858  0.00  0.00    +0.000 C 
ENDBRANCH  24  27
ENDBRANCH  19  21
ENDBRANCH   1  18
BRANCH   1  33
ATOM     33  C   UNL     1      36.789 -22.991 -13.997  0.00  0.00    +0.041 C 
BRANCH  33  34
ATOM     34  C   UNL     1      37.382 -23.734 -12.797  0.00  0.00    +0.112 C 
BRANCH  34  36
ATOM     35  O   UNL     1      35.353 -23.853 -11.455  0.00  0.00    -0.250 OA
ATOM     36  C   UNL     1      36.547 -23.605 -11.542  0.00  0.00    +0.314 C 
BRANCH  36  37
ATOM     37  O   UNL     1      37.299 -23.201 -10.485  0.00  0.00    -0.480 OA
ATOM     38  H   UNL     1      36.912 -23.129  -9.635  0.00  0.00    +0.295 HD
ENDBRANCH  36  37
ENDBRANCH  34  36
ENDBRANCH  33  34
ENDBRANCH   1  33
TORSDOF 11
ENDMDL
MODEL 8
REMARK VINA RESULT:      -9.8      3.379      6.723
REMARK  Name = 16048422
REMARK  11 active torsions:
REMARK  status: ('A' for Active; 'I' for Inactive)
REMARK    1  A    between atoms: C_1  and  C_4
REMARK    2  A    between atoms: C_1  and  N_18
REMARK    3  A    between atoms: C_1  and  C_33
REMARK    4  A    between atoms: N_3  and  C_6
REMARK    5  A    between atoms: C_6  and  C_9
REMARK    6  A    between atoms: C_9  and  C_11
REMARK    7  A    between atoms: C_19  and  C_21
REMARK    8  A    between atoms: C_24  and  C_27
REMARK    9  A    between atoms: C_33  and  C_34
REMARK   10  A    between atoms: C_34  and  C_36
REMARK   11  A    between atoms: C_36  and  O_37
REMARK                            x       y       z     vdW  Elec       q    Type
REMARK                         _______ _______ _______ _____ _____    ______ ____
ROOT
ATOM      1  C   UNL     1      32.712 -23.544 -15.148  0.00  0.00    +0.149 C 
ENDROOT
BRANCH   1   4
ATOM      2  O   UNL     1      34.765 -24.807 -15.347  0.00  0.00    -0.273 OA
ATOM      3  N   UNL     1      34.303 -23.742 -13.336  0.00  0.00    -0.306 N 
ATOM      4  C   UNL     1      34.040 -24.099 -14.650  0.00  0.00    +0.240 C 
ATOM      5  H   UNL     1      33.653 -23.169 -12.868  0.00  0.00    +0.149 HD
BRANCH   3   6
ATOM      6  C   UNL     1      35.484 -24.169 -12.621  0.00  0.00    +0.061 C 
ATOM      7  C   UNL     1      36.655 -23.243 -12.979  0.00  0.00    +0.020 C 
ATOM      8  C   UNL     1      35.200 -24.042 -11.115  0.00  0.00    +0.020 C 
BRANCH   6   9
ATOM      9  C   UNL     1      35.806 -25.653 -12.937  0.00  0.00    +0.044 C 
BRANCH   9  11
ATOM     10  F   UNL     1      41.166 -26.783 -14.285  0.00  0.00    -0.204 F 
ATOM     11  C   UNL     1      37.243 -25.956 -13.298  0.00  0.00    -0.020 C 
ATOM     12  C   UNL     1      38.243 -25.851 -12.331  0.00  0.00    -0.002 C 
ATOM     13  C   UNL     1      37.569 -26.340 -14.599  0.00  0.00    -0.002 C 
ATOM     14  C   UNL     1      39.568 -26.131 -12.664  0.00  0.00    +0.029 C 
ATOM     15  C   UNL     1      38.894 -26.620 -14.932  0.00  0.00    +0.029 C 
ATOM     16  C   UNL     1      39.893 -26.515 -13.965  0.00  0.00    +0.140 C 
ENDBRANCH   9  11
ENDBRANCH   6   9
ENDBRANCH   3   6
ENDBRANCH   1   4
BRANCH   1  18
ATOM     17  O   UNL     1      33.243 -24.407 -17.835  0.00  0.00    -0.270 OA
ATOM     18  N   UNL     1      33.040 -22.704 -16.274  0.00  0.00    -0.295 N 
ATOM     19  C   UNL     1      33.281 -23.215 -17.541  0.00  0.00    +0.246 C 
ATOM     20  H   UNL     1      33.095 -21.731 -16.138  0.00  0.00    +0.150 HD
BRANCH  19  21
ATOM     21  C   UNL     1      33.634 -22.221 -18.586  0.00  0.00    +0.053 C 
ATOM     22  C   UNL     1      32.636 -21.446 -19.177  0.00  0.00    +0.005 C 
ATOM     23  C   UNL     1      34.963 -22.062 -18.976  0.00  0.00    +0.005 C 
ATOM     24  C   UNL     1      34.297 -20.353 -20.550  0.00  0.00    +0.000 C 
ATOM     25  C   UNL     1      32.967 -20.512 -20.160  0.00  0.00    +0.000 C 
ATOM     26  C   UNL     1      35.295 -21.127 -19.959  0.00  0.00    +0.000 C 
BRANCH  24  27
ATOM     27  C   UNL     1      34.641 -19.385 -21.568  0.00  0.00    +0.000 C 
ATOM     28  C   UNL     1      34.595 -19.743 -22.915  0.00  0.00    +0.000 C 
ATOM     29  C   UNL     1      35.019 -18.092 -21.203  0.00  0.00    +0.000 C 
ATOM     30  C   UNL     1      34.925 -18.809 -23.897  0.00  0.00    +0.000 C 
ATOM     31  C   UNL     1      35.350 -17.159 -22.185  0.00  0.00    +0.000 C 
ATOM     32  C   UNL     1      35.303 -17.517 -23.532  0.00  0.00    +0.000 C 
ENDBRANCH  24  27
ENDBRANCH  19  21
ENDBRANCH   1  18
BRANCH   1  33
ATOM     33  C   UNL     1      31.750 -24.662 -15.569  0.00  0.00    +0.041 C 
BRANCH  33  34
ATOM     34  C   UNL     1      30.301 -24.445 -15.129  0.00  0.00    +0.112 C 
BRANCH  34  36
ATOM     35  O   UNL     1      29.844 -22.679 -16.744  0.00  0.00    -0.250 OA
ATOM     36  C   UNL     1      29.477 -23.678 -16.140  0.00  0.00    +0.314 C 
BRANCH  36  37
ATOM     37  O   UNL     1      28.262 -24.254 -16.331  0.00  0.00    -0.480 OA
ATOM     38  H   UNL     1      27.671 -24.352 -15.611  0.00  0.00    +0.295 HD
ENDBRANCH  36  37
ENDBRANCH  34  36
ENDBRANCH  33  34
ENDBRANCH   1  33
TORSDOF 11
ENDMDL
MODEL 9
REMARK VINA RESULT:      -9.8      8.362     13.829
REMARK  Name = 16048422
REMARK  11 active torsions:
REMARK  status: ('A' for Active; 'I' for Inactive)
REMARK    1  A    between atoms: C_1  and  C_4
REMARK    2  A    between atoms: C_1  and  N_18
REMARK    3  A    between atoms: C_1  and  C_33
REMARK    4  A    between atoms: N_3  and  C_6
REMARK    5  A    between atoms: C_6  and  C_9
REMARK    6  A    between atoms: C_9  and  C_11
REMARK    7  A    between atoms: C_19  and  C_21
REMARK    8  A    between atoms: C_24  and  C_27
REMARK    9  A    between atoms: C_33  and  C_34
REMARK   10  A    between atoms: C_34  and  C_36
REMARK   11  A    between atoms: C_36  and  O_37
REMARK                            x       y       z     vdW  Elec       q    Type
REMARK                         _______ _______ _______ _____ _____    ______ ____
ROOT
ATOM      1  C   UNL     1      34.039 -12.919 -23.657  0.00  0.00    +0.149 C 
ENDROOT
BRANCH   1   4
ATOM      2  O   UNL     1      32.248 -12.555 -22.073  0.00  0.00    -0.273 OA
ATOM      3  N   UNL     1      33.353 -10.710 -22.947  0.00  0.00    -0.306 N 
ATOM      4  C   UNL     1      33.116 -12.068 -22.794  0.00  0.00    +0.240 C 
ATOM      5  H   UNL     1      34.076 -10.426 -23.552  0.00  0.00    +0.149 HD
BRANCH   3   6
ATOM      6  C   UNL     1      32.590  -9.692 -22.263  0.00  0.00    +0.061 C 
ATOM      7  C   UNL     1      31.356  -9.333 -23.104  0.00  0.00    +0.020 C 
ATOM      8  C   UNL     1      32.115 -10.274 -20.921  0.00  0.00    +0.020 C 
BRANCH   6   9
ATOM      9  C   UNL     1      33.472  -8.448 -21.975  0.00  0.00    +0.044 C 
BRANCH   9  11
ATOM     10  F   UNL     1      31.871  -3.653 -24.476  0.00  0.00    -0.204 F 
ATOM     11  C   UNL     1      33.043  -7.163 -22.645  0.00  0.00    -0.020 C 
ATOM     12  C   UNL     1      33.571  -6.815 -23.889  0.00  0.00    -0.002 C 
ATOM     13  C   UNL     1      32.119  -6.325 -22.021  0.00  0.00    -0.002 C 
ATOM     14  C   UNL     1      33.174  -5.630 -24.508  0.00  0.00    +0.029 C 
ATOM     15  C   UNL     1      31.723  -5.140 -22.639  0.00  0.00    +0.029 C 
ATOM     16  C   UNL     1      32.251  -4.792 -23.883  0.00  0.00    +0.140 C 
ENDBRANCH   9  11
ENDBRANCH   6   9
ENDBRANCH   3   6
ENDBRANCH   1   4
BRANCH   1  18
ATOM     17  O   UNL     1      35.689 -15.143 -24.415  0.00  0.00    -0.270 OA
ATOM     18  N   UNL     1      34.108 -14.202 -23.002  0.00  0.00    -0.295 N 
ATOM     19  C   UNL     1      34.941 -15.220 -23.444  0.00  0.00    +0.246 C 
ATOM     20  H   UNL     1      33.544 -14.362 -22.212  0.00  0.00    +0.150 HD
BRANCH  19  21
ATOM     21  C   UNL     1      34.877 -16.491 -22.678  0.00  0.00    +0.053 C 
ATOM     22  C   UNL     1      34.661 -16.465 -21.300  0.00  0.00    +0.005 C 
ATOM     23  C   UNL     1      35.031 -17.711 -23.336  0.00  0.00    +0.005 C 
ATOM     24  C   UNL     1      34.755 -18.878 -21.239  0.00  0.00    +0.000 C 
ATOM     25  C   UNL     1      34.601 -17.659 -20.580  0.00  0.00    +0.000 C 
ATOM     26  C   UNL     1      34.971 -18.905 -22.617  0.00  0.00    +0.000 C 
BRANCH  24  27
ATOM     27  C   UNL     1      34.693 -20.116 -20.493  0.00  0.00    +0.000 C 
ATOM     28  C   UNL     1      35.869 -20.777 -20.138  0.00  0.00    +0.000 C 
ATOM     29  C   UNL     1      33.456 -20.649 -20.128  0.00  0.00    +0.000 C 
ATOM     30  C   UNL     1      35.808 -21.970 -19.418  0.00  0.00    +0.000 C 
ATOM     31  C   UNL     1      33.397 -21.843 -19.408  0.00  0.00    +0.000 C 
ATOM     32  C   UNL     1      34.573 -22.503 -19.053  0.00  0.00    +0.000 C 
ENDBRANCH  24  27
ENDBRANCH  19  21
ENDBRANCH   1  18
BRANCH   1  33
ATOM     33  C   UNL     1      33.503 -13.069 -25.086  0.00  0.00    +0.041 C 
BRANCH  33  34
ATOM     34  C   UNL     1      32.559 -14.257 -25.284  0.00  0.00    +0.112 C 
BRANCH  34  36
ATOM     35  O   UNL     1      32.787 -16.505 -26.194  0.00  0.00    -0.250 OA
ATOM     36  C   UNL     1      33.130 -15.331 -26.183  0.00  0.00    +0.314 C 
BRANCH  36  37
ATOM     37  O   UNL     1      34.072 -14.827 -27.023  0.00  0.00    -0.480 OA
ATOM     38  H   UNL     1      34.816 -14.375 -26.677  0.00  0.00    +0.295 HD
ENDBRANCH  36  37
ENDBRANCH  34  36
ENDBRANCH  33  34
ENDBRANCH   1  33
TORSDOF 11
ENDMDL
