MODEL 1
REMARK VINA RESULT:     -11.6      0.000      0.000
REMARK  Name = 11740318
REMARK  5 active torsions:
REMARK  status: ('A' for Active; 'I' for Inactive)
REMARK    1  A    between atoms: N_1  and  C_20
REMARK    2  A    between atoms: C_2  and  O_8
REMARK    3  A    between atoms: O_8  and  C_9
REMARK    4  A    between atoms: C_14  and  N_15
REMARK    5  A    between atoms: C_20  and  C_23
REMARK                            x       y       z     vdW  Elec       q    Type
REMARK                         _______ _______ _______ _____ _____    ______ ____
ROOT
ATOM      1  N   UNL     1      33.739 -24.019 -14.483  0.00  0.00    +0.392 N 
ATOM      2  C   UNL     1      33.273 -23.212 -16.777  0.00  0.00    +0.145 C 
ATOM      3  C   UNL     1      34.024 -24.226 -15.909  0.00  0.00    -0.032 C 
ATOM      4  C   UNL     1      31.772 -23.259 -16.506  0.00  0.00    +0.039 C 
ATOM      5  C   UNL     1      31.495 -23.121 -15.016  0.00  0.00    -0.019 C 
ATOM      6  C   UNL     1      32.301 -24.138 -14.205  0.00  0.00    -0.077 C 
ATOM      7  H   UNL     1      34.028 -23.071 -14.241  0.00  0.00    -0.079 HD
ENDROOT
BRANCH   2   8
ATOM      8  O   UNL     1      33.494 -23.501 -18.153  0.00  0.00    -0.481 OA
BRANCH   8   9
ATOM      9  C   UNL     1      33.831 -22.446 -18.958  0.00  0.00    +0.138 C 
ATOM     10  C   UNL     1      32.832 -21.626 -19.473  0.00  0.00    +0.038 C 
ATOM     11  C   UNL     1      35.168 -22.203 -19.253  0.00  0.00    +0.038 C 
ATOM     12  C   UNL     1      33.175 -20.550 -20.293  0.00  0.00    +0.018 C 
ATOM     13  C   UNL     1      35.511 -21.128 -20.073  0.00  0.00    +0.018 C 
ATOM     14  C   UNL     1      34.514 -20.301 -20.592  0.00  0.00    +0.057 C 
BRANCH  14  15
ATOM     15  N   UNL     1      34.855 -19.235 -21.404  0.00  0.00    -0.246 N 
ATOM     16  N   UNL     1      35.373 -18.093 -23.248  0.00  0.00    -0.224 NA
ATOM     17  C   UNL     1      35.043 -17.934 -21.011  0.00  0.00    +0.092 C 
ATOM     18  C   UNL     1      35.065 -19.274 -22.761  0.00  0.00    +0.172 C 
ATOM     19  C   UNL     1      35.361 -17.253 -22.162  0.00  0.00    +0.117 C 
ENDBRANCH  14  15
ENDBRANCH   8   9
ENDBRANCH   2   8
BRANCH   1  20
ATOM     20  C   UNL     1      34.499 -24.964 -13.666  0.00  0.00    -0.050 C 
BRANCH  20  23
ATOM     21  O   UNL     1      38.944 -27.044 -14.213  0.00  0.00    -0.435 OA
ATOM     22  O   UNL     1      39.973 -24.955 -14.831  0.00  0.00    -0.435 OA
ATOM     23  C   UNL     1      35.970 -24.925 -13.986  0.00  0.00    -0.040 C 
ATOM     24  C   UNL     1      36.712 -26.100 -13.921  0.00  0.00    +0.034 C 
ATOM     25  C   UNL     1      36.558 -23.707 -14.345  0.00  0.00    -0.003 C 
ATOM     26  C   UNL     1      38.055 -26.013 -14.223  0.00  0.00    +0.176 C 
ATOM     27  C   UNL     1      37.920 -23.647 -14.646  0.00  0.00    +0.040 C 
ATOM     28  C   UNL     1      38.643 -24.820 -14.576  0.00  0.00    +0.176 C 
ATOM     29  C   UNL     1      40.156 -26.367 -14.601  0.00  0.00    +0.429 C 
ENDBRANCH  20  23
ENDBRANCH   1  20
TORSDOF 5
ENDMDL
MODEL 2
REMARK VINA RESULT:     -10.7      3.763      7.105
REMARK  Name = 11740318
REMARK  5 active torsions:
REMARK  status: ('A' for Active; 'I' for Inactive)
REMARK    1  A    between atoms: N_1  and  C_20
REMARK    2  A    between atoms: C_2  and  O_8
REMARK    3  A    between atoms: O_8  and  C_9
REMARK    4  A    between atoms: C_14  and  N_15
REMARK    5  A    between atoms: C_20  and  C_23
REMARK                            x       y       z     vdW  Elec       q    Type
REMARK                         _______ _______ _______ _____ _____    ______ ____
ROOT
ATOM      1  N   UNL     1      36.513 -23.406 -13.756  0.00  0.00    +0.392 N 
ATOM      2  C   UNL     1      34.519 -24.103 -12.464  0.00  0.00    +0.145 C 
ATOM      3  C   UNL     1      35.328 -24.273 -13.754  0.00  0.00    -0.032 C 
ATOM      4  C   UNL     1      35.385 -24.356 -11.234  0.00  0.00    +0.039 C 
ATOM      5  C   UNL     1      36.648 -23.508 -11.287  0.00  0.00    -0.019 C 
ATOM      6  C   UNL     1      37.388 -23.698 -12.613  0.00  0.00    -0.077 C 
ATOM      7  H   UNL     1      36.194 -22.440 -13.669  0.00  0.00    -0.079 HD
ENDROOT
BRANCH   2   8
ATOM      8  O   UNL     1      33.434 -25.025 -12.452  0.00  0.00    -0.481 OA
BRANCH   8   9
ATOM      9  C   UNL     1      32.353 -24.715 -13.233  0.00  0.00    +0.138 C 
ATOM     10  C   UNL     1      32.212 -23.425 -13.733  0.00  0.00    +0.038 C 
ATOM     11  C   UNL     1      31.407 -25.693 -13.520  0.00  0.00    +0.038 C 
ATOM     12  C   UNL     1      31.109 -23.109 -14.529  0.00  0.00    +0.018 C 
ATOM     13  C   UNL     1      30.306 -25.377 -14.315  0.00  0.00    +0.018 C 
ATOM     14  C   UNL     1      30.157 -24.085 -14.820  0.00  0.00    +0.057 C 
BRANCH  14  15
ATOM     15  N   UNL     1      29.066 -23.773 -15.610  0.00  0.00    -0.246 N 
ATOM     16  N   UNL     1      27.479 -23.985 -17.161  0.00  0.00    -0.224 NA
ATOM     17  C   UNL     1      28.326 -22.619 -15.563  0.00  0.00    +0.092 C 
ATOM     18  C   UNL     1      28.512 -24.560 -16.588  0.00  0.00    +0.172 C 
ATOM     19  C   UNL     1      27.357 -22.774 -16.526  0.00  0.00    +0.117 C 
ENDBRANCH  14  15
ENDBRANCH   8   9
ENDBRANCH   2   8
BRANCH   1  20
ATOM     20  C   UNL     1      37.247 -23.546 -15.013  0.00  0.00    -0.050 C 
BRANCH  20  23
ATOM     21  O   UNL     1      36.642 -21.076 -19.245  0.00  0.00    -0.435 OA
ATOM     22  O   UNL     1      34.337 -21.751 -19.443  0.00  0.00    -0.435 OA
ATOM     23  C   UNL     1      36.435 -23.081 -16.192  0.00  0.00    -0.040 C 
ATOM     24  C   UNL     1      37.030 -22.269 -17.151  0.00  0.00    +0.034 C 
ATOM     25  C   UNL     1      35.096 -23.479 -16.298  0.00  0.00    -0.003 C 
ATOM     26  C   UNL     1      36.245 -21.869 -18.213  0.00  0.00    +0.176 C 
ATOM     27  C   UNL     1      34.324 -23.060 -17.383  0.00  0.00    +0.040 C 
ATOM     28  C   UNL     1      34.929 -22.254 -18.326  0.00  0.00    +0.176 C 
ATOM     29  C   UNL     1      35.428 -21.006 -20.021  0.00  0.00    +0.429 C 
ENDBRANCH  20  23
ENDBRANCH   1  20
TORSDOF 5
ENDMDL
MODEL 3
REMARK VINA RESULT:     -10.7      3.200      5.470
REMARK  Name = 11740318
REMARK  5 active torsions:
REMARK  status: ('A' for Active; 'I' for Inactive)
REMARK    1  A    between atoms: N_1  and  C_20
REMARK    2  A    between atoms: C_2  and  O_8
REMARK    3  A    between atoms: O_8  and  C_9
REMARK    4  A    between atoms: C_14  and  N_15
REMARK    5  A    between atoms: C_20  and  C_23
REMARK                            x       y       z     vdW  Elec       q    Type
REMARK                         _______ _______ _______ _____ _____    ______ ____
ROOT
ATOM      1  N   UNL     1      35.552 -21.223 -19.073  0.00  0.00    +0.392 N 
ATOM      2  C   UNL     1      35.061 -19.429 -20.707  0.00  0.00    +0.145 C 
ATOM      3  C   UNL     1      36.093 -20.435 -20.187  0.00  0.00    -0.032 C 
ATOM      4  C   UNL     1      33.765 -20.128 -21.108  0.00  0.00    +0.039 C 
ATOM      5  C   UNL     1      33.256 -21.004 -19.971  0.00  0.00    -0.019 C 
ATOM      6  C   UNL     1      34.346 -21.958 -19.477  0.00  0.00    -0.077 C 
ATOM      7  H   UNL     1      35.291 -20.576 -18.329  0.00  0.00    -0.079 HD
ENDROOT
BRANCH   2   8
ATOM      8  O   UNL     1      35.581 -18.751 -21.845  0.00  0.00    -0.481 OA
BRANCH   8   9
ATOM      9  C   UNL     1      35.127 -17.478 -22.064  0.00  0.00    +0.138 C 
ATOM     10  C   UNL     1      35.036 -16.993 -23.364  0.00  0.00    +0.038 C 
ATOM     11  C   UNL     1      34.761 -16.681 -20.985  0.00  0.00    +0.038 C 
ATOM     12  C   UNL     1      34.573 -15.696 -23.588  0.00  0.00    +0.018 C 
ATOM     13  C   UNL     1      34.299 -15.385 -21.208  0.00  0.00    +0.018 C 
ATOM     14  C   UNL     1      34.204 -14.892 -22.510  0.00  0.00    +0.057 C 
BRANCH  14  15
ATOM     15  N   UNL     1      33.745 -13.606 -22.731  0.00  0.00    -0.246 N 
ATOM     16  N   UNL     1      32.571 -11.731 -22.460  0.00  0.00    -0.224 NA
ATOM     17  C   UNL     1      34.160 -12.748 -23.717  0.00  0.00    +0.092 C 
ATOM     18  C   UNL     1      32.788 -12.944 -22.003  0.00  0.00    +0.172 C 
ATOM     19  C   UNL     1      33.424 -11.602 -23.528  0.00  0.00    +0.117 C 
ENDBRANCH  14  15
ENDBRANCH   8   9
ENDBRANCH   2   8
BRANCH   1  20
ATOM     20  C   UNL     1      36.565 -22.144 -18.558  0.00  0.00    -0.050 C 
BRANCH  20  23
ATOM     21  O   UNL     1      37.804 -23.132 -13.882  0.00  0.00    -0.435 OA
ATOM     22  O   UNL     1      35.555 -23.771 -13.299  0.00  0.00    -0.435 OA
ATOM     23  C   UNL     1      36.258 -22.587 -17.152  0.00  0.00    -0.040 C 
ATOM     24  C   UNL     1      37.280 -22.619 -16.210  0.00  0.00    +0.034 C 
ATOM     25  C   UNL     1      34.948 -22.957 -16.824  0.00  0.00    -0.003 C 
ATOM     26  C   UNL     1      36.949 -23.031 -14.936  0.00  0.00    +0.176 C 
ATOM     27  C   UNL     1      34.640 -23.370 -15.526  0.00  0.00    +0.040 C 
ATOM     28  C   UNL     1      35.665 -23.397 -14.603  0.00  0.00    +0.176 C 
ATOM     29  C   UNL     1      36.914 -23.600 -12.848  0.00  0.00    +0.429 C 
ENDBRANCH  20  23
ENDBRANCH   1  20
TORSDOF 5
ENDMDL
MODEL 4
REMARK VINA RESULT:     -10.6      4.475      8.548
REMARK  Name = 11740318
REMARK  5 active torsions:
REMARK  status: ('A' for Active; 'I' for Inactive)
REMARK    1  A    between atoms: N_1  and  C_20
REMARK    2  A    between atoms: C_2  and  O_8
REMARK    3  A    between atoms: O_8  and  C_9
REMARK    4  A    between atoms: C_14  and  N_15
REMARK    5  A    between atoms: C_20  and  C_23
REMARK                            x       y       z     vdW  Elec       q    Type
REMARK                         _______ _______ _______ _____ _____    ______ ____
ROOT
ATOM      1  N   UNL     1      35.033 -19.127 -22.248  0.00  0.00    +0.392 N 
ATOM      2  C   UNL     1      34.598 -16.892 -23.220  0.00  0.00    +0.145 C 
ATOM      3  C   UNL     1      35.433 -17.714 -22.233  0.00  0.00    -0.032 C 
ATOM      4  C   UNL     1      34.684 -17.471 -24.630  0.00  0.00    +0.039 C 
ATOM      5  C   UNL     1      34.344 -18.955 -24.619  0.00  0.00    -0.019 C 
ATOM      6  C   UNL     1      35.187 -19.709 -23.589  0.00  0.00    -0.077 C 
ATOM      7  H   UNL     1      34.046 -19.177 -21.995  0.00  0.00    -0.079 HD
ENDROOT
BRANCH   2   8
ATOM      8  O   UNL     1      35.074 -15.551 -23.252  0.00  0.00    -0.481 OA
BRANCH   8   9
ATOM      9  C   UNL     1      34.338 -14.620 -22.568  0.00  0.00    +0.138 C 
ATOM     10  C   UNL     1      34.015 -14.841 -21.234  0.00  0.00    +0.038 C 
ATOM     11  C   UNL     1      33.920 -13.462 -23.215  0.00  0.00    +0.038 C 
ATOM     12  C   UNL     1      33.265 -13.893 -20.537  0.00  0.00    +0.018 C 
ATOM     13  C   UNL     1      33.171 -12.514 -22.519  0.00  0.00    +0.018 C 
ATOM     14  C   UNL     1      32.843 -12.729 -21.180  0.00  0.00    +0.057 C 
BRANCH  14  15
ATOM     15  N   UNL     1      32.101 -11.788 -20.490  0.00  0.00    -0.246 N 
ATOM     16  N   UNL     1      31.144  -9.838 -19.990  0.00  0.00    -0.224 NA
ATOM     17  C   UNL     1      31.420 -11.984 -19.316  0.00  0.00    +0.092 C 
ATOM     18  C   UNL     1      31.900 -10.479 -20.852  0.00  0.00    +0.172 C 
ATOM     19  C   UNL     1      30.841 -10.771 -19.030  0.00  0.00    +0.117 C 
ENDBRANCH  14  15
ENDBRANCH   8   9
ENDBRANCH   2   8
BRANCH   1  20
ATOM     20  C   UNL     1      35.807 -19.888 -21.268  0.00  0.00    -0.050 C 
BRANCH  20  23
ATOM     21  O   UNL     1      35.008 -23.144 -17.642  0.00  0.00    -0.435 OA
ATOM     22  O   UNL     1      32.617 -22.879 -17.775  0.00  0.00    -0.435 OA
ATOM     23  C   UNL     1      34.919 -20.678 -20.343  0.00  0.00    -0.040 C 
ATOM     24  C   UNL     1      35.495 -21.547 -19.424  0.00  0.00    +0.034 C 
ATOM     25  C   UNL     1      33.531 -20.517 -20.428  0.00  0.00    -0.003 C 
ATOM     26  C   UNL     1      34.640 -22.248 -18.599  0.00  0.00    +0.176 C 
ATOM     27  C   UNL     1      32.688 -21.238 -19.580  0.00  0.00    +0.040 C 
ATOM     28  C   UNL     1      33.274 -22.098 -18.675  0.00  0.00    +0.176 C 
ATOM     29  C   UNL     1      33.722 -23.538 -17.123  0.00  0.00    +0.429 C 
ENDBRANCH  20  23
ENDBRANCH   1  20
TORSDOF 5
ENDMDL
MODEL 5
REMARK VINA RESULT:     -10.2      6.287     10.342
REMARK  Name = 11740318
REMARK  5 active torsions:
REMARK  status: ('A' for Active; 'I' for Inactive)
REMARK    1  A    between atoms: N_1  and  C_20
REMARK    2  A    between atoms: C_2  and  O_8
REMARK    3  A    between atoms: O_8  and  C_9
REMARK    4  A    between atoms: C_14  and  N_15
REMARK    5  A    between atoms: C_20  and  C_23
REMARK                            x       y       z     vdW  Elec       q    Type
REMARK                         _______ _______ _______ _____ _____    ______ ____
ROOT
ATOM      1  N   UNL     1      35.150 -16.513 -22.296  0.00  0.00    +0.392 N 
ATOM      2  C   UNL     1      34.250 -14.235 -22.655  0.00  0.00    +0.145 C 
ATOM      3  C   UNL     1      34.379 -15.658 -23.207  0.00  0.00    -0.032 C 
ATOM      4  C   UNL     1      33.638 -14.239 -21.257  0.00  0.00    +0.039 C 
ATOM      5  C   UNL     1      34.399 -15.190 -20.344  0.00  0.00    -0.019 C 
ATOM      6  C   UNL     1      34.522 -16.581 -20.969  0.00  0.00    -0.077 C 
ATOM      7  H   UNL     1      36.075 -16.099 -22.184  0.00  0.00    -0.079 HD
ENDROOT
BRANCH   2   8
ATOM      8  O   UNL     1      33.418 -13.460 -23.511  0.00  0.00    -0.481 OA
BRANCH   8   9
ATOM      9  C   UNL     1      33.130 -12.186 -23.102  0.00  0.00    +0.138 C 
ATOM     10  C   UNL     1      33.841 -11.115 -23.633  0.00  0.00    +0.038 C 
ATOM     11  C   UNL     1      32.129 -11.973 -22.161  0.00  0.00    +0.038 C 
ATOM     12  C   UNL     1      33.548  -9.815 -23.216  0.00  0.00    +0.018 C 
ATOM     13  C   UNL     1      31.836 -10.675 -21.744  0.00  0.00    +0.018 C 
ATOM     14  C   UNL     1      32.545  -9.596 -22.272  0.00  0.00    +0.057 C 
BRANCH  14  15
ATOM     15  N   UNL     1      32.253  -8.309 -21.859  0.00  0.00    -0.246 N 
ATOM     16  N   UNL     1      31.205  -6.346 -21.718  0.00  0.00    -0.224 NA
ATOM     17  C   UNL     1      32.937  -7.574 -20.925  0.00  0.00    +0.092 C 
ATOM     18  C   UNL     1      31.220  -7.522 -22.305  0.00  0.00    +0.172 C 
ATOM     19  C   UNL     1      32.274  -6.373 -20.856  0.00  0.00    +0.117 C 
ENDBRANCH  14  15
ENDBRANCH   8   9
ENDBRANCH   2   8
BRANCH   1  20
ATOM     20  C   UNL     1      35.302 -17.854 -22.859  0.00  0.00    -0.050 C 
BRANCH  20  23
ATOM     21  O   UNL     1      34.152 -21.542 -19.784  0.00  0.00    -0.435 OA
ATOM     22  O   UNL     1      36.401 -21.684 -18.928  0.00  0.00    -0.435 OA
ATOM     23  C   UNL     1      35.633 -18.873 -21.801  0.00  0.00    -0.040 C 
ATOM     24  C   UNL     1      34.633 -19.719 -21.335  0.00  0.00    +0.034 C 
ATOM     25  C   UNL     1      36.942 -18.947 -21.310  0.00  0.00    -0.003 C 
ATOM     26  C   UNL     1      34.985 -20.636 -20.366  0.00  0.00    +0.176 C 
ATOM     27  C   UNL     1      37.272 -19.885 -20.330  0.00  0.00    +0.040 C 
ATOM     28  C   UNL     1      36.268 -20.716 -19.876  0.00  0.00    +0.176 C 
ATOM     29  C   UNL     1      35.057 -22.204 -18.876  0.00  0.00    +0.429 C 
ENDBRANCH  20  23
ENDBRANCH   1  20
TORSDOF 5
ENDMDL
MODEL 6
REMARK VINA RESULT:     -10.1      3.519     10.183
REMARK  Name = 11740318
REMARK  5 active torsions:
REMARK  status: ('A' for Active; 'I' for Inactive)
REMARK    1  A    between atoms: N_1  and  C_20
REMARK    2  A    between atoms: C_2  and  O_8
REMARK    3  A    between atoms: O_8  and  C_9
REMARK    4  A    between atoms: C_14  and  N_15
REMARK    5  A    between atoms: C_20  and  C_23
REMARK                            x       y       z     vdW  Elec       q    Type
REMARK                         _______ _______ _______ _____ _____    ______ ____
ROOT
ATOM      1  N   UNL     1      35.640 -19.044 -21.127  0.00  0.00    +0.392 N 
ATOM      2  C   UNL     1      35.431 -20.980 -19.598  0.00  0.00    +0.145 C 
ATOM      3  C   UNL     1      35.069 -20.386 -20.963  0.00  0.00    -0.032 C 
ATOM      4  C   UNL     1      36.942 -20.998 -19.389  0.00  0.00    +0.039 C 
ATOM      5  C   UNL     1      37.532 -19.617 -19.638  0.00  0.00    -0.019 C 
ATOM      6  C   UNL     1      37.104 -19.069 -21.001  0.00  0.00    -0.077 C 
ATOM      7  H   UNL     1      35.271 -18.453 -20.382  0.00  0.00    -0.079 HD
ENDROOT
BRANCH   2   8
ATOM      8  O   UNL     1      34.945 -22.315 -19.510  0.00  0.00    -0.481 OA
BRANCH   8   9
ATOM      9  C   UNL     1      34.337 -22.673 -18.337  0.00  0.00    +0.138 C 
ATOM     10  C   UNL     1      32.950 -22.657 -18.246  0.00  0.00    +0.038 C 
ATOM     11  C   UNL     1      35.113 -23.051 -17.246  0.00  0.00    +0.038 C 
ATOM     12  C   UNL     1      32.330 -23.022 -17.050  0.00  0.00    +0.018 C 
ATOM     13  C   UNL     1      34.494 -23.416 -16.051  0.00  0.00    +0.018 C 
ATOM     14  C   UNL     1      33.103 -23.402 -15.953  0.00  0.00    +0.057 C 
BRANCH  14  15
ATOM     15  N   UNL     1      32.489 -23.765 -14.768  0.00  0.00    -0.246 N 
ATOM     16  N   UNL     1      32.207 -24.682 -12.756  0.00  0.00    -0.224 NA
ATOM     17  C   UNL     1      31.213 -23.451 -14.378  0.00  0.00    +0.092 C 
ATOM     18  C   UNL     1      33.043 -24.507 -13.754  0.00  0.00    +0.172 C 
ATOM     19  C   UNL     1      31.064 -24.025 -13.138  0.00  0.00    +0.117 C 
ENDBRANCH  14  15
ENDBRANCH   8   9
ENDBRANCH   2   8
BRANCH   1  20
ATOM     20  C   UNL     1      35.246 -18.474 -22.415  0.00  0.00    -0.050 C 
BRANCH  20  23
ATOM     21  O   UNL     1      34.097 -14.044 -24.268  0.00  0.00    -0.435 OA
ATOM     22  O   UNL     1      33.744 -13.093 -22.083  0.00  0.00    -0.435 OA
ATOM     23  C   UNL     1      34.842 -17.029 -22.289  0.00  0.00    -0.040 C 
ATOM     24  C   UNL     1      34.676 -16.266 -23.439  0.00  0.00    +0.034 C 
ATOM     25  C   UNL     1      34.639 -16.486 -21.014  0.00  0.00    -0.003 C 
ATOM     26  C   UNL     1      34.304 -14.948 -23.272  0.00  0.00    +0.176 C 
ATOM     27  C   UNL     1      34.263 -15.149 -20.873  0.00  0.00    +0.040 C 
ATOM     28  C   UNL     1      34.104 -14.404 -22.024  0.00  0.00    +0.176 C 
ATOM     29  C   UNL     1      33.740 -12.871 -23.507  0.00  0.00    +0.429 C 
ENDBRANCH  20  23
ENDBRANCH   1  20
TORSDOF 5
ENDMDL
MODEL 7
REMARK VINA RESULT:      -9.9      4.164      7.739
REMARK  Name = 11740318
REMARK  5 active torsions:
REMARK  status: ('A' for Active; 'I' for Inactive)
REMARK    1  A    between atoms: N_1  and  C_20
REMARK    2  A    between atoms: C_2  and  O_8
REMARK    3  A    between atoms: O_8  and  C_9
REMARK    4  A    between atoms: C_14  and  N_15
REMARK    5  A    between atoms: C_20  and  C_23
REMARK                            x       y       z     vdW  Elec       q    Type
REMARK                         _______ _______ _______ _____ _____    ______ ____
ROOT
ATOM      1  N   UNL     1      35.715 -19.778 -21.177  0.00  0.00    +0.392 N 
ATOM      2  C   UNL     1      35.084 -17.603 -22.178  0.00  0.00    +0.145 C 
ATOM      3  C   UNL     1      36.117 -18.377 -21.352  0.00  0.00    -0.032 C 
ATOM      4  C   UNL     1      34.841 -18.276 -23.525  0.00  0.00    +0.039 C 
ATOM      5  C   UNL     1      34.501 -19.747 -23.334  0.00  0.00    -0.019 C 
ATOM      6  C   UNL     1      35.553 -20.451 -22.473  0.00  0.00    -0.077 C 
ATOM      7  H   UNL     1      34.812 -19.788 -20.703  0.00  0.00    -0.079 HD
ENDROOT
BRANCH   2   8
ATOM      8  O   UNL     1      35.549 -16.278 -22.410  0.00  0.00    -0.481 OA
BRANCH   8   9
ATOM      9  C   UNL     1      34.692 -15.259 -22.091  0.00  0.00    +0.138 C 
ATOM     10  C   UNL     1      34.108 -15.220 -20.829  0.00  0.00    +0.038 C 
ATOM     11  C   UNL     1      34.413 -14.273 -23.031  0.00  0.00    +0.038 C 
ATOM     12  C   UNL     1      33.234 -14.181 -20.504  0.00  0.00    +0.018 C 
ATOM     13  C   UNL     1      33.540 -13.235 -22.706  0.00  0.00    +0.018 C 
ATOM     14  C   UNL     1      32.951 -13.189 -21.442  0.00  0.00    +0.057 C 
BRANCH  14  15
ATOM     15  N   UNL     1      32.086 -12.160 -21.119  0.00  0.00    -0.246 N 
ATOM     16  N   UNL     1      30.918 -10.271 -21.318  0.00  0.00    -0.224 NA
ATOM     17  C   UNL     1      31.369 -12.027 -19.957  0.00  0.00    +0.092 C 
ATOM     18  C   UNL     1      31.777 -11.076 -21.903  0.00  0.00    +0.172 C 
ATOM     19  C   UNL     1      30.660 -10.859 -20.104  0.00  0.00    +0.117 C 
ENDBRANCH  14  15
ENDBRANCH   8   9
ENDBRANCH   2   8
BRANCH   1  20
ATOM     20  C   UNL     1      36.688 -20.489 -20.348  0.00  0.00    -0.050 C 
BRANCH  20  23
ATOM     21  O   UNL     1      32.793 -22.772 -18.347  0.00  0.00    -0.435 OA
ATOM     22  O   UNL     1      34.079 -23.573 -16.474  0.00  0.00    -0.435 OA
ATOM     23  C   UNL     1      36.018 -21.322 -19.287  0.00  0.00    -0.040 C 
ATOM     24  C   UNL     1      34.664 -21.616 -19.407  0.00  0.00    +0.034 C 
ATOM     25  C   UNL     1      36.774 -21.783 -18.203  0.00  0.00    -0.003 C 
ATOM     26  C   UNL     1      34.096 -22.382 -18.411  0.00  0.00    +0.176 C 
ATOM     27  C   UNL     1      36.174 -22.557 -17.208  0.00  0.00    +0.040 C 
ATOM     28  C   UNL     1      34.830 -22.839 -17.340  0.00  0.00    +0.176 C 
ATOM     29  C   UNL     1      32.790 -23.527 -17.119  0.00  0.00    +0.429 C 
ENDBRANCH  20  23
ENDBRANCH   1  20
TORSDOF 5
ENDMDL
MODEL 8
REMARK VINA RESULT:      -9.8      8.244     14.455
REMARK  Name = 11740318
REMARK  5 active torsions:
REMARK  status: ('A' for Active; 'I' for Inactive)
REMARK    1  A    between atoms: N_1  and  C_20
REMARK    2  A    between atoms: C_2  and  O_8
REMARK    3  A    between atoms: O_8  and  C_9
REMARK    4  A    between atoms: C_14  and  N_15
REMARK    5  A    between atoms: C_20  and  C_23
REMARK                            x       y       z     vdW  Elec       q    Type
REMARK                         _______ _______ _______ _____ _____    ______ ____
ROOT
ATOM      1  N   UNL     1      32.969 -11.258 -22.355  0.00  0.00    +0.392 N 
ATOM      2  C   UNL     1      34.002 -13.153 -23.567  0.00  0.00    +0.145 C 
ATOM      3  C   UNL     1      32.759 -12.626 -22.845  0.00  0.00    -0.032 C 
ATOM      4  C   UNL     1      34.416 -12.222 -24.703  0.00  0.00    +0.039 C 
ATOM      5  C   UNL     1      34.554 -10.793 -24.198  0.00  0.00    -0.019 C 
ATOM      6  C   UNL     1      33.294 -10.342 -23.457  0.00  0.00    -0.077 C 
ATOM      7  H   UNL     1      33.763 -11.272 -21.715  0.00  0.00    -0.079 HD
ENDROOT
BRANCH   2   8
ATOM      8  O   UNL     1      33.733 -14.440 -24.112  0.00  0.00    -0.481 OA
BRANCH   8   9
ATOM      9  C   UNL     1      34.200 -15.517 -23.408  0.00  0.00    +0.138 C 
ATOM     10  C   UNL     1      34.628 -16.652 -24.088  0.00  0.00    +0.038 C 
ATOM     11  C   UNL     1      34.244 -15.467 -22.018  0.00  0.00    +0.038 C 
ATOM     12  C   UNL     1      35.105 -17.751 -23.371  0.00  0.00    +0.018 C 
ATOM     13  C   UNL     1      34.720 -16.564 -21.301  0.00  0.00    +0.018 C 
ATOM     14  C   UNL     1      35.151 -17.706 -21.978  0.00  0.00    +0.057 C 
BRANCH  14  15
ATOM     15  N   UNL     1      35.624 -18.793 -21.266  0.00  0.00    -0.246 N 
ATOM     16  N   UNL     1      37.036 -20.101 -20.141  0.00  0.00    -0.224 NA
ATOM     17  C   UNL     1      34.912 -19.910 -20.909  0.00  0.00    +0.092 C 
ATOM     18  C   UNL     1      36.897 -18.961 -20.779  0.00  0.00    +0.172 C 
ATOM     19  C   UNL     1      35.802 -20.698 -20.219  0.00  0.00    +0.117 C 
ENDBRANCH  14  15
ENDBRANCH   8   9
ENDBRANCH   2   8
BRANCH   1  20
ATOM     20  C   UNL     1      31.791 -10.787 -21.628  0.00  0.00    -0.050 C 
BRANCH  20  23
ATOM     21  O   UNL     1      30.643  -6.233 -23.153  0.00  0.00    -0.435 OA
ATOM     22  O   UNL     1      31.676  -5.206 -21.234  0.00  0.00    -0.435 OA
ATOM     23  C   UNL     1      31.778  -9.288 -21.490  0.00  0.00    -0.040 C 
ATOM     24  C   UNL     1      31.168  -8.519 -22.475  0.00  0.00    +0.034 C 
ATOM     25  C   UNL     1      32.381  -8.701 -20.371  0.00  0.00    -0.003 C 
ATOM     26  C   UNL     1      31.182  -7.150 -22.303  0.00  0.00    +0.176 C 
ATOM     27  C   UNL     1      32.380  -7.312 -20.222  0.00  0.00    +0.040 C 
ATOM     28  C   UNL     1      31.772  -6.563 -21.208  0.00  0.00    +0.176 C 
ATOM     29  C   UNL     1      30.958  -5.004 -22.468  0.00  0.00    +0.429 C 
ENDBRANCH  20  23
ENDBRANCH   1  20
TORSDOF 5
ENDMDL
MODEL 9
REMARK VINA RESULT:      -9.6      2.786      5.590
REMARK  Name = 11740318
REMARK  5 active torsions:
REMARK  status: ('A' for Active; 'I' for Inactive)
REMARK    1  A    between atoms: N_1  and  C_20
REMARK    2  A    between atoms: C_2  and  O_8
REMARK    3  A    between atoms: O_8  and  C_9
REMARK    4  A    between atoms: C_14  and  N_15
REMARK    5  A    between atoms: C_20  and  C_23
REMARK                            x       y       z     vdW  Elec       q    Type
REMARK                         _______ _______ _______ _____ _____    ______ ____
ROOT
ATOM      1  N   UNL     1      33.934 -24.033 -14.692  0.00  0.00    +0.392 N 
ATOM      2  C   UNL     1      34.223 -23.842 -17.143  0.00  0.00    +0.145 C 
ATOM      3  C   UNL     1      33.234 -23.905 -15.976  0.00  0.00    -0.032 C 
ATOM      4  C   UNL     1      35.228 -22.710 -16.952  0.00  0.00    +0.039 C 
ATOM      5  C   UNL     1      35.891 -22.809 -15.585  0.00  0.00    -0.019 C 
ATOM      6  C   UNL     1      34.848 -22.905 -14.470  0.00  0.00    -0.077 C 
ATOM      7  H   UNL     1      34.491 -24.887 -14.723  0.00  0.00    -0.079 HD
ENDROOT
BRANCH   2   8
ATOM      8  O   UNL     1      33.518 -23.621 -18.360  0.00  0.00    -0.481 OA
BRANCH   8   9
ATOM      9  C   UNL     1      33.873 -22.515 -19.085  0.00  0.00    +0.138 C 
ATOM     10  C   UNL     1      35.186 -22.366 -19.516  0.00  0.00    +0.038 C 
ATOM     11  C   UNL     1      32.916 -21.551 -19.385  0.00  0.00    +0.038 C 
ATOM     12  C   UNL     1      35.548 -21.238 -20.256  0.00  0.00    +0.018 C 
ATOM     13  C   UNL     1      33.277 -20.425 -20.124  0.00  0.00    +0.018 C 
ATOM     14  C   UNL     1      34.593 -20.269 -20.559  0.00  0.00    +0.057 C 
BRANCH  14  15
ATOM     15  N   UNL     1      34.951 -19.152 -21.293  0.00  0.00    -0.246 N 
ATOM     16  N   UNL     1      35.199 -17.007 -21.847  0.00  0.00    -0.224 NA
ATOM     17  C   UNL     1      35.583 -19.141 -22.510  0.00  0.00    +0.092 C 
ATOM     18  C   UNL     1      34.743 -17.841 -20.940  0.00  0.00    +0.172 C 
ATOM     19  C   UNL     1      35.725 -17.811 -22.828  0.00  0.00    +0.117 C 
ENDBRANCH  14  15
ENDBRANCH   8   9
ENDBRANCH   2   8
BRANCH   1  20
ATOM     20  C   UNL     1      32.974 -24.140 -13.593  0.00  0.00    -0.050 C 
BRANCH  20  23
ATOM     21  O   UNL     1      28.805 -22.248 -15.442  0.00  0.00    -0.435 OA
ATOM     22  O   UNL     1      27.711 -24.394 -15.478  0.00  0.00    -0.435 OA
ATOM     23  C   UNL     1      31.558 -24.245 -14.094  0.00  0.00    -0.040 C 
ATOM     24  C   UNL     1      30.904 -23.098 -14.530  0.00  0.00    +0.034 C 
ATOM     25  C   UNL     1      30.932 -25.497 -14.111  0.00  0.00    -0.003 C 
ATOM     26  C   UNL     1      29.608 -23.245 -14.980  0.00  0.00    +0.176 C 
ATOM     27  C   UNL     1      29.619 -25.618 -14.572  0.00  0.00    +0.040 C 
ATOM     28  C   UNL     1      28.983 -24.471 -15.000  0.00  0.00    +0.176 C 
ATOM     29  C   UNL     1      27.605 -22.984 -15.757  0.00  0.00    +0.429 C 
ENDBRANCH  20  23
ENDBRANCH   1  20
TORSDOF 5
ENDMDL
