MODEL 1
REMARK VINA RESULT:     -11.2      0.000      0.000
REMARK  Name = 44814409
REMARK  5 active torsions:
REMARK  status: ('A' for Active; 'I' for Inactive)
REMARK    1  A    between atoms: N_2  and  C_22
REMARK    2  A    between atoms: C_3  and  C_7
REMARK    3  A    between atoms: C_9  and  C_14
REMARK    4  A    between atoms: C_21  and  C_26
REMARK    5  A    between atoms: C_29  and  N_33
REMARK                            x       y       z     vdW  Elec       q    Type
REMARK                         _______ _______ _______ _____ _____    ______ ____
ROOT
ATOM      1  O   UNL     1      32.675 -22.305 -19.484  0.00  0.00    -0.267 OA
ATOM      2  N   UNL     1      33.823 -22.497 -17.440  0.00  0.00    -0.278 N 
ATOM      3  C   UNL     1      33.667 -22.131 -18.784  0.00  0.00    +0.275 C 
ATOM      4  H   UNL     1      34.691 -22.278 -17.031  0.00  0.00    +0.155 HD
ENDROOT
BRANCH   3   7
ATOM      5  F   UNL     1      37.912 -19.444 -21.151  0.00  0.00    -0.202 F 
ATOM      6  N   UNL     1      34.536 -20.523 -20.347  0.00  0.00    -0.399 NA
ATOM      7  C   UNL     1      34.831 -21.434 -19.393  0.00  0.00    +0.167 C 
ATOM      8  C   UNL     1      36.119 -21.733 -18.977  0.00  0.00    +0.092 C 
ATOM      9  C   UNL     1      35.585 -19.881 -20.908  0.00  0.00    +0.162 C 
ATOM     10  C   UNL     1      37.171 -21.052 -19.579  0.00  0.00    +0.014 C 
ATOM     11  C   UNL     1      36.908 -20.107 -20.563  0.00  0.00    +0.166 C 
BRANCH   9  14
ATOM     12  F   UNL     1      35.081 -20.630 -23.563  0.00  0.00    -0.204 F 
ATOM     13  F   UNL     1      35.363 -17.144 -20.340  0.00  0.00    -0.204 F 
ATOM     14  C   UNL     1      35.232 -18.915 -21.922  0.00  0.00    +0.087 C 
ATOM     15  C   UNL     1      34.991 -19.333 -23.230  0.00  0.00    +0.145 C 
ATOM     16  C   UNL     1      35.133 -17.563 -21.593  0.00  0.00    +0.145 C 
ATOM     17  C   UNL     1      34.649 -18.400 -24.209  0.00  0.00    +0.030 C 
ATOM     18  C   UNL     1      34.792 -16.629 -22.571  0.00  0.00    +0.030 C 
ATOM     19  C   UNL     1      34.551 -17.048 -23.880  0.00  0.00    +0.005 C 
ENDBRANCH   9  14
ENDBRANCH   3   7
BRANCH   2  22
ATOM     20  N   UNL     1      30.581 -23.615 -16.119  0.00  0.00    -0.241 NA
ATOM     21  C   UNL     1      33.297 -23.889 -15.513  0.00  0.00    -0.006 C 
ATOM     22  C   UNL     1      32.899 -23.134 -16.611  0.00  0.00    +0.066 C 
ATOM     23  C   UNL     1      32.338 -24.506 -14.717  0.00  0.00    +0.018 C 
ATOM     24  C   UNL     1      31.542 -23.030 -16.869  0.00  0.00    +0.113 C 
ATOM     25  C   UNL     1      31.006 -24.340 -15.060  0.00  0.00    +0.099 C 
BRANCH  21  26
ATOM     26  C   UNL     1      34.742 -24.052 -15.167  0.00  0.00    +0.022 C 
ATOM     27  C   UNL     1      36.599 -25.751 -14.811  0.00  0.00    -0.002 C 
ATOM     28  C   UNL     1      35.134 -25.541 -15.221  0.00  0.00    +0.004 C 
ATOM     29  C   UNL     1      36.488 -23.667 -13.370  0.00  0.00    -0.065 C 
ATOM     30  C   UNL     1      35.023 -23.458 -13.775  0.00  0.00    -0.017 C 
ATOM     31  C   UNL     1      36.871 -25.151 -13.424  0.00  0.00    -0.022 C 
ATOM     32  C   UNL     1      36.954 -27.238 -14.834  0.00  0.00    -0.000 C 
BRANCH  29  33
ATOM     33  N   UNL     1      36.707 -23.147 -12.022  0.00  0.00    +0.382 N 
ATOM     34  H   UNL     1      36.971 -23.912 -11.400  0.00  0.00    -0.089 HD
ATOM     35  H   UNL     1      35.849 -22.714 -11.680  0.00  0.00    -0.089 HD
ATOM     36  H   UNL     1      37.454 -22.453 -12.042  0.00  0.00    -0.089 HD
ENDBRANCH  29  33
ENDBRANCH  21  26
ENDBRANCH   2  22
TORSDOF 5
ENDMDL
MODEL 2
REMARK VINA RESULT:     -10.4      4.439     10.879
REMARK  Name = 44814409
REMARK  5 active torsions:
REMARK  status: ('A' for Active; 'I' for Inactive)
REMARK    1  A    between atoms: N_2  and  C_22
REMARK    2  A    between atoms: C_3  and  C_7
REMARK    3  A    between atoms: C_9  and  C_14
REMARK    4  A    between atoms: C_21  and  C_26
REMARK    5  A    between atoms: C_29  and  N_33
REMARK                            x       y       z     vdW  Elec       q    Type
REMARK                         _______ _______ _______ _____ _____    ______ ____
ROOT
ATOM      1  O   UNL     1      34.815 -15.363 -19.993  0.00  0.00    -0.267 OA
ATOM      2  N   UNL     1      33.179 -14.994 -21.642  0.00  0.00    -0.278 N 
ATOM      3  C   UNL     1      34.203 -15.704 -21.000  0.00  0.00    +0.275 C 
ATOM      4  H   UNL     1      32.795 -15.420 -22.443  0.00  0.00    +0.155 HD
ENDROOT
BRANCH   3   7
ATOM      5  F   UNL     1      35.457 -20.679 -23.126  0.00  0.00    -0.202 F 
ATOM      6  N   UNL     1      34.515 -18.078 -20.769  0.00  0.00    -0.399 NA
ATOM      7  C   UNL     1      34.545 -17.017 -21.607  0.00  0.00    +0.167 C 
ATOM      8  C   UNL     1      34.869 -17.100 -22.953  0.00  0.00    +0.092 C 
ATOM      9  C   UNL     1      34.823 -19.278 -21.309  0.00  0.00    +0.162 C 
ATOM     10  C   UNL     1      35.180 -18.353 -23.470  0.00  0.00    +0.014 C 
ATOM     11  C   UNL     1      35.159 -19.468 -22.640  0.00  0.00    +0.166 C 
BRANCH   9  14
ATOM     12  F   UNL     1      32.407 -20.466 -20.526  0.00  0.00    -0.204 F 
ATOM     13  F   UNL     1      37.150 -20.372 -20.190  0.00  0.00    -0.204 F 
ATOM     14  C   UNL     1      34.780 -20.387 -20.385  0.00  0.00    +0.087 C 
ATOM     15  C   UNL     1      33.554 -20.946 -20.024  0.00  0.00    +0.145 C 
ATOM     16  C   UNL     1      35.964 -20.899 -19.854  0.00  0.00    +0.145 C 
ATOM     17  C   UNL     1      33.513 -22.018 -19.131  0.00  0.00    +0.030 C 
ATOM     18  C   UNL     1      35.923 -21.970 -18.961  0.00  0.00    +0.030 C 
ATOM     19  C   UNL     1      34.697 -22.529 -18.599  0.00  0.00    +0.005 C 
ENDBRANCH   9  14
ENDBRANCH   3   7
BRANCH   2  22
ATOM     20  N   UNL     1      31.278 -12.492 -19.738  0.00  0.00    -0.241 NA
ATOM     21  C   UNL     1      32.867 -12.613 -22.034  0.00  0.00    -0.006 C 
ATOM     22  C   UNL     1      32.635 -13.760 -21.285  0.00  0.00    +0.066 C 
ATOM     23  C   UNL     1      32.305 -11.404 -21.637  0.00  0.00    +0.018 C 
ATOM     24  C   UNL     1      31.842 -13.648 -20.155  0.00  0.00    +0.113 C 
ATOM     25  C   UNL     1      31.526 -11.397 -20.492  0.00  0.00    +0.099 C 
BRANCH  21  26
ATOM     26  C   UNL     1      33.714 -12.649 -23.266  0.00  0.00    +0.022 C 
ATOM     27  C   UNL     1      35.026 -11.222 -24.911  0.00  0.00    -0.002 C 
ATOM     28  C   UNL     1      34.203 -11.231 -23.614  0.00  0.00    +0.004 C 
ATOM     29  C   UNL     1      33.747 -13.254 -25.728  0.00  0.00    -0.065 C 
ATOM     30  C   UNL     1      32.920 -13.261 -24.435  0.00  0.00    -0.017 C 
ATOM     31  C   UNL     1      34.229 -11.840 -26.069  0.00  0.00    -0.022 C 
ATOM     32  C   UNL     1      35.467  -9.800 -25.257  0.00  0.00    -0.000 C 
BRANCH  29  33
ATOM     33  N   UNL     1      32.946 -13.784 -26.830  0.00  0.00    +0.382 N 
ATOM     34  H   UNL     1      32.986 -13.141 -27.620  0.00  0.00    -0.089 HD
ATOM     35  H   UNL     1      31.977 -13.889 -26.526  0.00  0.00    -0.089 HD
ATOM     36  H   UNL     1      33.314 -14.693 -27.111  0.00  0.00    -0.089 HD
ENDBRANCH  29  33
ENDBRANCH  21  26
ENDBRANCH   2  22
TORSDOF 5
ENDMDL
MODEL 3
REMARK VINA RESULT:     -10.4      4.500     10.505
REMARK  Name = 44814409
REMARK  5 active torsions:
REMARK  status: ('A' for Active; 'I' for Inactive)
REMARK    1  A    between atoms: N_2  and  C_22
REMARK    2  A    between atoms: C_3  and  C_7
REMARK    3  A    between atoms: C_9  and  C_14
REMARK    4  A    between atoms: C_21  and  C_26
REMARK    5  A    between atoms: C_29  and  N_33
REMARK                            x       y       z     vdW  Elec       q    Type
REMARK                         _______ _______ _______ _____ _____    ______ ____
ROOT
ATOM      1  O   UNL     1      34.818 -14.960 -19.907  0.00  0.00    -0.267 OA
ATOM      2  N   UNL     1      33.041 -14.630 -21.411  0.00  0.00    -0.278 N 
ATOM      3  C   UNL     1      34.161 -15.291 -20.888  0.00  0.00    +0.275 C 
ATOM      4  H   UNL     1      32.632 -15.038 -22.208  0.00  0.00    +0.155 HD
ENDROOT
BRANCH   3   7
ATOM      5  F   UNL     1      35.622 -20.020 -23.406  0.00  0.00    -0.202 F 
ATOM      6  N   UNL     1      34.629 -17.649 -20.837  0.00  0.00    -0.399 NA
ATOM      7  C   UNL     1      34.556 -16.535 -21.599  0.00  0.00    +0.167 C 
ATOM      8  C   UNL     1      34.823 -16.506 -22.959  0.00  0.00    +0.092 C 
ATOM      9  C   UNL     1      34.985 -18.788 -21.472  0.00  0.00    +0.162 C 
ATOM     10  C   UNL     1      35.187 -17.698 -23.575  0.00  0.00    +0.014 C 
ATOM     11  C   UNL     1      35.272 -18.866 -22.825  0.00  0.00    +0.166 C 
BRANCH   9  14
ATOM     12  F   UNL     1      37.424 -19.807 -20.534  0.00  0.00    -0.204 F 
ATOM     13  F   UNL     1      32.683 -20.176 -20.670  0.00  0.00    -0.204 F 
ATOM     14  C   UNL     1      35.052 -19.958 -20.626  0.00  0.00    +0.087 C 
ATOM     15  C   UNL     1      36.287 -20.429 -20.184  0.00  0.00    +0.145 C 
ATOM     16  C   UNL     1      33.879 -20.615 -20.253  0.00  0.00    +0.145 C 
ATOM     17  C   UNL     1      36.351 -21.558 -19.367  0.00  0.00    +0.030 C 
ATOM     18  C   UNL     1      33.943 -21.745 -19.436  0.00  0.00    +0.030 C 
ATOM     19  C   UNL     1      35.179 -22.216 -18.994  0.00  0.00    +0.005 C 
ENDBRANCH   9  14
ENDBRANCH   3   7
BRANCH   2  22
ATOM     20  N   UNL     1      31.515 -12.252 -19.061  0.00  0.00    -0.241 NA
ATOM     21  C   UNL     1      32.142 -12.398 -21.782  0.00  0.00    -0.006 C 
ATOM     22  C   UNL     1      32.433 -13.466 -20.940  0.00  0.00    +0.066 C 
ATOM     23  C   UNL     1      31.538 -11.258 -21.265  0.00  0.00    +0.018 C 
ATOM     24  C   UNL     1      32.104 -13.344 -19.600  0.00  0.00    +0.113 C 
ATOM     25  C   UNL     1      31.248 -11.235 -19.910  0.00  0.00    +0.099 C 
BRANCH  21  26
ATOM     26  C   UNL     1      32.467 -12.450 -23.240  0.00  0.00    +0.022 C 
ATOM     27  C   UNL     1      33.035 -14.000 -25.174  0.00  0.00    -0.002 C 
ATOM     28  C   UNL     1      32.640 -13.912 -23.692  0.00  0.00    +0.004 C 
ATOM     29  C   UNL     1      34.129 -11.717 -25.009  0.00  0.00    -0.065 C 
ATOM     30  C   UNL     1      33.739 -11.631 -23.528  0.00  0.00    -0.017 C 
ATOM     31  C   UNL     1      34.301 -13.175 -25.452  0.00  0.00    -0.022 C 
ATOM     32  C   UNL     1      33.239 -15.456 -25.590  0.00  0.00    -0.000 C 
BRANCH  29  33
ATOM     33  N   UNL     1      35.371 -10.980 -25.237  0.00  0.00    +0.382 N 
ATOM     34  H   UNL     1      35.954 -11.492 -25.898  0.00  0.00    -0.089 HD
ATOM     35  H   UNL     1      35.871 -10.875 -24.354  0.00  0.00    -0.089 HD
ATOM     36  H   UNL     1      35.155 -10.059 -25.617  0.00  0.00    -0.089 HD
ENDBRANCH  29  33
ENDBRANCH  21  26
ENDBRANCH   2  22
TORSDOF 5
ENDMDL
MODEL 4
REMARK VINA RESULT:     -10.4      1.207      2.241
REMARK  Name = 44814409
REMARK  5 active torsions:
REMARK  status: ('A' for Active; 'I' for Inactive)
REMARK    1  A    between atoms: N_2  and  C_22
REMARK    2  A    between atoms: C_3  and  C_7
REMARK    3  A    between atoms: C_9  and  C_14
REMARK    4  A    between atoms: C_21  and  C_26
REMARK    5  A    between atoms: C_29  and  N_33
REMARK                            x       y       z     vdW  Elec       q    Type
REMARK                         _______ _______ _______ _____ _____    ______ ____
ROOT
ATOM      1  O   UNL     1      32.699 -22.260 -19.462  0.00  0.00    -0.267 OA
ATOM      2  N   UNL     1      33.888 -22.455 -17.442  0.00  0.00    -0.278 N 
ATOM      3  C   UNL     1      33.707 -22.091 -18.784  0.00  0.00    +0.275 C 
ATOM      4  H   UNL     1      34.766 -22.242 -17.052  0.00  0.00    +0.155 HD
ENDROOT
BRANCH   3   7
ATOM      5  F   UNL     1      37.926 -19.449 -21.245  0.00  0.00    -0.202 F 
ATOM      6  N   UNL     1      34.557 -20.465 -20.338  0.00  0.00    -0.399 NA
ATOM      7  C   UNL     1      34.864 -21.408 -19.420  0.00  0.00    +0.167 C 
ATOM      8  C   UNL     1      36.159 -21.750 -19.062  0.00  0.00    +0.092 C 
ATOM      9  C   UNL     1      35.599 -19.835 -20.924  0.00  0.00    +0.162 C 
ATOM     10  C   UNL     1      37.204 -21.079 -19.687  0.00  0.00    +0.014 C 
ATOM     11  C   UNL     1      36.928 -20.102 -20.636  0.00  0.00    +0.166 C 
BRANCH   9  14
ATOM     12  F   UNL     1      35.352 -17.124 -20.249  0.00  0.00    -0.204 F 
ATOM     13  F   UNL     1      35.092 -20.486 -23.604  0.00  0.00    -0.204 F 
ATOM     14  C   UNL     1      35.233 -18.834 -21.899  0.00  0.00    +0.087 C 
ATOM     15  C   UNL     1      35.122 -17.497 -21.517  0.00  0.00    +0.145 C 
ATOM     16  C   UNL     1      34.990 -19.205 -23.221  0.00  0.00    +0.145 C 
ATOM     17  C   UNL     1      34.768 -16.531 -22.459  0.00  0.00    +0.030 C 
ATOM     18  C   UNL     1      34.636 -18.239 -24.163  0.00  0.00    +0.030 C 
ATOM     19  C   UNL     1      34.525 -16.902 -23.781  0.00  0.00    +0.005 C 
ENDBRANCH   9  14
ENDBRANCH   3   7
BRANCH   2  22
ATOM     20  N   UNL     1      30.687 -23.736 -16.171  0.00  0.00    -0.241 NA
ATOM     21  C   UNL     1      33.369 -23.651 -15.387  0.00  0.00    -0.006 C 
ATOM     22  C   UNL     1      32.976 -23.079 -16.591  0.00  0.00    +0.066 C 
ATOM     23  C   UNL     1      32.423 -24.265 -14.573  0.00  0.00    +0.018 C 
ATOM     24  C   UNL     1      31.636 -23.149 -16.935  0.00  0.00    +0.113 C 
ATOM     25  C   UNL     1      31.107 -24.281 -15.007  0.00  0.00    +0.099 C 
BRANCH  21  26
ATOM     26  C   UNL     1      34.797 -23.620 -14.944  0.00  0.00    +0.022 C 
ATOM     27  C   UNL     1      37.048 -22.499 -15.314  0.00  0.00    -0.002 C 
ATOM     28  C   UNL     1      35.562 -22.519 -15.700  0.00  0.00    +0.004 C 
ATOM     29  C   UNL     1      36.933 -24.975 -14.776  0.00  0.00    -0.065 C 
ATOM     30  C   UNL     1      35.449 -24.997 -15.166  0.00  0.00    -0.017 C 
ATOM     31  C   UNL     1      37.689 -23.878 -15.533  0.00  0.00    -0.022 C 
ATOM     32  C   UNL     1      37.795 -21.426 -16.105  0.00  0.00    -0.000 C 
BRANCH  29  33
ATOM     33  N   UNL     1      37.536 -26.277 -15.055  0.00  0.00    +0.382 N 
ATOM     34  H   UNL     1      38.546 -26.170 -15.151  0.00  0.00    -0.089 HD
ATOM     35  H   UNL     1      37.151 -26.652 -15.922  0.00  0.00    -0.089 HD
ATOM     36  H   UNL     1      37.334 -26.917 -14.288  0.00  0.00    -0.089 HD
ENDBRANCH  29  33
ENDBRANCH  21  26
ENDBRANCH   2  22
TORSDOF 5
ENDMDL
MODEL 5
REMARK VINA RESULT:     -10.3      4.322      8.427
REMARK  Name = 44814409
REMARK  5 active torsions:
REMARK  status: ('A' for Active; 'I' for Inactive)
REMARK    1  A    between atoms: N_2  and  C_22
REMARK    2  A    between atoms: C_3  and  C_7
REMARK    3  A    between atoms: C_9  and  C_14
REMARK    4  A    between atoms: C_21  and  C_26
REMARK    5  A    between atoms: C_29  and  N_33
REMARK                            x       y       z     vdW  Elec       q    Type
REMARK                         _______ _______ _______ _____ _____    ______ ____
ROOT
ATOM      1  O   UNL     1      37.818 -21.325 -16.497  0.00  0.00    -0.267 OA
ATOM      2  N   UNL     1      36.294 -22.968 -17.211  0.00  0.00    -0.278 N 
ATOM      3  C   UNL     1      37.356 -22.461 -16.450  0.00  0.00    +0.275 C 
ATOM      4  H   UNL     1      36.053 -23.908 -17.041  0.00  0.00    +0.155 HD
ENDROOT
BRANCH   3   7
ATOM      5  F   UNL     1      39.457 -25.970 -12.694  0.00  0.00    -0.202 F 
ATOM      6  N   UNL     1      37.308 -23.510 -14.287  0.00  0.00    -0.399 NA
ATOM      7  C   UNL     1      37.950 -23.410 -15.472  0.00  0.00    +0.167 C 
ATOM      8  C   UNL     1      39.092 -24.125 -15.799  0.00  0.00    +0.092 C 
ATOM      9  C   UNL     1      37.837 -24.371 -13.389  0.00  0.00    +0.162 C 
ATOM     10  C   UNL     1      39.605 -24.999 -14.848  0.00  0.00    +0.014 C 
ATOM     11  C   UNL     1      38.972 -25.131 -13.618  0.00  0.00    +0.166 C 
BRANCH   9  14
ATOM     12  F   UNL     1      36.283 -26.603 -12.705  0.00  0.00    -0.204 F 
ATOM     13  F   UNL     1      37.924 -22.306 -11.493  0.00  0.00    -0.204 F 
ATOM     14  C   UNL     1      37.124 -24.452 -12.135  0.00  0.00    +0.087 C 
ATOM     15  C   UNL     1      36.364 -25.582 -11.838  0.00  0.00    +0.145 C 
ATOM     16  C   UNL     1      37.198 -23.400 -11.222  0.00  0.00    +0.145 C 
ATOM     17  C   UNL     1      35.676 -25.661 -10.626  0.00  0.00    +0.030 C 
ATOM     18  C   UNL     1      36.510 -23.478 -10.010  0.00  0.00    +0.030 C 
ATOM     19  C   UNL     1      35.748 -24.609  -9.714  0.00  0.00    +0.005 C 
ENDBRANCH   9  14
ENDBRANCH   3   7
BRANCH   2  22
ATOM     20  N   UNL     1      35.500 -20.839 -20.098  0.00  0.00    -0.241 NA
ATOM     21  C   UNL     1      34.151 -22.418 -18.226  0.00  0.00    -0.006 C 
ATOM     22  C   UNL     1      35.536 -22.307 -18.177  0.00  0.00    +0.066 C 
ATOM     23  C   UNL     1      33.439 -21.741 -19.210  0.00  0.00    +0.018 C 
ATOM     24  C   UNL     1      36.157 -21.513 -19.127  0.00  0.00    +0.113 C 
ATOM     25  C   UNL     1      34.154 -20.972 -20.114  0.00  0.00    +0.099 C 
BRANCH  21  26
ATOM     26  C   UNL     1      33.406 -23.256 -17.238  0.00  0.00    +0.022 C 
ATOM     27  C   UNL     1      31.154 -23.604 -16.111  0.00  0.00    -0.002 C 
ATOM     28  C   UNL     1      31.935 -22.803 -17.162  0.00  0.00    +0.004 C 
ATOM     29  C   UNL     1      33.299 -23.974 -14.809  0.00  0.00    -0.065 C 
ATOM     30  C   UNL     1      34.080 -23.171 -15.856  0.00  0.00    -0.017 C 
ATOM     31  C   UNL     1      31.837 -23.518 -14.738  0.00  0.00    -0.022 C 
ATOM     32  C   UNL     1      29.709 -23.111 -16.026  0.00  0.00    -0.000 C 
BRANCH  29  33
ATOM     33  N   UNL     1      33.929 -23.824 -13.499  0.00  0.00    +0.382 N 
ATOM     34  H   UNL     1      33.347 -23.232 -12.906  0.00  0.00    -0.089 HD
ATOM     35  H   UNL     1      34.848 -23.393 -13.611  0.00  0.00    -0.089 HD
ATOM     36  H   UNL     1      34.034 -24.741 -13.064  0.00  0.00    -0.089 HD
ENDBRANCH  29  33
ENDBRANCH  21  26
ENDBRANCH   2  22
TORSDOF 5
ENDMDL
MODEL 6
REMARK VINA RESULT:      -8.9      7.859     12.532
REMARK  Name = 44814409
REMARK  5 active torsions:
REMARK  status: ('A' for Active; 'I' for Inactive)
REMARK    1  A    between atoms: N_2  and  C_22
REMARK    2  A    between atoms: C_3  and  C_7
REMARK    3  A    between atoms: C_9  and  C_14
REMARK    4  A    between atoms: C_21  and  C_26
REMARK    5  A    between atoms: C_29  and  N_33
REMARK                            x       y       z     vdW  Elec       q    Type
REMARK                         _______ _______ _______ _____ _____    ______ ____
ROOT
ATOM      1  O   UNL     1      35.352 -10.477 -24.044  0.00  0.00    -0.267 OA
ATOM      2  N   UNL     1      33.096 -10.246 -23.418  0.00  0.00    -0.278 N 
ATOM      3  C   UNL     1      34.208 -10.912 -23.951  0.00  0.00    +0.275 C 
ATOM      4  H   UNL     1      32.250 -10.749 -23.422  0.00  0.00    +0.155 HD
ENDROOT
BRANCH   3   7
ATOM      5  F   UNL     1      33.321 -16.151 -25.567  0.00  0.00    -0.202 F 
ATOM      6  N   UNL     1      34.317 -13.284 -23.568  0.00  0.00    -0.399 NA
ATOM      7  C   UNL     1      33.955 -12.300 -24.421  0.00  0.00    +0.167 C 
ATOM      8  C   UNL     1      33.382 -12.522 -25.663  0.00  0.00    +0.092 C 
ATOM      9  C   UNL     1      34.091 -14.551 -23.982  0.00  0.00    +0.162 C 
ATOM     10  C   UNL     1      33.166 -13.839 -26.053  0.00  0.00    +0.014 C 
ATOM     11  C   UNL     1      33.524 -14.878 -25.203  0.00  0.00    +0.166 C 
BRANCH   9  14
ATOM     12  F   UNL     1      33.698 -14.271 -21.219  0.00  0.00    -0.204 F 
ATOM     13  F   UNL     1      35.304 -16.937 -24.816  0.00  0.00    -0.204 F 
ATOM     14  C   UNL     1      34.489 -15.575 -23.045  0.00  0.00    +0.087 C 
ATOM     15  C   UNL     1      34.274 -15.392 -21.679  0.00  0.00    +0.145 C 
ATOM     16  C   UNL     1      35.089 -16.747 -23.506  0.00  0.00    +0.145 C 
ATOM     17  C   UNL     1      34.658 -16.382 -20.774  0.00  0.00    +0.030 C 
ATOM     18  C   UNL     1      35.474 -17.737 -22.601  0.00  0.00    +0.030 C 
ATOM     19  C   UNL     1      35.259 -17.553 -21.235  0.00  0.00    +0.005 C 
ENDBRANCH   9  14
ENDBRANCH   3   7
BRANCH   2  22
ATOM     20  N   UNL     1      33.710  -6.642 -23.053  0.00  0.00    -0.241 NA
ATOM     21  C   UNL     1      32.320  -8.675 -21.729  0.00  0.00    -0.006 C 
ATOM     22  C   UNL     1      33.041  -8.959 -22.883  0.00  0.00    +0.066 C 
ATOM     23  C   UNL     1      32.293  -7.375 -21.235  0.00  0.00    +0.018 C 
ATOM     24  C   UNL     1      33.712  -7.917 -23.502  0.00  0.00    +0.113 C 
ATOM     25  C   UNL     1      32.998  -6.404 -21.928  0.00  0.00    +0.099 C 
BRANCH  21  26
ATOM     26  C   UNL     1      31.568  -9.743 -21.002  0.00  0.00    +0.022 C 
ATOM     27  C   UNL     1      31.228 -10.853 -18.741  0.00  0.00    -0.002 C 
ATOM     28  C   UNL     1      31.937  -9.727 -19.508  0.00  0.00    +0.004 C 
ATOM     29  C   UNL     1      31.150 -12.240 -20.863  0.00  0.00    -0.065 C 
ATOM     30  C   UNL     1      31.863 -11.118 -21.629  0.00  0.00    -0.017 C 
ATOM     31  C   UNL     1      31.524 -12.219 -19.376  0.00  0.00    -0.022 C 
ATOM     32  C   UNL     1      31.640 -10.842 -17.269  0.00  0.00    -0.000 C 
BRANCH  29  33
ATOM     33  N   UNL     1      31.499 -13.535 -21.444  0.00  0.00    +0.382 N 
ATOM     34  H   UNL     1      31.504 -14.246 -20.713  0.00  0.00    -0.089 HD
ATOM     35  H   UNL     1      32.425 -13.478 -21.870  0.00  0.00    -0.089 HD
ATOM     36  H   UNL     1      30.812 -13.784 -22.156  0.00  0.00    -0.089 HD
ENDBRANCH  29  33
ENDBRANCH  21  26
ENDBRANCH   2  22
TORSDOF 5
ENDMDL
MODEL 7
REMARK VINA RESULT:      -8.9      8.179     12.265
REMARK  Name = 44814409
REMARK  5 active torsions:
REMARK  status: ('A' for Active; 'I' for Inactive)
REMARK    1  A    between atoms: N_2  and  C_22
REMARK    2  A    between atoms: C_3  and  C_7
REMARK    3  A    between atoms: C_9  and  C_14
REMARK    4  A    between atoms: C_21  and  C_26
REMARK    5  A    between atoms: C_29  and  N_33
REMARK                            x       y       z     vdW  Elec       q    Type
REMARK                         _______ _______ _______ _____ _____    ______ ____
ROOT
ATOM      1  O   UNL     1      31.229 -13.873 -21.018  0.00  0.00    -0.267 OA
ATOM      2  N   UNL     1      33.544 -13.651 -20.668  0.00  0.00    -0.278 N 
ATOM      3  C   UNL     1      32.207 -13.231 -20.649  0.00  0.00    +0.275 C 
ATOM      4  H   UNL     1      34.205 -13.002 -20.331  0.00  0.00    +0.155 HD
ENDROOT
BRANCH   3   7
ATOM      5  F   UNL     1      31.365  -8.091 -18.722  0.00  0.00    -0.202 F 
ATOM      6  N   UNL     1      32.112 -10.849 -20.967  0.00  0.00    -0.399 NA
ATOM      7  C   UNL     1      31.974 -11.871 -20.094  0.00  0.00    +0.167 C 
ATOM      8  C   UNL     1      31.639 -11.712 -18.758  0.00  0.00    +0.092 C 
ATOM      9  C   UNL     1      31.901  -9.608 -20.476  0.00  0.00    +0.162 C 
ATOM     10  C   UNL     1      31.431 -10.419 -18.291  0.00  0.00    +0.014 C 
ATOM     11  C   UNL     1      31.562  -9.341 -19.160  0.00  0.00    +0.166 C 
BRANCH   9  14
ATOM     12  F   UNL     1      30.273  -9.411 -22.751  0.00  0.00    -0.204 F 
ATOM     13  F   UNL     1      33.847  -7.610 -20.180  0.00  0.00    -0.204 F 
ATOM     14  C   UNL     1      32.056  -8.541 -21.438  0.00  0.00    +0.087 C 
ATOM     15  C   UNL     1      31.223  -8.483 -22.555  0.00  0.00    +0.145 C 
ATOM     16  C   UNL     1      33.038  -7.568 -21.249  0.00  0.00    +0.145 C 
ATOM     17  C   UNL     1      31.372  -7.453 -23.484  0.00  0.00    +0.030 C 
ATOM     18  C   UNL     1      33.188  -6.538 -22.177  0.00  0.00    +0.030 C 
ATOM     19  C   UNL     1      32.355  -6.481 -23.295  0.00  0.00    +0.005 C 
ENDBRANCH   9  14
ENDBRANCH   3   7
BRANCH   2  22
ATOM     20  N   UNL     1      35.027 -17.009 -20.524  0.00  0.00    -0.241 NA
ATOM     21  C   UNL     1      34.113 -15.204 -22.453  0.00  0.00    -0.006 C 
ATOM     22  C   UNL     1      34.055 -14.873 -21.104  0.00  0.00    +0.066 C 
ATOM     23  C   UNL     1      34.629 -16.437 -22.839  0.00  0.00    +0.018 C 
ATOM     24  C   UNL     1      34.519 -15.802 -20.187  0.00  0.00    +0.113 C 
ATOM     25  C   UNL     1      35.068 -17.296 -21.844  0.00  0.00    +0.099 C 
BRANCH  21  26
ATOM     26  C   UNL     1      33.631 -14.258 -23.505  0.00  0.00    +0.022 C 
ATOM     27  C   UNL     1      33.320 -13.939 -26.008  0.00  0.00    -0.002 C 
ATOM     28  C   UNL     1      33.750 -14.908 -24.896  0.00  0.00    +0.004 C 
ATOM     29  C   UNL     1      33.995 -11.977 -24.550  0.00  0.00    -0.065 C 
ATOM     30  C   UNL     1      34.430 -12.944 -23.440  0.00  0.00    -0.017 C 
ATOM     31  C   UNL     1      34.118 -12.629 -25.932  0.00  0.00    -0.022 C 
ATOM     32  C   UNL     1      33.484 -14.591 -27.381  0.00  0.00    -0.000 C 
BRANCH  29  33
ATOM     33  N   UNL     1      34.812 -10.766 -24.499  0.00  0.00    +0.382 N 
ATOM     34  H   UNL     1      34.576 -10.162 -25.286  0.00  0.00    -0.089 HD
ATOM     35  H   UNL     1      35.799 -11.019 -24.549  0.00  0.00    -0.089 HD
ATOM     36  H   UNL     1      34.632 -10.271 -23.626  0.00  0.00    -0.089 HD
ENDBRANCH  29  33
ENDBRANCH  21  26
ENDBRANCH   2  22
TORSDOF 5
ENDMDL
MODEL 8
REMARK VINA RESULT:      -8.9      8.180     12.329
REMARK  Name = 44814409
REMARK  5 active torsions:
REMARK  status: ('A' for Active; 'I' for Inactive)
REMARK    1  A    between atoms: N_2  and  C_22
REMARK    2  A    between atoms: C_3  and  C_7
REMARK    3  A    between atoms: C_9  and  C_14
REMARK    4  A    between atoms: C_21  and  C_26
REMARK    5  A    between atoms: C_29  and  N_33
REMARK                            x       y       z     vdW  Elec       q    Type
REMARK                         _______ _______ _______ _____ _____    ______ ____
ROOT
ATOM      1  O   UNL     1      31.232 -13.857 -21.034  0.00  0.00    -0.267 OA
ATOM      2  N   UNL     1      33.546 -13.645 -20.671  0.00  0.00    -0.278 N 
ATOM      3  C   UNL     1      32.211 -13.219 -20.660  0.00  0.00    +0.275 C 
ATOM      4  H   UNL     1      34.208 -12.999 -20.330  0.00  0.00    +0.155 HD
ENDROOT
BRANCH   3   7
ATOM      5  F   UNL     1      31.377  -8.076 -18.738  0.00  0.00    -0.202 F 
ATOM      6  N   UNL     1      32.116 -10.838 -20.981  0.00  0.00    -0.399 NA
ATOM      7  C   UNL     1      31.980 -11.859 -20.106  0.00  0.00    +0.167 C 
ATOM      8  C   UNL     1      31.649 -11.697 -18.770  0.00  0.00    +0.092 C 
ATOM      9  C   UNL     1      31.908  -9.596 -20.491  0.00  0.00    +0.162 C 
ATOM     10  C   UNL     1      31.443 -10.403 -18.304  0.00  0.00    +0.014 C 
ATOM     11  C   UNL     1      31.573  -9.327 -19.174  0.00  0.00    +0.166 C 
BRANCH   9  14
ATOM     12  F   UNL     1      33.869  -7.611 -20.213  0.00  0.00    -0.204 F 
ATOM     13  F   UNL     1      30.261  -9.388 -22.751  0.00  0.00    -0.204 F 
ATOM     14  C   UNL     1      32.061  -8.530 -21.455  0.00  0.00    +0.087 C 
ATOM     15  C   UNL     1      33.050  -7.565 -21.275  0.00  0.00    +0.145 C 
ATOM     16  C   UNL     1      31.218  -8.468 -22.565  0.00  0.00    +0.145 C 
ATOM     17  C   UNL     1      33.198  -6.536 -22.207  0.00  0.00    +0.030 C 
ATOM     18  C   UNL     1      31.365  -7.440 -23.496  0.00  0.00    +0.030 C 
ATOM     19  C   UNL     1      32.355  -6.473 -23.316  0.00  0.00    +0.005 C 
ENDBRANCH   9  14
ENDBRANCH   3   7
BRANCH   2  22
ATOM     20  N   UNL     1      35.021 -17.007 -20.519  0.00  0.00    -0.241 NA
ATOM     21  C   UNL     1      34.113 -15.203 -22.453  0.00  0.00    -0.006 C 
ATOM     22  C   UNL     1      34.054 -14.869 -21.105  0.00  0.00    +0.066 C 
ATOM     23  C   UNL     1      34.626 -16.438 -22.836  0.00  0.00    +0.018 C 
ATOM     24  C   UNL     1      34.516 -15.797 -20.186  0.00  0.00    +0.113 C 
ATOM     25  C   UNL     1      35.062 -17.296 -21.839  0.00  0.00    +0.099 C 
BRANCH  21  26
ATOM     26  C   UNL     1      33.633 -14.258 -23.507  0.00  0.00    +0.022 C 
ATOM     27  C   UNL     1      33.336 -13.939 -26.012  0.00  0.00    -0.002 C 
ATOM     28  C   UNL     1      33.764 -14.906 -24.898  0.00  0.00    +0.004 C 
ATOM     29  C   UNL     1      33.995 -11.975 -24.548  0.00  0.00    -0.065 C 
ATOM     30  C   UNL     1      34.426 -12.941 -23.437  0.00  0.00    -0.017 C 
ATOM     31  C   UNL     1      34.128 -12.626 -25.930  0.00  0.00    -0.022 C 
ATOM     32  C   UNL     1      33.511 -14.589 -27.384  0.00  0.00    -0.000 C 
BRANCH  29  33
ATOM     33  N   UNL     1      34.807 -10.761 -24.491  0.00  0.00    +0.382 N 
ATOM     34  H   UNL     1      35.459 -10.750 -25.275  0.00  0.00    -0.089 HD
ATOM     35  H   UNL     1      35.329 -10.741 -23.615  0.00  0.00    -0.089 HD
ATOM     36  H   UNL     1      34.200  -9.943 -24.543  0.00  0.00    -0.089 HD
ENDBRANCH  29  33
ENDBRANCH  21  26
ENDBRANCH   2  22
TORSDOF 5
ENDMDL
MODEL 9
REMARK VINA RESULT:      -8.7      4.101      9.764
REMARK  Name = 44814409
REMARK  5 active torsions:
REMARK  status: ('A' for Active; 'I' for Inactive)
REMARK    1  A    between atoms: N_2  and  C_22
REMARK    2  A    between atoms: C_3  and  C_7
REMARK    3  A    between atoms: C_9  and  C_14
REMARK    4  A    between atoms: C_21  and  C_26
REMARK    5  A    between atoms: C_29  and  N_33
REMARK                            x       y       z     vdW  Elec       q    Type
REMARK                         _______ _______ _______ _____ _____    ______ ____
ROOT
ATOM      1  O   UNL     1      34.321 -18.691 -24.322  0.00  0.00    -0.267 OA
ATOM      2  N   UNL     1      34.803 -16.551 -23.475  0.00  0.00    -0.278 N 
ATOM      3  C   UNL     1      34.820 -17.952 -23.480  0.00  0.00    +0.275 C 
ATOM      4  H   UNL     1      35.256 -16.116 -22.717  0.00  0.00    +0.155 HD
ENDROOT
BRANCH   3   7
ATOM      5  F   UNL     1      37.409 -20.403 -19.222  0.00  0.00    -0.202 F 
ATOM      6  N   UNL     1      34.853 -19.505 -21.644  0.00  0.00    -0.399 NA
ATOM      7  C   UNL     1      35.548 -18.584 -22.348  0.00  0.00    +0.167 C 
ATOM      8  C   UNL     1      36.856 -18.220 -22.070  0.00  0.00    +0.092 C 
ATOM      9  C   UNL     1      35.503 -20.089 -20.613  0.00  0.00    +0.162 C 
ATOM     10  C   UNL     1      37.491 -18.842 -21.001  0.00  0.00    +0.014 C 
ATOM     11  C   UNL     1      36.809 -19.796 -20.253  0.00  0.00    +0.166 C 
BRANCH   9  14
ATOM     12  F   UNL     1      32.776 -19.724 -20.070  0.00  0.00    -0.204 F 
ATOM     13  F   UNL     1      36.640 -22.467 -19.655  0.00  0.00    -0.204 F 
ATOM     14  C   UNL     1      34.730 -21.068 -19.884  0.00  0.00    +0.087 C 
ATOM     15  C   UNL     1      33.376 -20.843 -19.637  0.00  0.00    +0.145 C 
ATOM     16  C   UNL     1      35.339 -22.237 -19.428  0.00  0.00    +0.145 C 
ATOM     17  C   UNL     1      32.630 -21.789 -18.934  0.00  0.00    +0.030 C 
ATOM     18  C   UNL     1      34.593 -23.183 -18.724  0.00  0.00    +0.030 C 
ATOM     19  C   UNL     1      33.238 -22.958 -18.477  0.00  0.00    +0.005 C 
ENDBRANCH   9  14
ENDBRANCH   3   7
BRANCH   2  22
ATOM     20  N   UNL     1      33.681 -15.265 -26.729  0.00  0.00    -0.241 NA
ATOM     21  C   UNL     1      33.633 -14.493 -24.043  0.00  0.00    -0.006 C 
ATOM     22  C   UNL     1      34.223 -15.696 -24.413  0.00  0.00    +0.066 C 
ATOM     23  C   UNL     1      33.066 -13.675 -25.014  0.00  0.00    +0.018 C 
ATOM     24  C   UNL     1      34.221 -16.034 -25.756  0.00  0.00    +0.113 C 
ATOM     25  C   UNL     1      33.116 -14.103 -26.331  0.00  0.00    +0.099 C 
BRANCH  21  26
ATOM     26  C   UNL     1      33.592 -14.057 -22.613  0.00  0.00    +0.022 C 
ATOM     27  C   UNL     1      32.826 -14.707 -20.278  0.00  0.00    -0.002 C 
ATOM     28  C   UNL     1      32.939 -15.148 -21.745  0.00  0.00    +0.004 C 
ATOM     29  C   UNL     1      32.723 -12.285 -21.023  0.00  0.00    -0.065 C 
ATOM     30  C   UNL     1      32.831 -12.725 -22.488  0.00  0.00    -0.017 C 
ATOM     31  C   UNL     1      32.071 -13.375 -20.164  0.00  0.00    -0.022 C 
ATOM     32  C   UNL     1      32.140 -15.789 -19.444  0.00  0.00    -0.000 C 
BRANCH  29  33
ATOM     33  N   UNL     1      31.944 -11.051 -20.932  0.00  0.00    +0.382 N 
ATOM     34  H   UNL     1      31.334 -11.092 -20.116  0.00  0.00    -0.089 HD
ATOM     35  H   UNL     1      31.378 -10.944 -21.775  0.00  0.00    -0.089 HD
ATOM     36  H   UNL     1      32.576 -10.255 -20.845  0.00  0.00    -0.089 HD
ENDBRANCH  29  33
ENDBRANCH  21  26
ENDBRANCH   2  22
TORSDOF 5
ENDMDL
