MODEL 1
REMARK VINA RESULT:     -11.1      0.000      0.000
REMARK  Name = 25134248
REMARK  7 active torsions:
REMARK  status: ('A' for Active; 'I' for Inactive)
REMARK    1  A    between atoms: N_2  and  C_20
REMARK    2  A    between atoms: C_3  and  C_7
REMARK    3  A    between atoms: C_11  and  C_12
REMARK    4  A    between atoms: C_12  and  C_13
REMARK    5  A    between atoms: C_13  and  C_14
REMARK    6  A    between atoms: C_20  and  C_21
REMARK    7  A    between atoms: C_26  and  C_29
REMARK                            x       y       z     vdW  Elec       q    Type
REMARK                         _______ _______ _______ _____ _____    ______ ____
ROOT
ATOM      1  O   UNL     1      35.085 -23.996 -12.930  0.00  0.00    -0.273 OA
ATOM      2  N   UNL     1      33.577 -25.415 -13.992  0.00  0.00    -0.299 N 
ATOM      3  C   UNL     1      34.802 -24.795 -13.818  0.00  0.00    +0.241 C 
ATOM      4  H   UNL     1      33.470 -26.040 -14.746  0.00  0.00    +0.150 HD
ENDROOT
BRANCH   3   7
ATOM      5  O   UNL     1      37.153 -22.162 -16.364  0.00  0.00    -0.275 OA
ATOM      6  N   UNL     1      36.643 -24.072 -15.169  0.00  0.00    -0.273 N 
ATOM      7  C   UNL     1      35.806 -25.224 -14.846  0.00  0.00    +0.152 C 
ATOM      8  C   UNL     1      36.775 -26.247 -14.258  0.00  0.00    +0.031 C 
ATOM      9  C   UNL     1      37.967 -24.203 -14.575  0.00  0.00    +0.094 C 
ATOM     10  C   UNL     1      37.860 -25.382 -13.622  0.00  0.00    +0.024 C 
ATOM     11  C   UNL     1      36.346 -23.033 -16.036  0.00  0.00    +0.226 C 
BRANCH  11  12
ATOM     12  C   UNL     1      34.941 -23.007 -16.584  0.00  0.00    +0.085 C 
BRANCH  12  13
ATOM     13  C   UNL     1      34.961 -23.117 -18.100  0.00  0.00    +0.010 C 
BRANCH  13  14
ATOM     14  C   UNL     1      34.709 -21.780 -18.794  0.00  0.00    +0.000 C 
ATOM     15  C   UNL     1      35.819 -21.479 -19.810  0.00  0.00    +0.000 C 
ATOM     16  C   UNL     1      33.332 -21.773 -19.472  0.00  0.00    +0.000 C 
ATOM     17  C   UNL     1      35.561 -20.172 -20.556  0.00  0.00    +0.000 C 
ATOM     18  C   UNL     1      33.079 -20.466 -20.219  0.00  0.00    +0.000 C 
ATOM     19  C   UNL     1      34.189 -20.165 -21.221  0.00  0.00    +0.000 C 
ENDBRANCH  13  14
ENDBRANCH  12  13
ENDBRANCH  11  12
ENDBRANCH   3   7
BRANCH   2  20
ATOM     20  C   UNL     1      32.446 -25.191 -13.120  0.00  0.00    +0.116 C 
BRANCH  20  21
ATOM     21  C   UNL     1      31.237 -24.723 -13.877  0.00  0.00    -0.003 C 
ATOM     22  C   UNL     1      30.171 -25.596 -14.095  0.00  0.00    -0.003 C 
ATOM     23  C   UNL     1      31.177 -23.416 -14.360  0.00  0.00    -0.003 C 
ATOM     24  C   UNL     1      29.046 -25.162 -14.797  0.00  0.00    +0.002 C 
ATOM     25  C   UNL     1      30.053 -22.982 -15.062  0.00  0.00    +0.002 C 
ATOM     26  C   UNL     1      28.987 -23.855 -15.280  0.00  0.00    +0.031 C 
BRANCH  26  29
ATOM     27  N   UNL     1      26.860 -22.580 -15.414  0.00  0.00    -0.343 N 
ATOM     28  N   UNL     1      27.637 -23.775 -17.266  0.00  0.00    -0.285 NA
ATOM     29  C   UNL     1      27.814 -23.402 -16.011  0.00  0.00    +0.117 C 
ATOM     30  H   UNL     1      26.074 -22.286 -15.927  0.00  0.00    +0.144 HD
ATOM     31  H   UNL     1      26.973 -22.295 -14.479  0.00  0.00    +0.144 HD
ATOM     32  H   UNL     1      26.844 -23.469 -17.763  0.00  0.00    +0.188 HD
ENDBRANCH  26  29
ENDBRANCH  20  21
ENDBRANCH   2  20
TORSDOF 7
ENDMDL
MODEL 2
REMARK VINA RESULT:     -10.8      2.719      6.552
REMARK  Name = 25134248
REMARK  7 active torsions:
REMARK  status: ('A' for Active; 'I' for Inactive)
REMARK    1  A    between atoms: N_2  and  C_20
REMARK    2  A    between atoms: C_3  and  C_7
REMARK    3  A    between atoms: C_11  and  C_12
REMARK    4  A    between atoms: C_12  and  C_13
REMARK    5  A    between atoms: C_13  and  C_14
REMARK    6  A    between atoms: C_20  and  C_21
REMARK    7  A    between atoms: C_26  and  C_29
REMARK                            x       y       z     vdW  Elec       q    Type
REMARK                         _______ _______ _______ _____ _____    ______ ____
ROOT
ATOM      1  O   UNL     1      35.006 -25.253 -15.640  0.00  0.00    -0.273 OA
ATOM      2  N   UNL     1      34.812 -23.090 -16.477  0.00  0.00    -0.299 N 
ATOM      3  C   UNL     1      35.149 -24.039 -15.527  0.00  0.00    +0.241 C 
ATOM      4  H   UNL     1      34.975 -22.140 -16.269  0.00  0.00    +0.150 HD
ENDROOT
BRANCH   3   7
ATOM      5  O   UNL     1      34.643 -25.442 -11.437  0.00  0.00    -0.275 OA
ATOM      6  N   UNL     1      35.684 -24.405 -13.221  0.00  0.00    -0.273 N 
ATOM      7  C   UNL     1      35.754 -23.424 -14.300  0.00  0.00    +0.152 C 
ATOM      8  C   UNL     1      37.247 -23.182 -14.499  0.00  0.00    +0.031 C 
ATOM      9  C   UNL     1      36.995 -24.979 -12.948  0.00  0.00    +0.094 C 
ATOM     10  C   UNL     1      37.879 -24.510 -14.093  0.00  0.00    +0.024 C 
ATOM     11  C   UNL     1      34.593 -24.697 -12.418  0.00  0.00    +0.226 C 
BRANCH  11  12
ATOM     12  C   UNL     1      33.291 -24.040 -12.803  0.00  0.00    +0.085 C 
BRANCH  12  13
ATOM     13  C   UNL     1      32.237 -25.091 -13.107  0.00  0.00    +0.010 C 
BRANCH  13  14
ATOM     14  C   UNL     1      31.451 -24.792 -14.382  0.00  0.00    +0.000 C 
ATOM     15  C   UNL     1      29.954 -25.052 -14.170  0.00  0.00    +0.000 C 
ATOM     16  C   UNL     1      31.694 -23.349 -14.843  0.00  0.00    +0.000 C 
ATOM     17  C   UNL     1      29.140 -24.709 -15.415  0.00  0.00    +0.000 C 
ATOM     18  C   UNL     1      30.878 -23.010 -16.087  0.00  0.00    +0.000 C 
ATOM     19  C   UNL     1      29.391 -23.278 -15.876  0.00  0.00    +0.000 C 
ENDBRANCH  13  14
ENDBRANCH  12  13
ENDBRANCH  11  12
ENDBRANCH   3   7
BRANCH   2  20
ATOM     20  C   UNL     1      34.234 -23.424 -17.758  0.00  0.00    +0.116 C 
BRANCH  20  21
ATOM     21  C   UNL     1      34.415 -22.322 -18.761  0.00  0.00    -0.003 C 
ATOM     22  C   UNL     1      35.697 -21.961 -19.177  0.00  0.00    -0.003 C 
ATOM     23  C   UNL     1      33.302 -21.660 -19.280  0.00  0.00    -0.003 C 
ATOM     24  C   UNL     1      35.866 -20.938 -20.109  0.00  0.00    +0.002 C 
ATOM     25  C   UNL     1      33.470 -20.637 -20.213  0.00  0.00    +0.002 C 
ATOM     26  C   UNL     1      34.752 -20.276 -20.628  0.00  0.00    +0.031 C 
BRANCH  26  29
ATOM     27  N   UNL     1      34.842 -19.456 -22.970  0.00  0.00    -0.343 N 
ATOM     28  N   UNL     1      35.180 -17.979 -21.191  0.00  0.00    -0.285 NA
ATOM     29  C   UNL     1      34.929 -19.210 -21.601  0.00  0.00    +0.117 C 
ATOM     30  H   UNL     1      34.965 -18.720 -23.611  0.00  0.00    +0.144 HD
ATOM     31  H   UNL     1      34.659 -20.367 -23.295  0.00  0.00    +0.144 HD
ATOM     32  H   UNL     1      35.299 -17.256 -21.848  0.00  0.00    +0.188 HD
ENDBRANCH  26  29
ENDBRANCH  20  21
ENDBRANCH   2  20
TORSDOF 7
ENDMDL
MODEL 3
REMARK VINA RESULT:     -10.2      8.593     12.476
REMARK  Name = 25134248
REMARK  7 active torsions:
REMARK  status: ('A' for Active; 'I' for Inactive)
REMARK    1  A    between atoms: N_2  and  C_20
REMARK    2  A    between atoms: C_3  and  C_7
REMARK    3  A    between atoms: C_11  and  C_12
REMARK    4  A    between atoms: C_12  and  C_13
REMARK    5  A    between atoms: C_13  and  C_14
REMARK    6  A    between atoms: C_20  and  C_21
REMARK    7  A    between atoms: C_26  and  C_29
REMARK                            x       y       z     vdW  Elec       q    Type
REMARK                         _______ _______ _______ _____ _____    ______ ____
ROOT
ATOM      1  O   UNL     1      33.608 -15.689 -21.175  0.00  0.00    -0.273 OA
ATOM      2  N   UNL     1      32.947 -13.705 -22.196  0.00  0.00    -0.299 N 
ATOM      3  C   UNL     1      33.690 -14.867 -22.084  0.00  0.00    +0.241 C 
ATOM      4  H   UNL     1      33.103 -13.122 -22.975  0.00  0.00    +0.150 HD
ENDROOT
BRANCH   3   7
ATOM      5  O   UNL     1      34.565 -18.622 -24.104  0.00  0.00    -0.275 OA
ATOM      6  N   UNL     1      34.330 -16.336 -23.863  0.00  0.00    -0.273 N 
ATOM      7  C   UNL     1      34.631 -15.053 -23.236  0.00  0.00    +0.152 C 
ATOM      8  C   UNL     1      34.357 -14.021 -24.326  0.00  0.00    +0.031 C 
ATOM      9  C   UNL     1      33.638 -16.150 -25.132  0.00  0.00    +0.094 C 
ATOM     10  C   UNL     1      33.266 -14.676 -25.168  0.00  0.00    +0.024 C 
ATOM     11  C   UNL     1      34.744 -17.593 -23.450  0.00  0.00    +0.226 C 
BRANCH  11  12
ATOM     12  C   UNL     1      35.450 -17.654 -22.120  0.00  0.00    +0.085 C 
BRANCH  12  13
ATOM     13  C   UNL     1      35.986 -19.054 -21.867  0.00  0.00    +0.010 C 
BRANCH  13  14
ATOM     14  C   UNL     1      35.328 -19.734 -20.669  0.00  0.00    +0.000 C 
ATOM     15  C   UNL     1      33.891 -20.155 -21.007  0.00  0.00    +0.000 C 
ATOM     16  C   UNL     1      36.156 -20.940 -20.207  0.00  0.00    +0.000 C 
ATOM     17  C   UNL     1      33.229 -20.886 -19.841  0.00  0.00    +0.000 C 
ATOM     18  C   UNL     1      35.491 -21.669 -19.043  0.00  0.00    +0.000 C 
ATOM     19  C   UNL     1      34.060 -22.078 -19.379  0.00  0.00    +0.000 C 
ENDBRANCH  13  14
ENDBRANCH  12  13
ENDBRANCH  11  12
ENDBRANCH   3   7
BRANCH   2  20
ATOM     20  C   UNL     1      31.951 -13.306 -21.228  0.00  0.00    +0.116 C 
BRANCH  20  21
ATOM     21  C   UNL     1      32.008 -11.834 -20.937  0.00  0.00    -0.003 C 
ATOM     22  C   UNL     1      31.883 -11.377 -19.624  0.00  0.00    -0.003 C 
ATOM     23  C   UNL     1      32.189 -10.923 -21.977  0.00  0.00    -0.003 C 
ATOM     24  C   UNL     1      31.937 -10.010 -19.353  0.00  0.00    +0.002 C 
ATOM     25  C   UNL     1      32.242  -9.556 -21.707  0.00  0.00    +0.002 C 
ATOM     26  C   UNL     1      32.117  -9.099 -20.394  0.00  0.00    +0.031 C 
BRANCH  26  29
ATOM     27  N   UNL     1      31.324  -6.773 -20.749  0.00  0.00    -0.343 N 
ATOM     28  N   UNL     1      33.048  -7.211 -19.235  0.00  0.00    -0.285 NA
ATOM     29  C   UNL     1      32.174  -7.674 -20.111  0.00  0.00    +0.117 C 
ATOM     30  H   UNL     1      31.380  -5.813 -20.542  0.00  0.00    +0.144 HD
ATOM     31  H   UNL     1      30.668  -7.098 -21.408  0.00  0.00    +0.144 HD
ATOM     32  H   UNL     1      33.089  -6.247 -19.041  0.00  0.00    +0.188 HD
ENDBRANCH  26  29
ENDBRANCH  20  21
ENDBRANCH   2  20
TORSDOF 7
ENDMDL
MODEL 4
REMARK VINA RESULT:      -9.6      9.951     13.951
REMARK  Name = 25134248
REMARK  7 active torsions:
REMARK  status: ('A' for Active; 'I' for Inactive)
REMARK    1  A    between atoms: N_2  and  C_20
REMARK    2  A    between atoms: C_3  and  C_7
REMARK    3  A    between atoms: C_11  and  C_12
REMARK    4  A    between atoms: C_12  and  C_13
REMARK    5  A    between atoms: C_13  and  C_14
REMARK    6  A    between atoms: C_20  and  C_21
REMARK    7  A    between atoms: C_26  and  C_29
REMARK                            x       y       z     vdW  Elec       q    Type
REMARK                         _______ _______ _______ _____ _____    ______ ____
ROOT
ATOM      1  O   UNL     1      32.498 -14.437 -22.480  0.00  0.00    -0.273 OA
ATOM      2  N   UNL     1      32.953 -12.154 -22.510  0.00  0.00    -0.299 N 
ATOM      3  C   UNL     1      33.124 -13.470 -22.905  0.00  0.00    +0.241 C 
ATOM      4  H   UNL     1      33.518 -11.463 -22.926  0.00  0.00    +0.150 HD
ENDROOT
BRANCH   3   7
ATOM      5  O   UNL     1      34.062 -17.099 -25.119  0.00  0.00    -0.275 OA
ATOM      6  N   UNL     1      33.892 -14.829 -24.722  0.00  0.00    -0.273 N 
ATOM      7  C   UNL     1      34.175 -13.612 -23.965  0.00  0.00    +0.152 C 
ATOM      8  C   UNL     1      34.060 -12.489 -24.992  0.00  0.00    +0.031 C 
ATOM      9  C   UNL     1      33.347 -14.515 -26.036  0.00  0.00    +0.094 C 
ATOM     10  C   UNL     1      33.039 -13.027 -25.992  0.00  0.00    +0.024 C 
ATOM     11  C   UNL     1      34.210 -16.131 -24.371  0.00  0.00    +0.226 C 
BRANCH  11  12
ATOM     12  C   UNL     1      34.768 -16.327 -22.983  0.00  0.00    +0.085 C 
BRANCH  12  13
ATOM     13  C   UNL     1      35.736 -17.498 -22.960  0.00  0.00    +0.010 C 
BRANCH  13  14
ATOM     14  C   UNL     1      35.625 -18.335 -21.688  0.00  0.00    +0.000 C 
ATOM     15  C   UNL     1      34.533 -19.402 -21.835  0.00  0.00    +0.000 C 
ATOM     16  C   UNL     1      36.974 -18.978 -21.342  0.00  0.00    +0.000 C 
ATOM     17  C   UNL     1      34.438 -20.287 -20.594  0.00  0.00    +0.000 C 
ATOM     18  C   UNL     1      36.876 -19.863 -20.102  0.00  0.00    +0.000 C 
ATOM     19  C   UNL     1      35.783 -20.917 -20.249  0.00  0.00    +0.000 C 
ENDBRANCH  13  14
ENDBRANCH  12  13
ENDBRANCH  11  12
ENDBRANCH   3   7
BRANCH   2  20
ATOM     20  C   UNL     1      31.984 -11.747 -21.518  0.00  0.00    +0.116 C 
BRANCH  20  21
ATOM     21  C   UNL     1      31.826 -10.254 -21.468  0.00  0.00    -0.003 C 
ATOM     22  C   UNL     1      31.965  -9.579 -20.255  0.00  0.00    -0.003 C 
ATOM     23  C   UNL     1      31.543  -9.542 -22.633  0.00  0.00    -0.003 C 
ATOM     24  C   UNL     1      31.820  -8.193 -20.207  0.00  0.00    +0.002 C 
ATOM     25  C   UNL     1      31.397  -8.156 -22.585  0.00  0.00    +0.002 C 
ATOM     26  C   UNL     1      31.536  -7.481 -21.372  0.00  0.00    +0.031 C 
BRANCH  26  29
ATOM     27  N   UNL     1      30.206  -5.445 -20.873  0.00  0.00    -0.343 N 
ATOM     28  N   UNL     1      32.379  -5.256 -21.711  0.00  0.00    -0.285 NA
ATOM     29  C   UNL     1      31.385  -6.036 -21.322  0.00  0.00    +0.117 C 
ATOM     30  H   UNL     1      30.125  -4.464 -20.847  0.00  0.00    +0.144 HD
ATOM     31  H   UNL     1      29.453  -6.008 -20.582  0.00  0.00    +0.144 HD
ATOM     32  H   UNL     1      32.279  -4.277 -21.678  0.00  0.00    +0.188 HD
ENDBRANCH  26  29
ENDBRANCH  20  21
ENDBRANCH   2  20
TORSDOF 7
ENDMDL
MODEL 5
REMARK VINA RESULT:      -9.6      3.097      7.761
REMARK  Name = 25134248
REMARK  7 active torsions:
REMARK  status: ('A' for Active; 'I' for Inactive)
REMARK    1  A    between atoms: N_2  and  C_20
REMARK    2  A    between atoms: C_3  and  C_7
REMARK    3  A    between atoms: C_11  and  C_12
REMARK    4  A    between atoms: C_12  and  C_13
REMARK    5  A    between atoms: C_13  and  C_14
REMARK    6  A    between atoms: C_20  and  C_21
REMARK    7  A    between atoms: C_26  and  C_29
REMARK                            x       y       z     vdW  Elec       q    Type
REMARK                         _______ _______ _______ _____ _____    ______ ____
ROOT
ATOM      1  O   UNL     1      35.456 -22.396 -15.369  0.00  0.00    -0.273 OA
ATOM      2  N   UNL     1      35.637 -22.902 -17.633  0.00  0.00    -0.299 N 
ATOM      3  C   UNL     1      35.127 -23.050 -16.354  0.00  0.00    +0.241 C 
ATOM      4  H   UNL     1      35.292 -23.489 -18.346  0.00  0.00    +0.150 HD
ENDROOT
BRANCH   3   7
ATOM      5  O   UNL     1      33.517 -24.827 -12.722  0.00  0.00    -0.275 OA
ATOM      6  N   UNL     1      33.538 -24.129 -14.924  0.00  0.00    -0.273 N 
ATOM      7  C   UNL     1      34.073 -24.113 -16.283  0.00  0.00    +0.152 C 
ATOM      8  C   UNL     1      32.878 -23.747 -17.159  0.00  0.00    +0.031 C 
ATOM      9  C   UNL     1      32.207 -23.536 -14.878  0.00  0.00    +0.094 C 
ATOM     10  C   UNL     1      32.014 -22.888 -16.240  0.00  0.00    +0.024 C 
ATOM     11  C   UNL     1      34.089 -24.740 -13.810  0.00  0.00    +0.226 C 
BRANCH  11  12
ATOM     12  C   UNL     1      35.472 -25.316 -13.985  0.00  0.00    +0.085 C 
BRANCH  12  13
ATOM     13  C   UNL     1      36.380 -24.872 -12.851  0.00  0.00    +0.010 C 
BRANCH  13  14
ATOM     14  C   UNL     1      37.852 -24.823 -13.255  0.00  0.00    +0.000 C 
ATOM     15  C   UNL     1      38.557 -26.138 -12.896  0.00  0.00    +0.000 C 
ATOM     16  C   UNL     1      37.994 -24.519 -14.752  0.00  0.00    +0.000 C 
ATOM     17  C   UNL     1      40.018 -26.134 -13.338  0.00  0.00    +0.000 C 
ATOM     18  C   UNL     1      39.456 -24.517 -15.191  0.00  0.00    +0.000 C 
ATOM     19  C   UNL     1      40.155 -25.822 -14.824  0.00  0.00    +0.000 C 
ENDBRANCH  13  14
ENDBRANCH  12  13
ENDBRANCH  11  12
ENDBRANCH   3   7
BRANCH   2  20
ATOM     20  C   UNL     1      36.649 -21.928 -17.973  0.00  0.00    +0.116 C 
BRANCH  20  21
ATOM     21  C   UNL     1      36.276 -21.133 -19.191  0.00  0.00    -0.003 C 
ATOM     22  C   UNL     1      37.212 -20.282 -19.781  0.00  0.00    -0.003 C 
ATOM     23  C   UNL     1      34.997 -21.246 -19.735  0.00  0.00    -0.003 C 
ATOM     24  C   UNL     1      36.868 -19.544 -20.913  0.00  0.00    +0.002 C 
ATOM     25  C   UNL     1      34.652 -20.508 -20.867  0.00  0.00    +0.002 C 
ATOM     26  C   UNL     1      35.588 -19.657 -21.457  0.00  0.00    +0.031 C 
BRANCH  26  29
ATOM     27  N   UNL     1      35.664 -17.574 -22.807  0.00  0.00    -0.343 N 
ATOM     28  N   UNL     1      34.474 -19.434 -23.575  0.00  0.00    -0.285 NA
ATOM     29  C   UNL     1      35.230 -18.888 -22.638  0.00  0.00    +0.117 C 
ATOM     30  H   UNL     1      35.410 -17.073 -23.614  0.00  0.00    +0.144 HD
ATOM     31  H   UNL     1      36.225 -17.149 -22.118  0.00  0.00    +0.144 HD
ATOM     32  H   UNL     1      34.231 -18.915 -24.375  0.00  0.00    +0.188 HD
ENDBRANCH  26  29
ENDBRANCH  20  21
ENDBRANCH   2  20
TORSDOF 7
ENDMDL
MODEL 6
REMARK VINA RESULT:      -9.5      5.013      8.588
REMARK  Name = 25134248
REMARK  7 active torsions:
REMARK  status: ('A' for Active; 'I' for Inactive)
REMARK    1  A    between atoms: N_2  and  C_20
REMARK    2  A    between atoms: C_3  and  C_7
REMARK    3  A    between atoms: C_11  and  C_12
REMARK    4  A    between atoms: C_12  and  C_13
REMARK    5  A    between atoms: C_13  and  C_14
REMARK    6  A    between atoms: C_20  and  C_21
REMARK    7  A    between atoms: C_26  and  C_29
REMARK                            x       y       z     vdW  Elec       q    Type
REMARK                         _______ _______ _______ _____ _____    ______ ____
ROOT
ATOM      1  O   UNL     1      36.651 -18.414 -20.665  0.00  0.00    -0.273 OA
ATOM      2  N   UNL     1      35.673 -20.504 -20.363  0.00  0.00    -0.299 N 
ATOM      3  C   UNL     1      35.738 -19.212 -20.855  0.00  0.00    +0.241 C 
ATOM      4  H   UNL     1      34.884 -21.051 -20.585  0.00  0.00    +0.150 HD
ENDROOT
BRANCH   3   7
ATOM      5  O   UNL     1      35.164 -15.523 -23.094  0.00  0.00    -0.275 OA
ATOM      6  N   UNL     1      34.923 -17.762 -22.579  0.00  0.00    -0.273 N 
ATOM      7  C   UNL     1      34.547 -18.866 -21.699  0.00  0.00    +0.152 C 
ATOM      8  C   UNL     1      34.208 -20.012 -22.648  0.00  0.00    +0.031 C 
ATOM      9  C   UNL     1      35.108 -18.224 -23.949  0.00  0.00    +0.094 C 
ATOM     10  C   UNL     1      35.093 -19.741 -23.861  0.00  0.00    +0.024 C 
ATOM     11  C   UNL     1      34.969 -16.413 -22.265  0.00  0.00    +0.226 C 
BRANCH  11  12
ATOM     12  C   UNL     1      34.761 -16.063 -20.813  0.00  0.00    +0.085 C 
BRANCH  12  13
ATOM     13  C   UNL     1      33.313 -15.676 -20.562  0.00  0.00    +0.010 C 
BRANCH  13  14
ATOM     14  C   UNL     1      33.078 -14.170 -20.647  0.00  0.00    +0.000 C 
ATOM     15  C   UNL     1      32.582 -13.776 -22.044  0.00  0.00    +0.000 C 
ATOM     16  C   UNL     1      32.088 -13.714 -19.567  0.00  0.00    +0.000 C 
ATOM     17  C   UNL     1      32.288 -12.281 -22.138  0.00  0.00    +0.000 C 
ATOM     18  C   UNL     1      31.796 -12.219 -19.665  0.00  0.00    +0.000 C 
ATOM     19  C   UNL     1      31.311 -11.830 -21.058  0.00  0.00    +0.000 C 
ENDBRANCH  13  14
ENDBRANCH  12  13
ENDBRANCH  11  12
ENDBRANCH   3   7
BRANCH   2  20
ATOM     20  C   UNL     1      36.707 -21.089 -19.541  0.00  0.00    +0.116 C 
BRANCH  20  21
ATOM     21  C   UNL     1      36.138 -21.845 -18.375  0.00  0.00    -0.003 C 
ATOM     22  C   UNL     1      36.899 -22.018 -17.219  0.00  0.00    -0.003 C 
ATOM     23  C   UNL     1      34.849 -22.371 -18.446  0.00  0.00    -0.003 C 
ATOM     24  C   UNL     1      36.371 -22.718 -16.134  0.00  0.00    +0.002 C 
ATOM     25  C   UNL     1      34.320 -23.072 -17.362  0.00  0.00    +0.002 C 
ATOM     26  C   UNL     1      35.081 -23.245 -16.206  0.00  0.00    +0.031 C 
BRANCH  26  29
ATOM     27  N   UNL     1      33.548 -23.414 -14.259  0.00  0.00    -0.343 N 
ATOM     28  N   UNL     1      34.963 -25.193 -14.803  0.00  0.00    -0.285 NA
ATOM     29  C   UNL     1      34.530 -23.974 -15.075  0.00  0.00    +0.117 C 
ATOM     30  H   UNL     1      33.189 -23.925 -13.499  0.00  0.00    +0.144 HD
ATOM     31  H   UNL     1      33.216 -22.506 -14.443  0.00  0.00    +0.144 HD
ATOM     32  H   UNL     1      34.591 -25.688 -14.038  0.00  0.00    +0.188 HD
ENDBRANCH  26  29
ENDBRANCH  20  21
ENDBRANCH   2  20
TORSDOF 7
ENDMDL
MODEL 7
REMARK VINA RESULT:      -9.3     11.438     15.350
REMARK  Name = 25134248
REMARK  7 active torsions:
REMARK  status: ('A' for Active; 'I' for Inactive)
REMARK    1  A    between atoms: N_2  and  C_20
REMARK    2  A    between atoms: C_3  and  C_7
REMARK    3  A    between atoms: C_11  and  C_12
REMARK    4  A    between atoms: C_12  and  C_13
REMARK    5  A    between atoms: C_13  and  C_14
REMARK    6  A    between atoms: C_20  and  C_21
REMARK    7  A    between atoms: C_26  and  C_29
REMARK                            x       y       z     vdW  Elec       q    Type
REMARK                         _______ _______ _______ _____ _____    ______ ____
ROOT
ATOM      1  O   UNL     1      33.772 -11.749 -23.381  0.00  0.00    -0.273 OA
ATOM      2  N   UNL     1      32.572 -10.011 -22.401  0.00  0.00    -0.299 N 
ATOM      3  C   UNL     1      32.833 -11.336 -22.706  0.00  0.00    +0.241 C 
ATOM      4  H   UNL     1      31.784  -9.803 -21.849  0.00  0.00    +0.150 HD
ENDROOT
BRANCH   3   7
ATOM      5  O   UNL     1      33.735 -14.827 -20.267  0.00  0.00    -0.275 OA
ATOM      6  N   UNL     1      32.507 -13.031 -21.045  0.00  0.00    -0.273 N 
ATOM      7  C   UNL     1      31.831 -12.267 -22.090  0.00  0.00    +0.152 C 
ATOM      8  C   UNL     1      30.750 -11.483 -21.351  0.00  0.00    +0.031 C 
ATOM      9  C   UNL     1      32.116 -12.567 -19.720  0.00  0.00    +0.094 C 
ATOM     10  C   UNL     1      31.349 -11.277 -19.963  0.00  0.00    +0.024 C 
ATOM     11  C   UNL     1      33.305 -14.153 -21.205  0.00  0.00    +0.226 C 
BRANCH  11  12
ATOM     12  C   UNL     1      33.640 -14.532 -22.625  0.00  0.00    +0.085 C 
BRANCH  12  13
ATOM     13  C   UNL     1      34.870 -15.423 -22.661  0.00  0.00    +0.010 C 
BRANCH  13  14
ATOM     14  C   UNL     1      34.525 -16.910 -22.678  0.00  0.00    +0.000 C 
ATOM     15  C   UNL     1      34.768 -17.508 -24.070  0.00  0.00    +0.000 C 
ATOM     16  C   UNL     1      35.330 -17.665 -21.611  0.00  0.00    +0.000 C 
ATOM     17  C   UNL     1      34.482 -19.007 -24.098  0.00  0.00    +0.000 C 
ATOM     18  C   UNL     1      35.042 -19.164 -21.644  0.00  0.00    +0.000 C 
ATOM     19  C   UNL     1      35.276 -19.752 -23.031  0.00  0.00    +0.000 C 
ENDBRANCH  13  14
ENDBRANCH  12  13
ENDBRANCH  11  12
ENDBRANCH   3   7
BRANCH   2  20
ATOM     20  C   UNL     1      33.402  -8.919 -22.855  0.00  0.00    +0.116 C 
BRANCH  20  21
ATOM     21  C   UNL     1      32.653  -7.618 -22.881  0.00  0.00    -0.003 C 
ATOM     22  C   UNL     1      31.502  -7.460 -22.108  0.00  0.00    -0.003 C 
ATOM     23  C   UNL     1      33.108  -6.566 -23.675  0.00  0.00    -0.003 C 
ATOM     24  C   UNL     1      30.806  -6.252 -22.131  0.00  0.00    +0.002 C 
ATOM     25  C   UNL     1      32.413  -5.357 -23.699  0.00  0.00    +0.002 C 
ATOM     26  C   UNL     1      31.262  -5.200 -22.927  0.00  0.00    +0.031 C 
BRANCH  26  29
ATOM     27  N   UNL     1      30.365  -3.223 -24.133  0.00  0.00    -0.343 N 
ATOM     28  N   UNL     1      30.027  -3.453 -21.832  0.00  0.00    -0.285 NA
ATOM     29  C   UNL     1      30.536  -3.940 -22.949  0.00  0.00    +0.117 C 
ATOM     30  H   UNL     1      29.871  -2.372 -24.125  0.00  0.00    +0.144 HD
ATOM     31  H   UNL     1      30.741  -3.567 -24.975  0.00  0.00    +0.144 HD
ATOM     32  H   UNL     1      29.535  -2.600 -21.845  0.00  0.00    +0.188 HD
ENDBRANCH  26  29
ENDBRANCH  20  21
ENDBRANCH   2  20
TORSDOF 7
ENDMDL
MODEL 8
REMARK VINA RESULT:      -9.3     11.403     15.327
REMARK  Name = 25134248
REMARK  7 active torsions:
REMARK  status: ('A' for Active; 'I' for Inactive)
REMARK    1  A    between atoms: N_2  and  C_20
REMARK    2  A    between atoms: C_3  and  C_7
REMARK    3  A    between atoms: C_11  and  C_12
REMARK    4  A    between atoms: C_12  and  C_13
REMARK    5  A    between atoms: C_13  and  C_14
REMARK    6  A    between atoms: C_20  and  C_21
REMARK    7  A    between atoms: C_26  and  C_29
REMARK                            x       y       z     vdW  Elec       q    Type
REMARK                         _______ _______ _______ _____ _____    ______ ____
ROOT
ATOM      1  O   UNL     1      33.818 -11.794 -23.363  0.00  0.00    -0.273 OA
ATOM      2  N   UNL     1      32.585 -10.050 -22.437  0.00  0.00    -0.299 N 
ATOM      3  C   UNL     1      32.863 -11.378 -22.713  0.00  0.00    +0.241 C 
ATOM      4  H   UNL     1      31.785  -9.840 -21.903  0.00  0.00    +0.150 HD
ENDROOT
BRANCH   3   7
ATOM      5  O   UNL     1      33.753 -14.870 -20.270  0.00  0.00    -0.275 OA
ATOM      6  N   UNL     1      32.530 -13.071 -21.052  0.00  0.00    -0.273 N 
ATOM      7  C   UNL     1      31.858 -12.307 -22.099  0.00  0.00    +0.152 C 
ATOM      8  C   UNL     1      30.777 -11.521 -21.364  0.00  0.00    +0.031 C 
ATOM      9  C   UNL     1      32.136 -12.606 -19.729  0.00  0.00    +0.094 C 
ATOM     10  C   UNL     1      31.371 -11.315 -19.973  0.00  0.00    +0.024 C 
ATOM     11  C   UNL     1      33.327 -14.195 -21.209  0.00  0.00    +0.226 C 
BRANCH  11  12
ATOM     12  C   UNL     1      33.665 -14.575 -22.629  0.00  0.00    +0.085 C 
BRANCH  12  13
ATOM     13  C   UNL     1      34.885 -15.480 -22.660  0.00  0.00    +0.010 C 
BRANCH  13  14
ATOM     14  C   UNL     1      34.523 -16.963 -22.675  0.00  0.00    +0.000 C 
ATOM     15  C   UNL     1      34.766 -17.566 -24.065  0.00  0.00    +0.000 C 
ATOM     16  C   UNL     1      35.314 -17.726 -21.604  0.00  0.00    +0.000 C 
ATOM     17  C   UNL     1      34.462 -19.062 -24.093  0.00  0.00    +0.000 C 
ATOM     18  C   UNL     1      35.009 -19.221 -21.635  0.00  0.00    +0.000 C 
ATOM     19  C   UNL     1      35.243 -19.814 -23.021  0.00  0.00    +0.000 C 
ENDBRANCH  13  14
ENDBRANCH  12  13
ENDBRANCH  11  12
ENDBRANCH   3   7
BRANCH   2  20
ATOM     20  C   UNL     1      33.414  -8.958 -22.893  0.00  0.00    +0.116 C 
BRANCH  20  21
ATOM     21  C   UNL     1      32.671  -7.653 -22.897  0.00  0.00    -0.003 C 
ATOM     22  C   UNL     1      33.077  -6.623 -23.746  0.00  0.00    -0.003 C 
ATOM     23  C   UNL     1      31.575  -7.471 -22.055  0.00  0.00    -0.003 C 
ATOM     24  C   UNL     1      32.388  -5.411 -23.752  0.00  0.00    +0.002 C 
ATOM     25  C   UNL     1      30.885  -6.259 -22.060  0.00  0.00    +0.002 C 
ATOM     26  C   UNL     1      31.291  -5.229 -22.909  0.00  0.00    +0.031 C 
BRANCH  26  29
ATOM     27  N   UNL     1      29.984  -3.459 -21.757  0.00  0.00    -0.343 N 
ATOM     28  N   UNL     1      30.463  -3.275 -24.037  0.00  0.00    -0.285 NA
ATOM     29  C   UNL     1      30.571  -3.965 -22.915  0.00  0.00    +0.117 C 
ATOM     30  H   UNL     1      29.502  -2.601 -21.785  0.00  0.00    +0.144 HD
ATOM     31  H   UNL     1      30.050  -3.960 -20.913  0.00  0.00    +0.144 HD
ATOM     32  H   UNL     1      29.977  -2.419 -24.044  0.00  0.00    +0.188 HD
ENDBRANCH  26  29
ENDBRANCH  20  21
ENDBRANCH   2  20
TORSDOF 7
ENDMDL
MODEL 9
REMARK VINA RESULT:      -9.1      7.395     11.443
REMARK  Name = 25134248
REMARK  7 active torsions:
REMARK  status: ('A' for Active; 'I' for Inactive)
REMARK    1  A    between atoms: N_2  and  C_20
REMARK    2  A    between atoms: C_3  and  C_7
REMARK    3  A    between atoms: C_11  and  C_12
REMARK    4  A    between atoms: C_12  and  C_13
REMARK    5  A    between atoms: C_13  and  C_14
REMARK    6  A    between atoms: C_20  and  C_21
REMARK    7  A    between atoms: C_26  and  C_29
REMARK                            x       y       z     vdW  Elec       q    Type
REMARK                         _______ _______ _______ _____ _____    ______ ____
ROOT
ATOM      1  O   UNL     1      35.756 -15.502 -23.520  0.00  0.00    -0.273 OA
ATOM      2  N   UNL     1      34.657 -17.508 -23.092  0.00  0.00    -0.299 N 
ATOM      3  C   UNL     1      34.744 -16.198 -23.529  0.00  0.00    +0.241 C 
ATOM      4  H   UNL     1      33.786 -17.965 -23.149  0.00  0.00    +0.150 HD
ENDROOT
BRANCH   3   7
ATOM      5  O   UNL     1      33.393 -12.060 -23.487  0.00  0.00    -0.275 OA
ATOM      6  N   UNL     1      33.551 -14.243 -24.229  0.00  0.00    -0.273 N 
ATOM      7  C   UNL     1      33.438 -15.689 -24.061  0.00  0.00    +0.152 C 
ATOM      8  C   UNL     1      33.188 -16.218 -25.470  0.00  0.00    +0.031 C 
ATOM      9  C   UNL     1      33.669 -13.886 -25.636  0.00  0.00    +0.094 C 
ATOM     10  C   UNL     1      33.897 -15.202 -26.362  0.00  0.00    +0.024 C 
ATOM     11  C   UNL     1      33.419 -13.270 -23.251  0.00  0.00    +0.226 C 
BRANCH  11  12
ATOM     12  C   UNL     1      33.304 -13.766 -21.832  0.00  0.00    +0.085 C 
BRANCH  12  13
ATOM     13  C   UNL     1      32.027 -13.249 -21.190  0.00  0.00    +0.010 C 
BRANCH  13  14
ATOM     14  C   UNL     1      32.242 -11.962 -20.396  0.00  0.00    +0.000 C 
ATOM     15  C   UNL     1      31.763 -10.744 -21.196  0.00  0.00    +0.000 C 
ATOM     16  C   UNL     1      31.531 -12.038 -19.038  0.00  0.00    +0.000 C 
ATOM     17  C   UNL     1      31.918  -9.450 -20.401  0.00  0.00    +0.000 C 
ATOM     18  C   UNL     1      31.687 -10.742 -18.247  0.00  0.00    +0.000 C 
ATOM     19  C   UNL     1      31.217  -9.533 -19.049  0.00  0.00    +0.000 C 
ENDBRANCH  13  14
ENDBRANCH  12  13
ENDBRANCH  11  12
ENDBRANCH   3   7
BRANCH   2  20
ATOM     20  C   UNL     1      35.782 -18.239 -22.555  0.00  0.00    +0.116 C 
BRANCH  20  21
ATOM     21  C   UNL     1      35.354 -19.284 -21.565  0.00  0.00    -0.003 C 
ATOM     22  C   UNL     1      33.997 -19.543 -21.370  0.00  0.00    -0.003 C 
ATOM     23  C   UNL     1      36.311 -19.996 -20.843  0.00  0.00    -0.003 C 
ATOM     24  C   UNL     1      33.598 -20.514 -20.451  0.00  0.00    +0.002 C 
ATOM     25  C   UNL     1      35.912 -20.966 -19.924  0.00  0.00    +0.002 C 
ATOM     26  C   UNL     1      34.555 -21.226 -19.728  0.00  0.00    +0.031 C 
BRANCH  26  29
ATOM     27  N   UNL     1      32.792 -22.526 -18.560  0.00  0.00    -0.343 N 
ATOM     28  N   UNL     1      35.047 -22.904 -18.080  0.00  0.00    -0.285 NA
ATOM     29  C   UNL     1      34.139 -22.238 -18.771  0.00  0.00    +0.117 C 
ATOM     30  H   UNL     1      32.532 -23.215 -17.907  0.00  0.00    +0.144 HD
ATOM     31  H   UNL     1      32.100 -22.038 -19.063  0.00  0.00    +0.144 HD
ATOM     32  H   UNL     1      34.767 -23.591 -17.432  0.00  0.00    +0.188 HD
ENDBRANCH  26  29
ENDBRANCH  20  21
ENDBRANCH   2  20
TORSDOF 7
ENDMDL
