MODEL 1
REMARK VINA RESULT:     -12.0      0.000      0.000
REMARK  Name = 3488
REMARK  8 active torsions:
REMARK  status: ('A' for Active; 'I' for Inactive)
REMARK    1  A    between atoms: C_1  and  S_7
REMARK    2  A    between atoms: C_2  and  C_22
REMARK    3  A    between atoms: S_7  and  N_12
REMARK    4  A    between atoms: N_11  and  C_16
REMARK    5  A    between atoms: C_22  and  C_23
REMARK    6  A    between atoms: C_23  and  N_25
REMARK    7  A    between atoms: C_26  and  C_29
REMARK    8  A    between atoms: C_30  and  O_35
REMARK                            x       y       z     vdW  Elec       q    Type
REMARK                         _______ _______ _______ _____ _____    ______ ____
ROOT
ATOM      1  C   UNL     1      34.382 -21.983 -19.053  0.00  0.00    +0.125 C 
ATOM      2  C   UNL     1      35.692 -20.140 -20.651  0.00  0.00    -0.020 C 
ATOM      3  C   UNL     1      33.638 -21.104 -19.819  0.00  0.00    +0.020 C 
ATOM      4  C   UNL     1      35.766 -21.963 -19.066  0.00  0.00    +0.020 C 
ATOM      5  C   UNL     1      34.298 -20.174 -20.625  0.00  0.00    -0.003 C 
ATOM      6  C   UNL     1      36.427 -21.035 -19.872  0.00  0.00    -0.003 C 
ENDROOT
BRANCH   1   7
ATOM      7  S   UNL     1      33.546 -23.160 -18.033  0.00  0.00    +0.077 S 
ATOM      8  O   UNL     1      33.450 -24.406 -18.768  0.00  0.00    -0.150 OA
ATOM      9  O   UNL     1      32.353 -22.507 -17.532  0.00  0.00    -0.150 OA
BRANCH   7  12
ATOM     10  O   UNL     1      33.386 -24.662 -15.318  0.00  0.00    -0.251 OA
ATOM     11  N   UNL     1      35.527 -24.049 -14.698  0.00  0.00    -0.289 N 
ATOM     12  N   UNL     1      34.668 -23.341 -16.756  0.00  0.00    -0.169 N 
ATOM     13  C   UNL     1      34.439 -24.076 -15.550  0.00  0.00    +0.319 C 
ATOM     14  H   UNL     1      36.329 -23.549 -14.975  0.00  0.00    +0.151 HD
ATOM     15  H   UNL     1      35.545 -22.905 -16.860  0.00  0.00    +0.178 HD
BRANCH  11  16
ATOM     16  C   UNL     1      35.540 -24.723 -13.418  0.00  0.00    +0.073 C 
ATOM     17  C   UNL     1      35.958 -23.765 -12.297  0.00  0.00    +0.020 C 
ATOM     18  C   UNL     1      36.440 -25.961 -13.457  0.00  0.00    +0.020 C 
ATOM     19  C   UNL     1      37.444 -23.411 -12.355  0.00  0.00    +0.002 C 
ATOM     20  C   UNL     1      37.926 -25.603 -13.513  0.00  0.00    +0.002 C 
ATOM     21  C   UNL     1      38.321 -24.660 -12.381  0.00  0.00    +0.000 C 
ENDBRANCH  11  16
ENDBRANCH   7  12
ENDBRANCH   1   7
BRANCH   2  22
ATOM     22  C   UNL     1      36.398 -19.147 -21.511  0.00  0.00    +0.048 C 
BRANCH  22  23
ATOM     23  C   UNL     1      35.731 -18.934 -22.876  0.00  0.00    +0.094 C 
BRANCH  23  25
ATOM     24  O   UNL     1      34.194 -17.914 -25.076  0.00  0.00    -0.270 OA
ATOM     25  N   UNL     1      35.319 -17.572 -23.076  0.00  0.00    -0.300 N 
ATOM     26  C   UNL     1      34.573 -17.167 -24.177  0.00  0.00    +0.249 C 
ATOM     27  H   UNL     1      35.576 -16.896 -22.407  0.00  0.00    +0.150 HD
BRANCH  26  29
ATOM     28 CL   UNL     1      32.820 -13.223 -27.001  0.00  0.00    -0.082 Cl
ATOM     29  C   UNL     1      34.250 -15.719 -24.252  0.00  0.00    +0.088 C 
ATOM     30  C   UNL     1      34.453 -14.913 -23.150  0.00  0.00    +0.143 C 
ATOM     31  C   UNL     1      33.752 -15.226 -25.441  0.00  0.00    +0.019 C 
ATOM     32  C   UNL     1      34.144 -13.556 -23.240  0.00  0.00    +0.038 C 
ATOM     33  C   UNL     1      33.442 -13.868 -25.531  0.00  0.00    +0.058 C 
ATOM     34  C   UNL     1      33.639 -13.034 -24.431  0.00  0.00    +0.015 C 
BRANCH  30  35
ATOM     35  O   UNL     1      34.945 -15.404 -21.977  0.00  0.00    -0.471 OA
ATOM     36  C   UNL     1      34.188 -15.142 -20.798  0.00  0.00    +0.252 C 
ENDBRANCH  30  35
ENDBRANCH  26  29
ENDBRANCH  23  25
ENDBRANCH  22  23
ENDBRANCH   2  22
TORSDOF 8
ENDMDL
MODEL 2
REMARK VINA RESULT:     -11.6      1.413      1.726
REMARK  Name = 3488
REMARK  8 active torsions:
REMARK  status: ('A' for Active; 'I' for Inactive)
REMARK    1  A    between atoms: C_1  and  S_7
REMARK    2  A    between atoms: C_2  and  C_22
REMARK    3  A    between atoms: S_7  and  N_12
REMARK    4  A    between atoms: N_11  and  C_16
REMARK    5  A    between atoms: C_22  and  C_23
REMARK    6  A    between atoms: C_23  and  N_25
REMARK    7  A    between atoms: C_26  and  C_29
REMARK    8  A    between atoms: C_30  and  O_35
REMARK                            x       y       z     vdW  Elec       q    Type
REMARK                         _______ _______ _______ _____ _____    ______ ____
ROOT
ATOM      1  C   UNL     1      34.529 -21.565 -19.523  0.00  0.00    +0.125 C 
ATOM      2  C   UNL     1      35.616 -19.500 -21.013  0.00  0.00    -0.020 C 
ATOM      3  C   UNL     1      33.684 -20.703 -20.199  0.00  0.00    +0.020 C 
ATOM      4  C   UNL     1      35.904 -21.421 -19.574  0.00  0.00    +0.020 C 
ATOM      5  C   UNL     1      34.232 -19.662 -20.950  0.00  0.00    -0.003 C 
ATOM      6  C   UNL     1      36.453 -20.381 -20.326  0.00  0.00    -0.003 C 
ENDROOT
BRANCH   1   7
ATOM      7  S   UNL     1      33.835 -22.883 -18.570  0.00  0.00    +0.077 S 
ATOM      8  O   UNL     1      33.718 -24.046 -19.429  0.00  0.00    -0.150 OA
ATOM      9  O   UNL     1      32.670 -22.345 -17.897  0.00  0.00    -0.150 OA
BRANCH   7  12
ATOM     10  O   UNL     1      33.824 -24.194 -15.754  0.00  0.00    -0.251 OA
ATOM     11  N   UNL     1      36.088 -23.853 -15.438  0.00  0.00    -0.289 N 
ATOM     12  N   UNL     1      35.076 -23.149 -17.425  0.00  0.00    -0.169 N 
ATOM     13  C   UNL     1      34.907 -23.775 -16.150  0.00  0.00    +0.319 C 
ATOM     14  H   UNL     1      36.908 -23.487 -15.843  0.00  0.00    +0.151 HD
ATOM     15  H   UNL     1      35.983 -22.846 -17.664  0.00  0.00    +0.178 HD
BRANCH  11  16
ATOM     16  C   UNL     1      36.175 -24.450 -14.123  0.00  0.00    +0.073 C 
ATOM     17  C   UNL     1      37.553 -24.204 -13.497  0.00  0.00    +0.020 C 
ATOM     18  C   UNL     1      35.846 -25.944 -14.173  0.00  0.00    +0.020 C 
ATOM     19  C   UNL     1      38.653 -25.027 -14.166  0.00  0.00    +0.002 C 
ATOM     20  C   UNL     1      36.949 -26.765 -14.841  0.00  0.00    +0.002 C 
ATOM     21  C   UNL     1      38.308 -26.514 -14.194  0.00  0.00    +0.000 C 
ENDBRANCH  11  16
ENDBRANCH   7  12
ENDBRANCH   1   7
BRANCH   2  22
ATOM     22  C   UNL     1      36.202 -18.388 -21.816  0.00  0.00    +0.048 C 
BRANCH  22  23
ATOM     23  C   UNL     1      35.268 -17.868 -22.916  0.00  0.00    +0.094 C 
BRANCH  23  25
ATOM     24  O   UNL     1      34.010 -16.082 -24.777  0.00  0.00    -0.270 OA
ATOM     25  N   UNL     1      34.785 -16.543 -22.641  0.00  0.00    -0.300 N 
ATOM     26  C   UNL     1      34.187 -15.746 -23.609  0.00  0.00    +0.249 C 
ATOM     27  H   UNL     1      34.883 -16.183 -21.729  0.00  0.00    +0.150 HD
BRANCH  26  29
ATOM     28 CL   UNL     1      34.335 -10.654 -24.419  0.00  0.00    -0.082 Cl
ATOM     29  C   UNL     1      33.766 -14.390 -23.172  0.00  0.00    +0.088 C 
ATOM     30  C   UNL     1      32.968 -14.245 -22.056  0.00  0.00    +0.143 C 
ATOM     31  C   UNL     1      34.198 -13.306 -23.912  0.00  0.00    +0.019 C 
ATOM     32  C   UNL     1      32.584 -12.964 -21.662  0.00  0.00    +0.038 C 
ATOM     33  C   UNL     1      33.813 -12.025 -23.518  0.00  0.00    +0.058 C 
ATOM     34  C   UNL     1      33.007 -11.853 -22.392  0.00  0.00    +0.015 C 
BRANCH  30  35
ATOM     35  O   UNL     1      32.544 -15.317 -21.329  0.00  0.00    -0.471 OA
ATOM     36  C   UNL     1      32.470 -15.151 -19.914  0.00  0.00    +0.252 C 
ENDBRANCH  30  35
ENDBRANCH  26  29
ENDBRANCH  23  25
ENDBRANCH  22  23
ENDBRANCH   2  22
TORSDOF 8
ENDMDL
MODEL 3
REMARK VINA RESULT:     -11.6      1.436      2.419
REMARK  Name = 3488
REMARK  8 active torsions:
REMARK  status: ('A' for Active; 'I' for Inactive)
REMARK    1  A    between atoms: C_1  and  S_7
REMARK    2  A    between atoms: C_2  and  C_22
REMARK    3  A    between atoms: S_7  and  N_12
REMARK    4  A    between atoms: N_11  and  C_16
REMARK    5  A    between atoms: C_22  and  C_23
REMARK    6  A    between atoms: C_23  and  N_25
REMARK    7  A    between atoms: C_26  and  C_29
REMARK    8  A    between atoms: C_30  and  O_35
REMARK                            x       y       z     vdW  Elec       q    Type
REMARK                         _______ _______ _______ _____ _____    ______ ____
ROOT
ATOM      1  C   UNL     1      34.250 -21.667 -19.475  0.00  0.00    +0.125 C 
ATOM      2  C   UNL     1      35.059 -19.452 -20.927  0.00  0.00    -0.020 C 
ATOM      3  C   UNL     1      35.601 -21.397 -19.598  0.00  0.00    +0.020 C 
ATOM      4  C   UNL     1      33.292 -20.856 -20.060  0.00  0.00    +0.020 C 
ATOM      5  C   UNL     1      36.009 -20.280 -20.330  0.00  0.00    -0.003 C 
ATOM      6  C   UNL     1      33.699 -19.739 -20.791  0.00  0.00    -0.003 C 
ENDROOT
BRANCH   1   7
ATOM      7  S   UNL     1      33.733 -23.081 -18.548  0.00  0.00    +0.077 S 
ATOM      8  O   UNL     1      33.741 -24.228 -19.435  0.00  0.00    -0.150 OA
ATOM      9  O   UNL     1      32.524 -22.702 -17.844  0.00  0.00    -0.150 OA
BRANCH   7  12
ATOM     10  O   UNL     1      33.871 -24.271 -15.682  0.00  0.00    -0.251 OA
ATOM     11  N   UNL     1      36.119 -23.784 -15.442  0.00  0.00    -0.289 N 
ATOM     12  N   UNL     1      35.017 -23.224 -17.427  0.00  0.00    -0.169 N 
ATOM     13  C   UNL     1      34.917 -23.806 -16.124  0.00  0.00    +0.319 C 
ATOM     14  H   UNL     1      36.904 -23.387 -15.883  0.00  0.00    +0.151 HD
ATOM     15  H   UNL     1      35.897 -22.878 -17.703  0.00  0.00    +0.178 HD
BRANCH  11  16
ATOM     16  C   UNL     1      36.274 -24.319 -14.107  0.00  0.00    +0.073 C 
ATOM     17  C   UNL     1      37.719 -24.168 -13.618  0.00  0.00    +0.020 C 
ATOM     18  C   UNL     1      35.815 -25.778 -14.041  0.00  0.00    +0.020 C 
ATOM     19  C   UNL     1      38.679 -25.119 -14.331  0.00  0.00    +0.002 C 
ATOM     20  C   UNL     1      36.778 -26.728 -14.753  0.00  0.00    +0.002 C 
ATOM     21  C   UNL     1      38.207 -26.568 -14.242  0.00  0.00    +0.000 C 
ENDBRANCH  11  16
ENDBRANCH   7  12
ENDBRANCH   1   7
BRANCH   2  22
ATOM     22  C   UNL     1      35.494 -18.260 -21.709  0.00  0.00    +0.048 C 
BRANCH  22  23
ATOM     23  C   UNL     1      34.964 -16.933 -21.150  0.00  0.00    +0.094 C 
BRANCH  23  25
ATOM     24  O   UNL     1      32.897 -14.952 -21.358  0.00  0.00    -0.270 OA
ATOM     25  N   UNL     1      34.843 -15.922 -22.165  0.00  0.00    -0.300 N 
ATOM     26  C   UNL     1      33.803 -15.001 -22.186  0.00  0.00    +0.249 C 
ATOM     27  H   UNL     1      35.524 -15.881 -22.876  0.00  0.00    +0.150 HD
BRANCH  26  29
ATOM     28 CL   UNL     1      34.399 -10.130 -23.777  0.00  0.00    -0.082 Cl
ATOM     29  C   UNL     1      33.804 -14.038 -23.317  0.00  0.00    +0.088 C 
ATOM     30  C   UNL     1      33.547 -14.483 -24.598  0.00  0.00    +0.143 C 
ATOM     31  C   UNL     1      34.068 -12.711 -23.040  0.00  0.00    +0.019 C 
ATOM     32  C   UNL     1      33.553 -13.564 -25.647  0.00  0.00    +0.038 C 
ATOM     33  C   UNL     1      34.075 -11.792 -24.090  0.00  0.00    +0.058 C 
ATOM     34  C   UNL     1      33.816 -12.218 -25.392  0.00  0.00    +0.015 C 
BRANCH  30  35
ATOM     35  O   UNL     1      33.288 -15.795 -24.867  0.00  0.00    -0.471 OA
ATOM     36  C   UNL     1      34.389 -16.600 -25.280  0.00  0.00    +0.252 C 
ENDBRANCH  30  35
ENDBRANCH  26  29
ENDBRANCH  23  25
ENDBRANCH  22  23
ENDBRANCH   2  22
TORSDOF 8
ENDMDL
MODEL 4
REMARK VINA RESULT:     -11.3      1.617      2.429
REMARK  Name = 3488
REMARK  8 active torsions:
REMARK  status: ('A' for Active; 'I' for Inactive)
REMARK    1  A    between atoms: C_1  and  S_7
REMARK    2  A    between atoms: C_2  and  C_22
REMARK    3  A    between atoms: S_7  and  N_12
REMARK    4  A    between atoms: N_11  and  C_16
REMARK    5  A    between atoms: C_22  and  C_23
REMARK    6  A    between atoms: C_23  and  N_25
REMARK    7  A    between atoms: C_26  and  C_29
REMARK    8  A    between atoms: C_30  and  O_35
REMARK                            x       y       z     vdW  Elec       q    Type
REMARK                         _______ _______ _______ _____ _____    ______ ____
ROOT
ATOM      1  C   UNL     1      34.302 -22.358 -18.613  0.00  0.00    +0.125 C 
ATOM      2  C   UNL     1      35.521 -20.487 -20.250  0.00  0.00    -0.020 C 
ATOM      3  C   UNL     1      35.680 -22.241 -18.595  0.00  0.00    +0.020 C 
ATOM      4  C   UNL     1      33.517 -21.562 -19.429  0.00  0.00    +0.020 C 
ATOM      5  C   UNL     1      36.295 -21.298 -19.420  0.00  0.00    -0.003 C 
ATOM      6  C   UNL     1      34.131 -20.619 -20.254  0.00  0.00    -0.003 C 
ENDROOT
BRANCH   1   7
ATOM      7  S   UNL     1      33.523 -23.553 -17.568  0.00  0.00    +0.077 S 
ATOM      8  O   UNL     1      33.367 -24.780 -18.325  0.00  0.00    -0.150 OA
ATOM      9  O   UNL     1      32.372 -22.903 -16.974  0.00  0.00    -0.150 OA
BRANCH   7  12
ATOM     10  O   UNL     1      33.428 -24.807 -14.727  0.00  0.00    -0.251 OA
ATOM     11  N   UNL     1      35.673 -24.422 -14.335  0.00  0.00    -0.289 N 
ATOM     12  N   UNL     1      34.725 -23.775 -16.372  0.00  0.00    -0.169 N 
ATOM     13  C   UNL     1      34.519 -24.379 -15.092  0.00  0.00    +0.319 C 
ATOM     14  H   UNL     1      36.501 -24.051 -14.716  0.00  0.00    +0.151 HD
ATOM     15  H   UNL     1      35.635 -23.461 -16.584  0.00  0.00    +0.178 HD
BRANCH  11  16
ATOM     16  C   UNL     1      35.720 -24.991 -13.005  0.00  0.00    +0.073 C 
ATOM     17  C   UNL     1      35.838 -23.894 -11.942  0.00  0.00    +0.020 C 
ATOM     18  C   UNL     1      36.858 -26.009 -12.881  0.00  0.00    +0.020 C 
ATOM     19  C   UNL     1      37.217 -23.236 -11.930  0.00  0.00    +0.002 C 
ATOM     20  C   UNL     1      38.236 -25.348 -12.868  0.00  0.00    +0.002 C 
ATOM     21  C   UNL     1      38.333 -24.268 -11.794  0.00  0.00    +0.000 C 
ENDBRANCH  11  16
ENDBRANCH   7  12
ENDBRANCH   1   7
BRANCH   2  22
ATOM     22  C   UNL     1      36.177 -19.480 -21.132  0.00  0.00    +0.048 C 
BRANCH  22  23
ATOM     23  C   UNL     1      35.477 -19.303 -22.487  0.00  0.00    +0.094 C 
BRANCH  23  25
ATOM     24  O   UNL     1      35.379 -17.242 -20.491  0.00  0.00    -0.270 OA
ATOM     25  N   UNL     1      34.852 -18.015 -22.613  0.00  0.00    -0.300 N 
ATOM     26  C   UNL     1      34.854 -17.076 -21.589  0.00  0.00    +0.249 C 
ATOM     27  H   UNL     1      34.402 -17.789 -23.460  0.00  0.00    +0.150 HD
BRANCH  26  29
ATOM     28 CL   UNL     1      31.988 -13.188 -19.778  0.00  0.00    -0.082 Cl
ATOM     29  C   UNL     1      34.140 -15.803 -21.868  0.00  0.00    +0.088 C 
ATOM     30  C   UNL     1      34.145 -15.279 -23.144  0.00  0.00    +0.143 C 
ATOM     31  C   UNL     1      33.487 -15.183 -20.821  0.00  0.00    +0.019 C 
ATOM     32  C   UNL     1      33.469 -14.083 -23.385  0.00  0.00    +0.038 C 
ATOM     33  C   UNL     1      32.812 -13.986 -21.063  0.00  0.00    +0.058 C 
ATOM     34  C   UNL     1      32.802 -13.437 -22.344  0.00  0.00    +0.015 C 
BRANCH  30  35
ATOM     35  O   UNL     1      34.791 -15.894 -24.175  0.00  0.00    -0.471 OA
ATOM     36  C   UNL     1      34.095 -15.977 -25.417  0.00  0.00    +0.252 C 
ENDBRANCH  30  35
ENDBRANCH  26  29
ENDBRANCH  23  25
ENDBRANCH  22  23
ENDBRANCH   2  22
TORSDOF 8
ENDMDL
MODEL 5
REMARK VINA RESULT:     -11.2      6.289      9.949
REMARK  Name = 3488
REMARK  8 active torsions:
REMARK  status: ('A' for Active; 'I' for Inactive)
REMARK    1  A    between atoms: C_1  and  S_7
REMARK    2  A    between atoms: C_2  and  C_22
REMARK    3  A    between atoms: S_7  and  N_12
REMARK    4  A    between atoms: N_11  and  C_16
REMARK    5  A    between atoms: C_22  and  C_23
REMARK    6  A    between atoms: C_23  and  N_25
REMARK    7  A    between atoms: C_26  and  C_29
REMARK    8  A    between atoms: C_30  and  O_35
REMARK                            x       y       z     vdW  Elec       q    Type
REMARK                         _______ _______ _______ _____ _____    ______ ____
ROOT
ATOM      1  C   UNL     1      32.851 -13.159 -22.348  0.00  0.00    +0.125 C 
ATOM      2  C   UNL     1      31.660 -11.773 -20.269  0.00  0.00    -0.020 C 
ATOM      3  C   UNL     1      32.768 -13.753 -21.101  0.00  0.00    +0.020 C 
ATOM      4  C   UNL     1      32.353 -11.890 -22.582  0.00  0.00    +0.020 C 
ATOM      5  C   UNL     1      32.168 -13.054 -20.053  0.00  0.00    -0.003 C 
ATOM      6  C   UNL     1      31.751 -11.191 -21.534  0.00  0.00    -0.003 C 
ENDROOT
BRANCH   1   7
ATOM      7  S   UNL     1      33.613 -14.044 -23.676  0.00  0.00    +0.077 S 
ATOM      8  O   UNL     1      34.612 -13.182 -24.278  0.00  0.00    -0.150 OA
ATOM      9  O   UNL     1      32.541 -14.600 -24.479  0.00  0.00    -0.150 OA
BRANCH   7  12
ATOM     10  O   UNL     1      34.733 -16.793 -24.592  0.00  0.00    -0.251 OA
ATOM     11  N   UNL     1      35.447 -17.362 -22.469  0.00  0.00    -0.289 N 
ATOM     12  N   UNL     1      34.392 -15.305 -22.825  0.00  0.00    -0.169 N 
ATOM     13  C   UNL     1      34.855 -16.531 -23.400  0.00  0.00    +0.319 C 
ATOM     14  H   UNL     1      35.497 -17.062 -21.533  0.00  0.00    +0.151 HD
ATOM     15  H   UNL     1      34.535 -15.176 -21.859  0.00  0.00    +0.178 HD
BRANCH  11  16
ATOM     16  C   UNL     1      35.997 -18.656 -22.808  0.00  0.00    +0.073 C 
ATOM     17  C   UNL     1      34.934 -19.754 -22.692  0.00  0.00    +0.020 C 
ATOM     18  C   UNL     1      37.223 -18.977 -21.948  0.00  0.00    +0.020 C 
ATOM     19  C   UNL     1      34.570 -20.063 -21.240  0.00  0.00    +0.002 C 
ATOM     20  C   UNL     1      36.855 -19.287 -20.497  0.00  0.00    +0.002 C 
ATOM     21  C   UNL     1      35.805 -20.390 -20.406  0.00  0.00    +0.000 C 
ENDBRANCH  11  16
ENDBRANCH   7  12
ENDBRANCH   1   7
BRANCH   2  22
ATOM     22  C   UNL     1      31.018 -11.026 -19.149  0.00  0.00    +0.048 C 
BRANCH  22  23
ATOM     23  C   UNL     1      31.662  -9.661 -18.874  0.00  0.00    +0.094 C 
BRANCH  23  25
ATOM     24  O   UNL     1      33.168  -7.235 -19.167  0.00  0.00    -0.270 OA
ATOM     25  N   UNL     1      31.786  -8.866 -20.065  0.00  0.00    -0.300 N 
ATOM     26  C   UNL     1      32.540  -7.700 -20.115  0.00  0.00    +0.249 C 
ATOM     27  H   UNL     1      31.316  -9.158 -20.881  0.00  0.00    +0.150 HD
BRANCH  26  29
ATOM     28 CL   UNL     1      30.936  -3.638 -22.859  0.00  0.00    -0.082 Cl
ATOM     29  C   UNL     1      32.544  -6.978 -21.413  0.00  0.00    +0.088 C 
ATOM     30  C   UNL     1      33.252  -7.491 -22.481  0.00  0.00    +0.143 C 
ATOM     31  C   UNL     1      31.828  -5.801 -21.503  0.00  0.00    +0.019 C 
ATOM     32  C   UNL     1      33.243  -6.798 -23.691  0.00  0.00    +0.038 C 
ATOM     33  C   UNL     1      31.820  -5.108 -22.714  0.00  0.00    +0.058 C 
ATOM     34  C   UNL     1      32.527  -5.607 -23.808  0.00  0.00    +0.015 C 
BRANCH  30  35
ATOM     35  O   UNL     1      33.958  -8.653 -22.388  0.00  0.00    -0.471 OA
ATOM     36  C   UNL     1      34.502  -9.178 -23.596  0.00  0.00    +0.252 C 
ENDBRANCH  30  35
ENDBRANCH  26  29
ENDBRANCH  23  25
ENDBRANCH  22  23
ENDBRANCH   2  22
TORSDOF 8
ENDMDL
MODEL 6
REMARK VINA RESULT:     -11.1      4.057     11.648
REMARK  Name = 3488
REMARK  8 active torsions:
REMARK  status: ('A' for Active; 'I' for Inactive)
REMARK    1  A    between atoms: C_1  and  S_7
REMARK    2  A    between atoms: C_2  and  C_22
REMARK    3  A    between atoms: S_7  and  N_12
REMARK    4  A    between atoms: N_11  and  C_16
REMARK    5  A    between atoms: C_22  and  C_23
REMARK    6  A    between atoms: C_23  and  N_25
REMARK    7  A    between atoms: C_26  and  C_29
REMARK    8  A    between atoms: C_30  and  O_35
REMARK                            x       y       z     vdW  Elec       q    Type
REMARK                         _______ _______ _______ _____ _____    ______ ____
ROOT
ATOM      1  C   UNL     1      34.838 -20.671 -20.390  0.00  0.00    +0.125 C 
ATOM      2  C   UNL     1      34.031 -22.539 -18.513  0.00  0.00    -0.020 C 
ATOM      3  C   UNL     1      35.794 -21.437 -19.745  0.00  0.00    +0.020 C 
ATOM      4  C   UNL     1      33.489 -20.817 -20.121  0.00  0.00    +0.020 C 
ATOM      5  C   UNL     1      35.386 -22.378 -18.799  0.00  0.00    -0.003 C 
ATOM      6  C   UNL     1      33.081 -21.759 -19.175  0.00  0.00    -0.003 C 
ENDROOT
BRANCH   1   7
ATOM      7  S   UNL     1      35.354 -19.478 -21.589  0.00  0.00    +0.077 S 
ATOM      8  O   UNL     1      34.668 -19.764 -22.834  0.00  0.00    -0.150 OA
ATOM      9  O   UNL     1      36.802 -19.433 -21.540  0.00  0.00    -0.150 OA
BRANCH   7  12
ATOM     10  O   UNL     1      35.753 -16.485 -22.316  0.00  0.00    -0.251 OA
ATOM     11  N   UNL     1      34.354 -15.748 -20.629  0.00  0.00    -0.289 N 
ATOM     12  N   UNL     1      34.722 -18.041 -20.912  0.00  0.00    -0.169 N 
ATOM     13  C   UNL     1      35.008 -16.715 -21.368  0.00  0.00    +0.319 C 
ATOM     14  H   UNL     1      33.777 -16.035 -19.885  0.00  0.00    +0.151 HD
ATOM     15  H   UNL     1      34.110 -18.134 -20.146  0.00  0.00    +0.178 HD
BRANCH  11  16
ATOM     16  C   UNL     1      34.480 -14.333 -20.900  0.00  0.00    +0.073 C 
ATOM     17  C   UNL     1      33.424 -13.530 -20.132  0.00  0.00    +0.020 C 
ATOM     18  C   UNL     1      34.407 -14.051 -22.404  0.00  0.00    +0.020 C 
ATOM     19  C   UNL     1      32.018 -13.721 -20.699  0.00  0.00    +0.002 C 
ATOM     20  C   UNL     1      32.998 -14.242 -22.967  0.00  0.00    +0.002 C 
ATOM     21  C   UNL     1      31.967 -13.424 -22.195  0.00  0.00    +0.000 C 
ENDBRANCH  11  16
ENDBRANCH   7  12
ENDBRANCH   1   7
BRANCH   2  22
ATOM     22  C   UNL     1      33.595 -23.545 -17.502  0.00  0.00    +0.048 C 
BRANCH  22  23
ATOM     23  C   UNL     1      33.803 -23.087 -16.053  0.00  0.00    +0.094 C 
BRANCH  23  25
ATOM     24  O   UNL     1      36.498 -22.395 -15.348  0.00  0.00    -0.270 OA
ATOM     25  N   UNL     1      34.745 -23.913 -15.349  0.00  0.00    -0.300 N 
ATOM     26  C   UNL     1      36.035 -23.493 -15.050  0.00  0.00    +0.249 C 
ATOM     27  H   UNL     1      34.465 -24.815 -15.067  0.00  0.00    +0.150 HD
BRANCH  26  29
ATOM     28 CL   UNL     1      40.553 -25.970 -14.811  0.00  0.00    -0.082 Cl
ATOM     29  C   UNL     1      36.895 -24.475 -14.341  0.00  0.00    +0.088 C 
ATOM     30  C   UNL     1      36.425 -25.109 -13.209  0.00  0.00    +0.143 C 
ATOM     31  C   UNL     1      38.155 -24.722 -14.851  0.00  0.00    +0.019 C 
ATOM     32  C   UNL     1      37.247 -26.028 -12.558  0.00  0.00    +0.038 C 
ATOM     33  C   UNL     1      38.978 -25.640 -14.200  0.00  0.00    +0.058 C 
ATOM     34  C   UNL     1      38.524 -26.294 -13.054  0.00  0.00    +0.015 C 
BRANCH  30  35
ATOM     35  O   UNL     1      35.181 -24.863 -12.709  0.00  0.00    -0.471 OA
ATOM     36  C   UNL     1      35.110 -24.191 -11.454  0.00  0.00    +0.252 C 
ENDBRANCH  30  35
ENDBRANCH  26  29
ENDBRANCH  23  25
ENDBRANCH  22  23
ENDBRANCH   2  22
TORSDOF 8
ENDMDL
MODEL 7
REMARK VINA RESULT:     -11.0      3.383      5.388
REMARK  Name = 3488
REMARK  8 active torsions:
REMARK  status: ('A' for Active; 'I' for Inactive)
REMARK    1  A    between atoms: C_1  and  S_7
REMARK    2  A    between atoms: C_2  and  C_22
REMARK    3  A    between atoms: S_7  and  N_12
REMARK    4  A    between atoms: N_11  and  C_16
REMARK    5  A    between atoms: C_22  and  C_23
REMARK    6  A    between atoms: C_23  and  N_25
REMARK    7  A    between atoms: C_26  and  C_29
REMARK    8  A    between atoms: C_30  and  O_35
REMARK                            x       y       z     vdW  Elec       q    Type
REMARK                         _______ _______ _______ _____ _____    ______ ____
ROOT
ATOM      1  C   UNL     1      36.152 -23.917 -15.036  0.00  0.00    +0.125 C 
ATOM      2  C   UNL     1      36.749 -22.260 -17.172  0.00  0.00    -0.020 C 
ATOM      3  C   UNL     1      35.148 -23.571 -15.922  0.00  0.00    +0.020 C 
ATOM      4  C   UNL     1      37.448 -23.456 -15.191  0.00  0.00    +0.020 C 
ATOM      5  C   UNL     1      35.449 -22.735 -16.999  0.00  0.00    -0.003 C 
ATOM      6  C   UNL     1      37.749 -22.621 -16.268  0.00  0.00    -0.003 C 
ENDROOT
BRANCH   1   7
ATOM      7  S   UNL     1      35.772 -24.975 -13.672  0.00  0.00    +0.077 S 
ATOM      8  O   UNL     1      35.803 -24.178 -12.460  0.00  0.00    -0.150 OA
ATOM      9  O   UNL     1      36.614 -26.148 -13.802  0.00  0.00    -0.150 OA
BRANCH   7  12
ATOM     10  O   UNL     1      33.057 -23.931 -12.580  0.00  0.00    -0.251 OA
ATOM     11  N   UNL     1      31.819 -25.358 -13.911  0.00  0.00    -0.289 N 
ATOM     12  N   UNL     1      34.154 -25.399 -14.028  0.00  0.00    -0.169 N 
ATOM     13  C   UNL     1      32.994 -24.817 -13.427  0.00  0.00    +0.319 C 
ATOM     14  H   UNL     1      31.872 -26.067 -14.592  0.00  0.00    +0.151 HD
ATOM     15  H   UNL     1      34.010 -26.102 -14.703  0.00  0.00    +0.178 HD
BRANCH  11  16
ATOM     16  C   UNL     1      30.512 -24.930 -13.462  0.00  0.00    +0.073 C 
ATOM     17  C   UNL     1      29.403 -25.748 -14.134  0.00  0.00    +0.020 C 
ATOM     18  C   UNL     1      30.314 -23.429 -13.695  0.00  0.00    +0.020 C 
ATOM     19  C   UNL     1      29.234 -25.399 -15.612  0.00  0.00    +0.002 C 
ATOM     20  C   UNL     1      30.143 -23.084 -15.174  0.00  0.00    +0.002 C 
ATOM     21  C   UNL     1      29.027 -23.901 -15.818  0.00  0.00    +0.000 C 
ENDBRANCH  11  16
ENDBRANCH   7  12
ENDBRANCH   1   7
BRANCH   2  22
ATOM     22  C   UNL     1      37.071 -21.367 -18.322  0.00  0.00    +0.048 C 
BRANCH  22  23
ATOM     23  C   UNL     1      36.057 -21.457 -19.471  0.00  0.00    +0.094 C 
BRANCH  23  25
ATOM     24  O   UNL     1      33.665 -20.220 -20.463  0.00  0.00    -0.270 OA
ATOM     25  N   UNL     1      35.971 -20.234 -20.220  0.00  0.00    -0.300 N 
ATOM     26  C   UNL     1      34.763 -19.708 -20.662  0.00  0.00    +0.249 C 
ATOM     27  H   UNL     1      36.802 -19.748 -20.430  0.00  0.00    +0.150 HD
BRANCH  26  29
ATOM     28 CL   UNL     1      34.423 -14.561 -20.717  0.00  0.00    -0.082 Cl
ATOM     29  C   UNL     1      34.846 -18.449 -21.448  0.00  0.00    +0.088 C 
ATOM     30  C   UNL     1      35.139 -18.500 -22.795  0.00  0.00    +0.143 C 
ATOM     31  C   UNL     1      34.623 -17.257 -20.789  0.00  0.00    +0.019 C 
ATOM     32  C   UNL     1      35.212 -17.309 -23.516  0.00  0.00    +0.038 C 
ATOM     33  C   UNL     1      34.697 -16.065 -21.510  0.00  0.00    +0.058 C 
ATOM     34  C   UNL     1      34.990 -16.090 -22.873  0.00  0.00    +0.015 C 
BRANCH  30  35
ATOM     35  O   UNL     1      35.359 -19.680 -23.442  0.00  0.00    -0.471 OA
ATOM     36  C   UNL     1      34.371 -20.096 -24.381  0.00  0.00    +0.252 C 
ENDBRANCH  30  35
ENDBRANCH  26  29
ENDBRANCH  23  25
ENDBRANCH  22  23
ENDBRANCH   2  22
TORSDOF 8
ENDMDL
MODEL 8
REMARK VINA RESULT:     -10.7      6.164     10.078
REMARK  Name = 3488
REMARK  8 active torsions:
REMARK  status: ('A' for Active; 'I' for Inactive)
REMARK    1  A    between atoms: C_1  and  S_7
REMARK    2  A    between atoms: C_2  and  C_22
REMARK    3  A    between atoms: S_7  and  N_12
REMARK    4  A    between atoms: N_11  and  C_16
REMARK    5  A    between atoms: C_22  and  C_23
REMARK    6  A    between atoms: C_23  and  N_25
REMARK    7  A    between atoms: C_26  and  C_29
REMARK    8  A    between atoms: C_30  and  O_35
REMARK                            x       y       z     vdW  Elec       q    Type
REMARK                         _______ _______ _______ _____ _____    ______ ____
ROOT
ATOM      1  C   UNL     1      32.878 -13.147 -22.479  0.00  0.00    +0.125 C 
ATOM      2  C   UNL     1      31.706 -11.713 -20.421  0.00  0.00    -0.020 C 
ATOM      3  C   UNL     1      32.568 -11.813 -22.676  0.00  0.00    +0.020 C 
ATOM      4  C   UNL     1      32.616 -13.782 -21.278  0.00  0.00    +0.020 C 
ATOM      5  C   UNL     1      31.977 -11.090 -21.639  0.00  0.00    -0.003 C 
ATOM      6  C   UNL     1      32.026 -13.059 -20.240  0.00  0.00    -0.003 C 
ENDROOT
BRANCH   1   7
ATOM      7  S   UNL     1      33.626 -14.062 -23.793  0.00  0.00    +0.077 S 
ATOM      8  O   UNL     1      34.628 -13.219 -24.416  0.00  0.00    -0.150 OA
ATOM      9  O   UNL     1      32.547 -14.626 -24.579  0.00  0.00    -0.150 OA
BRANCH   7  12
ATOM     10  O   UNL     1      34.767 -16.815 -24.671  0.00  0.00    -0.251 OA
ATOM     11  N   UNL     1      35.459 -17.362 -22.534  0.00  0.00    -0.289 N 
ATOM     12  N   UNL     1      34.401 -15.312 -22.921  0.00  0.00    -0.169 N 
ATOM     13  C   UNL     1      34.875 -16.541 -23.480  0.00  0.00    +0.319 C 
ATOM     14  H   UNL     1      35.498 -17.052 -21.601  0.00  0.00    +0.151 HD
ATOM     15  H   UNL     1      34.533 -15.174 -21.955  0.00  0.00    +0.178 HD
BRANCH  11  16
ATOM     16  C   UNL     1      36.019 -18.657 -22.856  0.00  0.00    +0.073 C 
ATOM     17  C   UNL     1      34.961 -19.759 -22.732  0.00  0.00    +0.020 C 
ATOM     18  C   UNL     1      37.241 -18.960 -21.985  0.00  0.00    +0.020 C 
ATOM     19  C   UNL     1      34.590 -20.053 -21.279  0.00  0.00    +0.002 C 
ATOM     20  C   UNL     1      36.867 -19.256 -20.532  0.00  0.00    +0.002 C 
ATOM     21  C   UNL     1      35.822 -20.364 -20.435  0.00  0.00    +0.000 C 
ENDBRANCH  11  16
ENDBRANCH   7  12
ENDBRANCH   1   7
BRANCH   2  22
ATOM     22  C   UNL     1      31.074 -10.941 -19.312  0.00  0.00    +0.048 C 
BRANCH  22  23
ATOM     23  C   UNL     1      31.774  -9.609 -19.016  0.00  0.00    +0.094 C 
BRANCH  23  25
ATOM     24  O   UNL     1      33.560  -7.400 -19.427  0.00  0.00    -0.270 OA
ATOM     25  N   UNL     1      31.829  -8.753 -20.170  0.00  0.00    -0.300 N 
ATOM     26  C   UNL     1      32.732  -7.703 -20.282  0.00  0.00    +0.249 C 
ATOM     27  H   UNL     1      31.201  -8.917 -20.911  0.00  0.00    +0.150 HD
BRANCH  26  29
ATOM     28 CL   UNL     1      34.692  -6.599 -24.924  0.00  0.00    -0.082 Cl
ATOM     29  C   UNL     1      32.643  -6.894 -21.525  0.00  0.00    +0.088 C 
ATOM     30  C   UNL     1      31.633  -5.966 -21.669  0.00  0.00    +0.143 C 
ATOM     31  C   UNL     1      33.591  -7.107 -22.507  0.00  0.00    +0.019 C 
ATOM     32  C   UNL     1      31.567  -5.216 -22.844  0.00  0.00    +0.038 C 
ATOM     33  C   UNL     1      33.524  -6.358 -23.682  0.00  0.00    +0.058 C 
ATOM     34  C   UNL     1      32.513  -5.412 -23.850  0.00  0.00    +0.015 C 
BRANCH  30  35
ATOM     35  O   UNL     1      30.699  -5.759 -20.698  0.00  0.00    -0.471 OA
ATOM     36  C   UNL     1      29.520  -5.052 -21.075  0.00  0.00    +0.252 C 
ENDBRANCH  30  35
ENDBRANCH  26  29
ENDBRANCH  23  25
ENDBRANCH  22  23
ENDBRANCH   2  22
TORSDOF 8
ENDMDL
MODEL 9
REMARK VINA RESULT:     -10.7      4.268     11.641
REMARK  Name = 3488
REMARK  8 active torsions:
REMARK  status: ('A' for Active; 'I' for Inactive)
REMARK    1  A    between atoms: C_1  and  S_7
REMARK    2  A    between atoms: C_2  and  C_22
REMARK    3  A    between atoms: S_7  and  N_12
REMARK    4  A    between atoms: N_11  and  C_16
REMARK    5  A    between atoms: C_22  and  C_23
REMARK    6  A    between atoms: C_23  and  N_25
REMARK    7  A    between atoms: C_26  and  C_29
REMARK    8  A    between atoms: C_30  and  O_35
REMARK                            x       y       z     vdW  Elec       q    Type
REMARK                         _______ _______ _______ _____ _____    ______ ____
ROOT
ATOM      1  C   UNL     1      34.774 -20.659 -20.460  0.00  0.00    +0.125 C 
ATOM      2  C   UNL     1      33.910 -22.554 -18.635  0.00  0.00    -0.020 C 
ATOM      3  C   UNL     1      33.423 -20.761 -20.181  0.00  0.00    +0.020 C 
ATOM      4  C   UNL     1      35.705 -21.482 -19.849  0.00  0.00    +0.020 C 
ATOM      5  C   UNL     1      32.987 -21.716 -19.261  0.00  0.00    -0.003 C 
ATOM      6  C   UNL     1      35.270 -22.436 -18.929  0.00  0.00    -0.003 C 
ENDROOT
BRANCH   1   7
ATOM      7  S   UNL     1      35.326 -19.450 -21.626  0.00  0.00    +0.077 S 
ATOM      8  O   UNL     1      34.684 -19.723 -22.897  0.00  0.00    -0.150 OA
ATOM      9  O   UNL     1      36.771 -19.401 -21.527  0.00  0.00    -0.150 OA
BRANCH   7  12
ATOM     10  O   UNL     1      35.775 -16.445 -22.270  0.00  0.00    -0.251 OA
ATOM     11  N   UNL     1      34.294 -15.735 -20.643  0.00  0.00    -0.289 N 
ATOM     12  N   UNL     1      34.666 -18.023 -20.954  0.00  0.00    -0.169 N 
ATOM     13  C   UNL     1      34.981 -16.690 -21.367  0.00  0.00    +0.319 C 
ATOM     14  H   UNL     1      33.677 -16.033 -19.936  0.00  0.00    +0.151 HD
ATOM     15  H   UNL     1      34.014 -18.128 -20.223  0.00  0.00    +0.178 HD
BRANCH  11  16
ATOM     16  C   UNL     1      34.439 -14.315 -20.879  0.00  0.00    +0.073 C 
ATOM     17  C   UNL     1      33.392 -13.517 -20.093  0.00  0.00    +0.020 C 
ATOM     18  C   UNL     1      34.375 -13.995 -22.375  0.00  0.00    +0.020 C 
ATOM     19  C   UNL     1      31.985 -13.675 -20.669  0.00  0.00    +0.002 C 
ATOM     20  C   UNL     1      32.965 -14.152 -22.946  0.00  0.00    +0.002 C 
ATOM     21  C   UNL     1      31.944 -13.339 -22.157  0.00  0.00    +0.000 C 
ENDBRANCH  11  16
ENDBRANCH   7  12
ENDBRANCH   1   7
BRANCH   2  22
ATOM     22  C   UNL     1      33.445 -23.575 -17.653  0.00  0.00    +0.048 C 
BRANCH  22  23
ATOM     23  C   UNL     1      33.099 -22.989 -16.278  0.00  0.00    +0.094 C 
BRANCH  23  25
ATOM     24  O   UNL     1      33.146 -25.023 -14.253  0.00  0.00    -0.270 OA
ATOM     25  N   UNL     1      34.139 -23.213 -15.311  0.00  0.00    -0.300 N 
ATOM     26  C   UNL     1      34.076 -24.228 -14.363  0.00  0.00    +0.249 C 
ATOM     27  H   UNL     1      34.928 -22.624 -15.319  0.00  0.00    +0.150 HD
BRANCH  26  29
ATOM     28 CL   UNL     1      35.683 -24.668  -9.482  0.00  0.00    -0.082 Cl
ATOM     29  C   UNL     1      35.219 -24.311 -13.418  0.00  0.00    +0.088 C 
ATOM     30  C   UNL     1      36.511 -24.263 -13.898  0.00  0.00    +0.143 C 
ATOM     31  C   UNL     1      34.939 -24.434 -12.071  0.00  0.00    +0.019 C 
ATOM     32  C   UNL     1      37.571 -24.343 -12.994  0.00  0.00    +0.038 C 
ATOM     33  C   UNL     1      35.999 -24.514 -11.167  0.00  0.00    +0.058 C 
ATOM     34  C   UNL     1      37.314 -24.467 -11.628  0.00  0.00    +0.015 C 
BRANCH  30  35
ATOM     35  O   UNL     1      36.783 -24.142 -15.228  0.00  0.00    -0.471 OA
ATOM     36  C   UNL     1      37.847 -23.265 -15.593  0.00  0.00    +0.252 C 
ENDBRANCH  30  35
ENDBRANCH  26  29
ENDBRANCH  23  25
ENDBRANCH  22  23
ENDBRANCH   2  22
TORSDOF 8
ENDMDL
