MODEL 1
REMARK VINA RESULT:     -12.2      0.000      0.000
REMARK  Name = 448408
REMARK  8 active torsions:
REMARK  status: ('A' for Active; 'I' for Inactive)
REMARK    1  A    between atoms: N_2  and  C_25
REMARK    2  A    between atoms: C_3  and  C_6
REMARK    3  A    between atoms: C_5  and  N_12
REMARK    4  A    between atoms: C_25  and  C_26
REMARK    5  A    between atoms: C_27  and  S_32
REMARK    6  A    between atoms: S_32  and  C_33
REMARK    7  A    between atoms: C_34  and  C_39
REMARK    8  A    between atoms: C_39  and  O_40
REMARK                            x       y       z     vdW  Elec       q    Type
REMARK                         _______ _______ _______ _____ _____    ______ ____
ROOT
ATOM      1  O   UNL     1      32.865 -22.132 -19.732  0.00  0.00    -0.270 OA
ATOM      2  N   UNL     1      34.656 -22.959 -18.515  0.00  0.00    -0.297 N 
ATOM      3  C   UNL     1      34.059 -22.049 -19.395  0.00  0.00    +0.246 C 
ATOM      4  H   UNL     1      35.607 -22.835 -18.291  0.00  0.00    +0.150 HD
ENDROOT
BRANCH   3   6
ATOM      5  C   UNL     1      35.139 -18.862 -21.079  0.00  0.00    +0.090 C 
ATOM      6  C   UNL     1      34.907 -20.996 -19.931  0.00  0.00    +0.055 C 
ATOM      7  C   UNL     1      34.333 -19.888 -20.555  0.00  0.00    +0.023 C 
ATOM      8  C   UNL     1      36.534 -18.977 -20.961  0.00  0.00    +0.018 C 
ATOM      9  C   UNL     1      36.295 -21.095 -19.822  0.00  0.00    +0.005 C 
ATOM     10  C   UNL     1      37.108 -20.086 -20.337  0.00  0.00    +0.002 C 
BRANCH   5  12
ATOM     11  O   UNL     1      34.584 -16.489 -25.667  0.00  0.00    -0.207 OA
ATOM     12  N   UNL     1      34.567 -17.758 -21.700  0.00  0.00    -0.137 N 
ATOM     13  N   UNL     1      34.473 -16.519 -21.147  0.00  0.00    -0.215 N 
ATOM     14  N   UNL     1      34.598 -17.691 -23.091  0.00  0.00    -0.143 NA
ATOM     15  N   UNL     1      34.358 -14.331 -22.259  0.00  0.00    -0.309 NA
ATOM     16  N   UNL     1      34.422 -14.402 -24.671  0.00  0.00    -0.251 NA
ATOM     17  N   UNL     1      34.262 -12.374 -23.570  0.00  0.00    -0.283 N 
ATOM     18  C   UNL     1      34.438 -15.604 -22.147  0.00  0.00    +0.243 C 
ATOM     19  C   UNL     1      34.522 -16.426 -23.364  0.00  0.00    +0.241 C 
ATOM     20  C   UNL     1      34.512 -15.774 -24.679  0.00  0.00    +0.239 C 
ATOM     21  C   UNL     1      34.352 -13.747 -23.529  0.00  0.00    +0.208 C 
ATOM     22  H   UNL     1      34.437 -16.321 -20.183  0.00  0.00    +0.175 HD
ATOM     23  H   UNL     1      34.207 -11.859 -22.733  0.00  0.00    +0.156 HD
ATOM     24  H   UNL     1      34.253 -11.907 -24.437  0.00  0.00    +0.156 HD
ENDBRANCH   5  12
ENDBRANCH   3   6
BRANCH   2  25
ATOM     25  C   UNL     1      33.954 -24.073 -17.919  0.00  0.00    +0.117 C 
BRANCH  25  26
ATOM     26  C   UNL     1      33.435 -23.740 -16.550  0.00  0.00    +0.003 C 
ATOM     27  C   UNL     1      34.292 -23.486 -15.483  0.00  0.00    +0.027 C 
ATOM     28  C   UNL     1      32.055 -23.693 -16.372  0.00  0.00    -0.002 C 
ATOM     29  C   UNL     1      33.764 -23.182 -14.228  0.00  0.00    +0.006 C 
ATOM     30  C   UNL     1      31.528 -23.389 -15.118  0.00  0.00    -0.000 C 
ATOM     31  C   UNL     1      32.382 -23.133 -14.046  0.00  0.00    +0.000 C 
BRANCH  27  32
ATOM     32  S   UNL     1      36.069 -23.536 -15.666  0.00  0.00    -0.087 S 
BRANCH  32  33
ATOM     33  C   UNL     1      36.555 -24.242 -14.099  0.00  0.00    +0.028 C 
ATOM     34  C   UNL     1      36.577 -25.623 -13.890  0.00  0.00    +0.013 C 
ATOM     35  C   UNL     1      36.920 -23.377 -13.065  0.00  0.00    +0.006 C 
ATOM     36  C   UNL     1      36.963 -26.136 -12.652  0.00  0.00    -0.001 C 
ATOM     37  C   UNL     1      37.305 -23.891 -11.827  0.00  0.00    +0.000 C 
ATOM     38  C   UNL     1      37.326 -25.270 -11.620  0.00  0.00    -0.000 C 
BRANCH  34  39
ATOM     39  C   UNL     1      36.197 -26.591 -14.964  0.00  0.00    +0.164 C 
BRANCH  39  40
ATOM     40  O   UNL     1      37.376 -27.134 -15.543  0.00  0.00    -0.377 OA
ATOM     41  H   UNL     1      37.577 -27.986 -15.125  0.00  0.00    +0.211 HD
ENDBRANCH  39  40
ENDBRANCH  34  39
ENDBRANCH  32  33
ENDBRANCH  27  32
ENDBRANCH  25  26
ENDBRANCH   2  25
TORSDOF 8
ENDMDL
MODEL 2
REMARK VINA RESULT:     -12.1      2.244      3.045
REMARK  Name = 448408
REMARK  8 active torsions:
REMARK  status: ('A' for Active; 'I' for Inactive)
REMARK    1  A    between atoms: N_2  and  C_25
REMARK    2  A    between atoms: C_3  and  C_6
REMARK    3  A    between atoms: C_5  and  N_12
REMARK    4  A    between atoms: C_25  and  C_26
REMARK    5  A    between atoms: C_27  and  S_32
REMARK    6  A    between atoms: S_32  and  C_33
REMARK    7  A    between atoms: C_34  and  C_39
REMARK    8  A    between atoms: C_39  and  O_40
REMARK                            x       y       z     vdW  Elec       q    Type
REMARK                         _______ _______ _______ _____ _____    ______ ____
ROOT
ATOM      1  O   UNL     1      37.692 -19.787 -19.476  0.00  0.00    -0.270 OA
ATOM      2  N   UNL     1      35.949 -21.312 -19.352  0.00  0.00    -0.297 N 
ATOM      3  C   UNL     1      36.603 -20.206 -19.908  0.00  0.00    +0.246 C 
ATOM      4  H   UNL     1      35.089 -21.589 -19.744  0.00  0.00    +0.150 HD
ENDROOT
BRANCH   3   6
ATOM      5  C   UNL     1      35.122 -17.490 -22.050  0.00  0.00    +0.090 C 
ATOM      6  C   UNL     1      35.941 -19.535 -21.016  0.00  0.00    +0.055 C 
ATOM      7  C   UNL     1      35.761 -18.153 -20.987  0.00  0.00    +0.023 C 
ATOM      8  C   UNL     1      34.669 -18.250 -23.141  0.00  0.00    +0.018 C 
ATOM      9  C   UNL     1      35.485 -20.276 -22.108  0.00  0.00    +0.005 C 
ATOM     10  C   UNL     1      34.850 -19.634 -23.169  0.00  0.00    +0.002 C 
BRANCH   5  12
ATOM     11  O   UNL     1      32.126 -13.721 -20.098  0.00  0.00    -0.207 OA
ATOM     12  N   UNL     1      34.943 -16.112 -22.021  0.00  0.00    -0.137 N 
ATOM     13  N   UNL     1      35.149 -15.281 -23.077  0.00  0.00    -0.215 N 
ATOM     14  N   UNL     1      34.005 -15.584 -21.137  0.00  0.00    -0.143 NA
ATOM     15  N   UNL     1      34.119 -13.102 -23.558  0.00  0.00    -0.309 NA
ATOM     16  N   UNL     1      32.518 -12.341 -21.920  0.00  0.00    -0.251 NA
ATOM     17  N   UNL     1      32.987 -11.046 -23.778  0.00  0.00    -0.283 N 
ATOM     18  C   UNL     1      34.361 -14.188 -22.924  0.00  0.00    +0.243 C 
ATOM     19  C   UNL     1      33.656 -14.450 -21.660  0.00  0.00    +0.241 C 
ATOM     20  C   UNL     1      32.693 -13.467 -21.151  0.00  0.00    +0.239 C 
ATOM     21  C   UNL     1      33.194 -12.190 -23.042  0.00  0.00    +0.208 C 
ATOM     22  H   UNL     1      35.767 -15.445 -23.826  0.00  0.00    +0.175 HD
ATOM     23  H   UNL     1      33.479 -10.906 -24.620  0.00  0.00    +0.156 HD
ATOM     24  H   UNL     1      32.347 -10.367 -23.463  0.00  0.00    +0.156 HD
ENDBRANCH   5  12
ENDBRANCH   3   6
BRANCH   2  25
ATOM     25  C   UNL     1      36.467 -22.067 -18.234  0.00  0.00    +0.117 C 
BRANCH  25  26
ATOM     26  C   UNL     1      35.367 -22.656 -17.398  0.00  0.00    +0.003 C 
ATOM     27  C   UNL     1      35.587 -23.079 -16.090  0.00  0.00    +0.027 C 
ATOM     28  C   UNL     1      34.105 -22.769 -17.972  0.00  0.00    -0.002 C 
ATOM     29  C   UNL     1      34.536 -23.621 -15.351  0.00  0.00    +0.006 C 
ATOM     30  C   UNL     1      33.053 -23.311 -17.233  0.00  0.00    -0.000 C 
ATOM     31  C   UNL     1      33.269 -23.736 -15.923  0.00  0.00    +0.000 C 
BRANCH  27  32
ATOM     32  S   UNL     1      37.193 -22.952 -15.313  0.00  0.00    -0.087 S 
BRANCH  32  33
ATOM     33  C   UNL     1      37.205 -24.429 -14.308  0.00  0.00    +0.028 C 
ATOM     34  C   UNL     1      37.263 -24.368 -12.914  0.00  0.00    +0.013 C 
ATOM     35  C   UNL     1      37.155 -25.668 -14.948  0.00  0.00    +0.006 C 
ATOM     36  C   UNL     1      37.270 -25.544 -12.164  0.00  0.00    -0.001 C 
ATOM     37  C   UNL     1      37.163 -26.844 -14.197  0.00  0.00    +0.000 C 
ATOM     38  C   UNL     1      37.220 -26.782 -12.805  0.00  0.00    -0.000 C 
BRANCH  34  39
ATOM     39  C   UNL     1      37.318 -23.067 -12.180  0.00  0.00    +0.164 C 
BRANCH  39  40
ATOM     40  O   UNL     1      38.417 -23.084 -11.279  0.00  0.00    -0.377 OA
ATOM     41  H   UNL     1      38.248 -23.730 -10.575  0.00  0.00    +0.211 HD
ENDBRANCH  39  40
ENDBRANCH  34  39
ENDBRANCH  32  33
ENDBRANCH  27  32
ENDBRANCH  25  26
ENDBRANCH   2  25
TORSDOF 8
ENDMDL
MODEL 3
REMARK VINA RESULT:     -11.9      1.186      1.540
REMARK  Name = 448408
REMARK  8 active torsions:
REMARK  status: ('A' for Active; 'I' for Inactive)
REMARK    1  A    between atoms: N_2  and  C_25
REMARK    2  A    between atoms: C_3  and  C_6
REMARK    3  A    between atoms: C_5  and  N_12
REMARK    4  A    between atoms: C_25  and  C_26
REMARK    5  A    between atoms: C_27  and  S_32
REMARK    6  A    between atoms: S_32  and  C_33
REMARK    7  A    between atoms: C_34  and  C_39
REMARK    8  A    between atoms: C_39  and  O_40
REMARK                            x       y       z     vdW  Elec       q    Type
REMARK                         _______ _______ _______ _____ _____    ______ ____
ROOT
ATOM      1  O   UNL     1      32.814 -21.554 -19.936  0.00  0.00    -0.270 OA
ATOM      2  N   UNL     1      34.254 -22.793 -18.608  0.00  0.00    -0.297 N 
ATOM      3  C   UNL     1      33.959 -21.748 -19.491  0.00  0.00    +0.246 C 
ATOM      4  H   UNL     1      35.183 -22.890 -18.294  0.00  0.00    +0.150 HD
ENDROOT
BRANCH   3   6
ATOM      5  C   UNL     1      35.886 -18.952 -21.111  0.00  0.00    +0.090 C 
ATOM      6  C   UNL     1      35.064 -20.895 -19.897  0.00  0.00    +0.055 C 
ATOM      7  C   UNL     1      34.828 -19.786 -20.709  0.00  0.00    +0.023 C 
ATOM      8  C   UNL     1      37.186 -19.259 -20.677  0.00  0.00    +0.018 C 
ATOM      9  C   UNL     1      36.362 -21.187 -19.475  0.00  0.00    +0.005 C 
ATOM     10  C   UNL     1      37.422 -20.369 -19.864  0.00  0.00    +0.002 C 
BRANCH   5  12
ATOM     11  O   UNL     1      33.403 -14.392 -21.309  0.00  0.00    -0.207 OA
ATOM     12  N   UNL     1      35.650 -17.846 -21.919  0.00  0.00    -0.137 N 
ATOM     13  N   UNL     1      35.491 -17.892 -23.269  0.00  0.00    -0.215 N 
ATOM     14  N   UNL     1      34.988 -16.752 -21.368  0.00  0.00    -0.143 NA
ATOM     15  N   UNL     1      34.251 -16.358 -24.735  0.00  0.00    -0.309 NA
ATOM     16  N   UNL     1      33.166 -14.518 -23.612  0.00  0.00    -0.251 NA
ATOM     17  N   UNL     1      32.997 -14.743 -25.907  0.00  0.00    -0.283 N 
ATOM     18  C   UNL     1      34.727 -16.837 -23.647  0.00  0.00    +0.243 C 
ATOM     19  C   UNL     1      34.441 -16.151 -22.378  0.00  0.00    +0.241 C 
ATOM     20  C   UNL     1      33.620 -14.934 -22.383  0.00  0.00    +0.239 C 
ATOM     21  C   UNL     1      33.472 -15.198 -24.699  0.00  0.00    +0.208 C 
ATOM     22  H   UNL     1      35.868 -18.575 -23.870  0.00  0.00    +0.175 HD
ATOM     23  H   UNL     1      33.210 -15.230 -26.736  0.00  0.00    +0.156 HD
ATOM     24  H   UNL     1      32.443 -13.930 -25.943  0.00  0.00    +0.156 HD
ENDBRANCH   5  12
ENDBRANCH   3   6
BRANCH   2  25
ATOM     25  C   UNL     1      33.270 -23.740 -18.131  0.00  0.00    +0.117 C 
BRANCH  25  26
ATOM     26  C   UNL     1      32.918 -23.505 -16.691  0.00  0.00    +0.003 C 
ATOM     27  C   UNL     1      33.887 -23.490 -15.692  0.00  0.00    +0.027 C 
ATOM     28  C   UNL     1      31.578 -23.302 -16.376  0.00  0.00    -0.002 C 
ATOM     29  C   UNL     1      33.513 -23.270 -14.367  0.00  0.00    +0.006 C 
ATOM     30  C   UNL     1      31.204 -23.081 -15.050  0.00  0.00    -0.000 C 
ATOM     31  C   UNL     1      32.171 -23.065 -14.046  0.00  0.00    +0.000 C 
BRANCH  27  32
ATOM     32  S   UNL     1      35.620 -23.748 -16.053  0.00  0.00    -0.087 S 
BRANCH  32  33
ATOM     33  C   UNL     1      36.237 -24.226 -14.446  0.00  0.00    +0.028 C 
ATOM     34  C   UNL     1      36.412 -25.566 -14.095  0.00  0.00    +0.013 C 
ATOM     35  C   UNL     1      36.546 -23.221 -13.528  0.00  0.00    +0.006 C 
ATOM     36  C   UNL     1      36.896 -25.899 -12.830  0.00  0.00    -0.001 C 
ATOM     37  C   UNL     1      37.030 -23.555 -12.263  0.00  0.00    +0.000 C 
ATOM     38  C   UNL     1      37.205 -24.894 -11.914  0.00  0.00    -0.000 C 
BRANCH  34  39
ATOM     39  C   UNL     1      36.096 -26.679 -15.041  0.00  0.00    +0.164 C 
BRANCH  39  40
ATOM     40  O   UNL     1      37.305 -27.187 -15.588  0.00  0.00    -0.377 OA
ATOM     41  H   UNL     1      38.027 -26.564 -15.408  0.00  0.00    +0.211 HD
ENDBRANCH  39  40
ENDBRANCH  34  39
ENDBRANCH  32  33
ENDBRANCH  27  32
ENDBRANCH  25  26
ENDBRANCH   2  25
TORSDOF 8
ENDMDL
MODEL 4
REMARK VINA RESULT:     -11.7      3.549     11.243
REMARK  Name = 448408
REMARK  8 active torsions:
REMARK  status: ('A' for Active; 'I' for Inactive)
REMARK    1  A    between atoms: N_2  and  C_25
REMARK    2  A    between atoms: C_3  and  C_6
REMARK    3  A    between atoms: C_5  and  N_12
REMARK    4  A    between atoms: C_25  and  C_26
REMARK    5  A    between atoms: C_27  and  S_32
REMARK    6  A    between atoms: S_32  and  C_33
REMARK    7  A    between atoms: C_34  and  C_39
REMARK    8  A    between atoms: C_39  and  O_40
REMARK                            x       y       z     vdW  Elec       q    Type
REMARK                         _______ _______ _______ _____ _____    ______ ____
ROOT
ATOM      1  O   UNL     1      33.857 -23.478 -19.816  0.00  0.00    -0.270 OA
ATOM      2  N   UNL     1      33.496 -21.267 -19.218  0.00  0.00    -0.297 N 
ATOM      3  C   UNL     1      33.568 -22.638 -18.945  0.00  0.00    +0.246 C 
ATOM      4  H   UNL     1      33.261 -20.658 -18.481  0.00  0.00    +0.150 HD
ENDROOT
BRANCH   3   6
ATOM      5  C   UNL     1      33.969 -24.065 -15.487  0.00  0.00    +0.090 C 
ATOM      6  C   UNL     1      33.262 -23.058 -17.586  0.00  0.00    +0.055 C 
ATOM      7  C   UNL     1      34.250 -23.654 -16.801  0.00  0.00    +0.023 C 
ATOM      8  C   UNL     1      32.674 -23.864 -14.981  0.00  0.00    +0.018 C 
ATOM      9  C   UNL     1      31.981 -22.865 -17.069  0.00  0.00    +0.005 C 
ATOM     10  C   UNL     1      31.687 -23.268 -15.767  0.00  0.00    +0.002 C 
BRANCH   5  12
ATOM     11  O   UNL     1      37.715 -23.050 -12.032  0.00  0.00    -0.207 OA
ATOM     12  N   UNL     1      34.953 -24.658 -14.704  0.00  0.00    -0.137 N 
ATOM     13  N   UNL     1      35.713 -25.719 -15.085  0.00  0.00    -0.215 N 
ATOM     14  N   UNL     1      35.616 -23.871 -13.765  0.00  0.00    -0.143 NA
ATOM     15  N   UNL     1      37.971 -26.352 -14.347  0.00  0.00    -0.309 NA
ATOM     16  N   UNL     1      38.968 -24.877 -12.717  0.00  0.00    -0.251 NA
ATOM     17  N   UNL     1      40.126 -26.731 -13.473  0.00  0.00    -0.283 N 
ATOM     18  C   UNL     1      36.891 -25.666 -14.415  0.00  0.00    +0.243 C 
ATOM     19  C   UNL     1      36.759 -24.457 -13.588  0.00  0.00    +0.241 C 
ATOM     20  C   UNL     1      37.861 -24.061 -12.703  0.00  0.00    +0.239 C 
ATOM     21  C   UNL     1      38.999 -25.943 -13.493  0.00  0.00    +0.208 C 
ATOM     22  H   UNL     1      35.452 -26.409 -15.738  0.00  0.00    +0.175 HD
ATOM     23  H   UNL     1      40.178 -27.533 -14.041  0.00  0.00    +0.156 HD
ATOM     24  H   UNL     1      40.883 -26.492 -12.890  0.00  0.00    +0.156 HD
ENDBRANCH   5  12
ENDBRANCH   3   6
BRANCH   2  25
ATOM     25  C   UNL     1      33.748 -20.697 -20.522  0.00  0.00    +0.117 C 
BRANCH  25  26
ATOM     26  C   UNL     1      35.158 -20.198 -20.654  0.00  0.00    +0.003 C 
ATOM     27  C   UNL     1      35.540 -19.345 -21.685  0.00  0.00    +0.027 C 
ATOM     28  C   UNL     1      36.086 -20.618 -19.706  0.00  0.00    -0.002 C 
ATOM     29  C   UNL     1      36.862 -18.908 -21.768  0.00  0.00    +0.006 C 
ATOM     30  C   UNL     1      37.408 -20.181 -19.789  0.00  0.00    -0.000 C 
ATOM     31  C   UNL     1      37.796 -19.326 -20.819  0.00  0.00    +0.000 C 
BRANCH  27  32
ATOM     32  S   UNL     1      34.381 -18.781 -22.924  0.00  0.00    -0.087 S 
BRANCH  32  33
ATOM     33  C   UNL     1      34.432 -17.014 -22.663  0.00  0.00    +0.028 C 
ATOM     34  C   UNL     1      34.533 -16.117 -23.728  0.00  0.00    +0.013 C 
ATOM     35  C   UNL     1      34.371 -16.535 -21.353  0.00  0.00    +0.006 C 
ATOM     36  C   UNL     1      34.570 -14.744 -23.483  0.00  0.00    -0.001 C 
ATOM     37  C   UNL     1      34.409 -15.162 -21.109  0.00  0.00    +0.000 C 
ATOM     38  C   UNL     1      34.508 -14.267 -22.174  0.00  0.00    -0.000 C 
BRANCH  34  39
ATOM     39  C   UNL     1      34.602 -16.579 -25.148  0.00  0.00    +0.164 C 
BRANCH  39  40
ATOM     40  O   UNL     1      33.923 -15.645 -25.977  0.00  0.00    -0.377 OA
ATOM     41  H   UNL     1      33.558 -14.932 -25.430  0.00  0.00    +0.211 HD
ENDBRANCH  39  40
ENDBRANCH  34  39
ENDBRANCH  32  33
ENDBRANCH  27  32
ENDBRANCH  25  26
ENDBRANCH   2  25
TORSDOF 8
ENDMDL
MODEL 5
REMARK VINA RESULT:     -11.6      3.563     11.366
REMARK  Name = 448408
REMARK  8 active torsions:
REMARK  status: ('A' for Active; 'I' for Inactive)
REMARK    1  A    between atoms: N_2  and  C_25
REMARK    2  A    between atoms: C_3  and  C_6
REMARK    3  A    between atoms: C_5  and  N_12
REMARK    4  A    between atoms: C_25  and  C_26
REMARK    5  A    between atoms: C_27  and  S_32
REMARK    6  A    between atoms: S_32  and  C_33
REMARK    7  A    between atoms: C_34  and  C_39
REMARK    8  A    between atoms: C_39  and  O_40
REMARK                            x       y       z     vdW  Elec       q    Type
REMARK                         _______ _______ _______ _____ _____    ______ ____
ROOT
ATOM      1  O   UNL     1      37.168 -20.937 -20.044  0.00  0.00    -0.270 OA
ATOM      2  N   UNL     1      35.298 -19.650 -20.519  0.00  0.00    -0.297 N 
ATOM      3  C   UNL     1      35.954 -20.714 -19.887  0.00  0.00    +0.246 C 
ATOM      4  H   UNL     1      34.335 -19.532 -20.350  0.00  0.00    +0.150 HD
ENDROOT
BRANCH   3   6
ATOM      5  C   UNL     1      34.956 -23.067 -17.127  0.00  0.00    +0.090 C 
ATOM      6  C   UNL     1      35.146 -21.581 -19.044  0.00  0.00    +0.055 C 
ATOM      7  C   UNL     1      35.723 -22.225 -17.950  0.00  0.00    +0.023 C 
ATOM      8  C   UNL     1      33.596 -23.246 -17.429  0.00  0.00    +0.018 C 
ATOM      9  C   UNL     1      33.793 -21.769 -19.331  0.00  0.00    +0.005 C 
ATOM     10  C   UNL     1      33.019 -22.601 -18.524  0.00  0.00    +0.002 C 
BRANCH   5  12
ATOM     11  O   UNL     1      34.071 -24.546 -12.225  0.00  0.00    -0.207 OA
ATOM     12  N   UNL     1      35.531 -23.708 -16.035  0.00  0.00    -0.137 N 
ATOM     13  N   UNL     1      36.838 -23.607 -15.676  0.00  0.00    -0.215 N 
ATOM     14  N   UNL     1      34.724 -23.998 -14.937  0.00  0.00    -0.143 NA
ATOM     15  N   UNL     1      37.858 -23.863 -13.455  0.00  0.00    -0.309 NA
ATOM     16  N   UNL     1      36.314 -24.363 -11.669  0.00  0.00    -0.251 NA
ATOM     17  N   UNL     1      38.576 -24.157 -11.229  0.00  0.00    -0.283 N 
ATOM     18  C   UNL     1      36.935 -23.825 -14.341  0.00  0.00    +0.243 C 
ATOM     19  C   UNL     1      35.542 -24.069 -13.934  0.00  0.00    +0.241 C 
ATOM     20  C   UNL     1      35.239 -24.350 -12.526  0.00  0.00    +0.239 C 
ATOM     21  C   UNL     1      37.530 -24.132 -12.123  0.00  0.00    +0.208 C 
ATOM     22  H   UNL     1      37.588 -23.409 -16.283  0.00  0.00    +0.175 HD
ATOM     23  H   UNL     1      39.494 -23.989 -11.540  0.00  0.00    +0.156 HD
ATOM     24  H   UNL     1      38.404 -24.342 -10.277  0.00  0.00    +0.156 HD
ENDBRANCH   5  12
ENDBRANCH   3   6
BRANCH   2  25
ATOM     25  C   UNL     1      35.957 -18.717 -21.404  0.00  0.00    +0.117 C 
BRANCH  25  26
ATOM     26  C   UNL     1      35.234 -18.580 -22.713  0.00  0.00    +0.003 C 
ATOM     27  C   UNL     1      35.076 -17.346 -23.337  0.00  0.00    +0.027 C 
ATOM     28  C   UNL     1      34.719 -19.735 -23.294  0.00  0.00    -0.002 C 
ATOM     29  C   UNL     1      34.396 -17.267 -24.552  0.00  0.00    +0.006 C 
ATOM     30  C   UNL     1      34.039 -19.656 -24.509  0.00  0.00    -0.000 C 
ATOM     31  C   UNL     1      33.878 -18.422 -25.138  0.00  0.00    +0.000 C 
BRANCH  27  32
ATOM     32  S   UNL     1      35.722 -15.838 -22.627  0.00  0.00    -0.087 S 
BRANCH  32  33
ATOM     33  C   UNL     1      34.263 -15.182 -21.831  0.00  0.00    +0.028 C 
ATOM     34  C   UNL     1      33.483 -14.190 -22.429  0.00  0.00    +0.013 C 
ATOM     35  C   UNL     1      33.908 -15.685 -20.578  0.00  0.00    +0.006 C 
ATOM     36  C   UNL     1      32.351 -13.704 -21.775  0.00  0.00    -0.001 C 
ATOM     37  C   UNL     1      32.776 -15.197 -19.925  0.00  0.00    +0.000 C 
ATOM     38  C   UNL     1      31.997 -14.207 -20.523  0.00  0.00    -0.000 C 
BRANCH  34  39
ATOM     39  C   UNL     1      33.820 -13.619 -23.769  0.00  0.00    +0.164 C 
BRANCH  39  40
ATOM     40  O   UNL     1      34.501 -12.384 -23.593  0.00  0.00    -0.377 OA
ATOM     41  H   UNL     1      33.963 -11.793 -23.043  0.00  0.00    +0.211 HD
ENDBRANCH  39  40
ENDBRANCH  34  39
ENDBRANCH  32  33
ENDBRANCH  27  32
ENDBRANCH  25  26
ENDBRANCH   2  25
TORSDOF 8
ENDMDL
MODEL 6
REMARK VINA RESULT:     -11.6      5.077     13.133
REMARK  Name = 448408
REMARK  8 active torsions:
REMARK  status: ('A' for Active; 'I' for Inactive)
REMARK    1  A    between atoms: N_2  and  C_25
REMARK    2  A    between atoms: C_3  and  C_6
REMARK    3  A    between atoms: C_5  and  N_12
REMARK    4  A    between atoms: C_25  and  C_26
REMARK    5  A    between atoms: C_27  and  S_32
REMARK    6  A    between atoms: S_32  and  C_33
REMARK    7  A    between atoms: C_34  and  C_39
REMARK    8  A    between atoms: C_39  and  O_40
REMARK                            x       y       z     vdW  Elec       q    Type
REMARK                         _______ _______ _______ _____ _____    ______ ____
ROOT
ATOM      1  O   UNL     1      34.541 -14.702 -20.863  0.00  0.00    -0.270 OA
ATOM      2  N   UNL     1      33.083 -14.316 -22.624  0.00  0.00    -0.297 N 
ATOM      3  C   UNL     1      34.036 -15.076 -21.937  0.00  0.00    +0.246 C 
ATOM      4  H   UNL     1      32.725 -14.672 -23.470  0.00  0.00    +0.150 HD
ENDROOT
BRANCH   3   6
ATOM      5  C   UNL     1      35.150 -18.650 -22.314  0.00  0.00    +0.090 C 
ATOM      6  C   UNL     1      34.442 -16.333 -22.545  0.00  0.00    +0.055 C 
ATOM      7  C   UNL     1      34.755 -17.429 -21.740  0.00  0.00    +0.023 C 
ATOM      8  C   UNL     1      35.222 -18.744 -23.714  0.00  0.00    +0.018 C 
ATOM      9  C   UNL     1      34.518 -16.443 -23.934  0.00  0.00    +0.005 C 
ATOM     10  C   UNL     1      34.908 -17.648 -24.518  0.00  0.00    +0.002 C 
BRANCH   5  12
ATOM     11  O   UNL     1      33.057 -22.398 -19.386  0.00  0.00    -0.207 OA
ATOM     12  N   UNL     1      35.461 -19.742 -21.512  0.00  0.00    -0.137 N 
ATOM     13  N   UNL     1      36.535 -19.813 -20.681  0.00  0.00    -0.215 N 
ATOM     14  N   UNL     1      34.422 -20.556 -21.068  0.00  0.00    -0.143 NA
ATOM     15  N   UNL     1      36.817 -21.130 -18.625  0.00  0.00    -0.309 NA
ATOM     16  N   UNL     1      34.917 -22.482 -18.004  0.00  0.00    -0.251 NA
ATOM     17  N   UNL     1      36.826 -22.487 -16.698  0.00  0.00    -0.283 N 
ATOM     18  C   UNL     1      36.240 -20.668 -19.671  0.00  0.00    +0.243 C 
ATOM     19  C   UNL     1      34.870 -21.106 -19.983  0.00  0.00    +0.241 C 
ATOM     20  C   UNL     1      34.195 -22.059 -19.095  0.00  0.00    +0.239 C 
ATOM     21  C   UNL     1      36.141 -22.035 -17.802  0.00  0.00    +0.208 C 
ATOM     22  H   UNL     1      37.383 -19.325 -20.793  0.00  0.00    +0.175 HD
ATOM     23  H   UNL     1      37.741 -22.171 -16.522  0.00  0.00    +0.156 HD
ATOM     24  H   UNL     1      36.399 -23.127 -16.082  0.00  0.00    +0.156 HD
ENDBRANCH   5  12
ENDBRANCH   3   6
BRANCH   2  25
ATOM     25  C   UNL     1      32.597 -13.035 -22.162  0.00  0.00    +0.117 C 
BRANCH  25  26
ATOM     26  C   UNL     1      33.253 -11.893 -22.881  0.00  0.00    +0.003 C 
ATOM     27  C   UNL     1      32.873 -10.572 -22.661  0.00  0.00    +0.027 C 
ATOM     28  C   UNL     1      34.267 -12.192 -23.787  0.00  0.00    -0.002 C 
ATOM     29  C   UNL     1      33.510  -9.543 -23.353  0.00  0.00    +0.006 C 
ATOM     30  C   UNL     1      34.904 -11.163 -24.479  0.00  0.00    -0.000 C 
ATOM     31  C   UNL     1      34.527  -9.839 -24.262  0.00  0.00    +0.000 C 
BRANCH  27  32
ATOM     32  S   UNL     1      31.576 -10.142 -21.507  0.00  0.00    -0.087 S 
BRANCH  32  33
ATOM     33  C   UNL     1      31.470  -8.376 -21.754  0.00  0.00    +0.028 C 
ATOM     34  C   UNL     1      31.920  -7.471 -20.791  0.00  0.00    +0.013 C 
ATOM     35  C   UNL     1      30.918  -7.905 -22.947  0.00  0.00    +0.006 C 
ATOM     36  C   UNL     1      31.820  -6.099 -21.021  0.00  0.00    -0.001 C 
ATOM     37  C   UNL     1      30.817  -6.533 -23.176  0.00  0.00    +0.000 C 
ATOM     38  C   UNL     1      31.268  -5.630 -22.213  0.00  0.00    -0.000 C 
BRANCH  34  39
ATOM     39  C   UNL     1      32.518  -7.924 -19.498  0.00  0.00    +0.164 C 
BRANCH  39  40
ATOM     40  O   UNL     1      33.572  -7.041 -19.135  0.00  0.00    -0.377 OA
ATOM     41  H   UNL     1      33.970  -7.339 -18.303  0.00  0.00    +0.211 HD
ENDBRANCH  39  40
ENDBRANCH  34  39
ENDBRANCH  32  33
ENDBRANCH  27  32
ENDBRANCH  25  26
ENDBRANCH   2  25
TORSDOF 8
ENDMDL
MODEL 7
REMARK VINA RESULT:     -11.3      6.504     13.678
REMARK  Name = 448408
REMARK  8 active torsions:
REMARK  status: ('A' for Active; 'I' for Inactive)
REMARK    1  A    between atoms: N_2  and  C_25
REMARK    2  A    between atoms: C_3  and  C_6
REMARK    3  A    between atoms: C_5  and  N_12
REMARK    4  A    between atoms: C_25  and  C_26
REMARK    5  A    between atoms: C_27  and  S_32
REMARK    6  A    between atoms: S_32  and  C_33
REMARK    7  A    between atoms: C_34  and  C_39
REMARK    8  A    between atoms: C_39  and  O_40
REMARK                            x       y       z     vdW  Elec       q    Type
REMARK                         _______ _______ _______ _____ _____    ______ ____
ROOT
ATOM      1  O   UNL     1      34.741 -10.748 -24.008  0.00  0.00    -0.270 OA
ATOM      2  N   UNL     1      32.586 -11.132 -23.244  0.00  0.00    -0.297 N 
ATOM      3  C   UNL     1      33.761 -11.507 -23.906  0.00  0.00    +0.246 C 
ATOM      4  H   UNL     1      31.848 -11.783 -23.200  0.00  0.00    +0.150 HD
ENDROOT
BRANCH   3   6
ATOM      5  C   UNL     1      34.384 -15.188 -24.370  0.00  0.00    +0.090 C 
ATOM      6  C   UNL     1      33.787 -12.832 -24.503  0.00  0.00    +0.055 C 
ATOM      7  C   UNL     1      34.350 -13.901 -23.806  0.00  0.00    +0.023 C 
ATOM      8  C   UNL     1      33.840 -15.375 -25.652  0.00  0.00    +0.018 C 
ATOM      9  C   UNL     1      33.251 -13.035 -25.776  0.00  0.00    +0.005 C 
ATOM     10  C   UNL     1      33.277 -14.305 -26.349  0.00  0.00    +0.002 C 
BRANCH   5  12
ATOM     11  O   UNL     1      34.869 -20.361 -24.364  0.00  0.00    -0.207 OA
ATOM     12  N   UNL     1      34.944 -16.254 -23.675  0.00  0.00    -0.137 N 
ATOM     13  N   UNL     1      35.042 -16.330 -22.321  0.00  0.00    -0.215 N 
ATOM     14  N   UNL     1      34.894 -17.520 -24.252  0.00  0.00    -0.143 NA
ATOM     15  N   UNL     1      35.136 -18.323 -20.885  0.00  0.00    -0.309 NA
ATOM     16  N   UNL     1      35.038 -20.433 -22.053  0.00  0.00    -0.251 NA
ATOM     17  N   UNL     1      35.208 -20.385 -19.746  0.00  0.00    -0.283 N 
ATOM     18  C   UNL     1      35.061 -17.639 -21.965  0.00  0.00    +0.243 C 
ATOM     19  C   UNL     1      34.962 -18.344 -23.253  0.00  0.00    +0.241 C 
ATOM     20  C   UNL     1      34.953 -19.811 -23.275  0.00  0.00    +0.239 C 
ATOM     21  C   UNL     1      35.123 -19.719 -20.947  0.00  0.00    +0.208 C 
ATOM     22  H   UNL     1      35.091 -15.565 -21.704  0.00  0.00    +0.175 HD
ATOM     23  H   UNL     1      35.273 -19.878 -18.905  0.00  0.00    +0.156 HD
ATOM     24  H   UNL     1      35.204 -21.370 -19.728  0.00  0.00    +0.156 HD
ENDBRANCH   5  12
ENDBRANCH   3   6
BRANCH   2  25
ATOM     25  C   UNL     1      32.396  -9.841 -22.620  0.00  0.00    +0.117 C 
BRANCH  25  26
ATOM     26  C   UNL     1      31.961  -9.968 -21.189  0.00  0.00    +0.003 C 
ATOM     27  C   UNL     1      32.361  -9.055 -20.218  0.00  0.00    +0.027 C 
ATOM     28  C   UNL     1      31.136 -11.037 -20.854  0.00  0.00    -0.002 C 
ATOM     29  C   UNL     1      31.933  -9.213 -18.900  0.00  0.00    +0.006 C 
ATOM     30  C   UNL     1      30.707 -11.195 -19.536  0.00  0.00    -0.000 C 
ATOM     31  C   UNL     1      31.105 -10.284 -18.560  0.00  0.00    +0.000 C 
BRANCH  27  32
ATOM     32  S   UNL     1      33.421  -7.668 -20.604  0.00  0.00    -0.087 S 
BRANCH  32  33
ATOM     33  C   UNL     1      32.277  -6.589 -21.453  0.00  0.00    +0.028 C 
ATOM     34  C   UNL     1      32.527  -6.124 -22.745  0.00  0.00    +0.013 C 
ATOM     35  C   UNL     1      31.108  -6.210 -20.791  0.00  0.00    +0.006 C 
ATOM     36  C   UNL     1      31.609  -5.283 -23.375  0.00  0.00    -0.001 C 
ATOM     37  C   UNL     1      30.191  -5.368 -21.421  0.00  0.00    +0.000 C 
ATOM     38  C   UNL     1      30.442  -4.905 -22.713  0.00  0.00    -0.000 C 
BRANCH  34  39
ATOM     39  C   UNL     1      33.764  -6.501 -23.496  0.00  0.00    +0.164 C 
BRANCH  39  40
ATOM     40  O   UNL     1      33.925  -5.624 -24.603  0.00  0.00    -0.377 OA
ATOM     41  H   UNL     1      34.852  -5.345 -24.663  0.00  0.00    +0.211 HD
ENDBRANCH  39  40
ENDBRANCH  34  39
ENDBRANCH  32  33
ENDBRANCH  27  32
ENDBRANCH  25  26
ENDBRANCH   2  25
TORSDOF 8
ENDMDL
MODEL 8
REMARK VINA RESULT:     -11.3      3.503     11.924
REMARK  Name = 448408
REMARK  8 active torsions:
REMARK  status: ('A' for Active; 'I' for Inactive)
REMARK    1  A    between atoms: N_2  and  C_25
REMARK    2  A    between atoms: C_3  and  C_6
REMARK    3  A    between atoms: C_5  and  N_12
REMARK    4  A    between atoms: C_25  and  C_26
REMARK    5  A    between atoms: C_27  and  S_32
REMARK    6  A    between atoms: S_32  and  C_33
REMARK    7  A    between atoms: C_34  and  C_39
REMARK    8  A    between atoms: C_39  and  O_40
REMARK                            x       y       z     vdW  Elec       q    Type
REMARK                         _______ _______ _______ _____ _____    ______ ____
ROOT
ATOM      1  O   UNL     1      36.790 -19.155 -21.523  0.00  0.00    -0.270 OA
ATOM      2  N   UNL     1      34.903 -17.847 -21.842  0.00  0.00    -0.297 N 
ATOM      3  C   UNL     1      35.571 -18.975 -21.353  0.00  0.00    +0.246 C 
ATOM      4  H   UNL     1      33.936 -17.769 -21.671  0.00  0.00    +0.150 HD
ENDROOT
BRANCH   3   6
ATOM      5  C   UNL     1      34.600 -21.735 -18.987  0.00  0.00    +0.090 C 
ATOM      6  C   UNL     1      34.771 -19.962 -20.646  0.00  0.00    +0.055 C 
ATOM      7  C   UNL     1      35.361 -20.776 -19.679  0.00  0.00    +0.023 C 
ATOM      8  C   UNL     1      33.234 -21.857 -19.291  0.00  0.00    +0.018 C 
ATOM      9  C   UNL     1      33.412 -20.096 -20.936  0.00  0.00    +0.005 C 
ATOM     10  C   UNL     1      32.645 -21.042 -20.259  0.00  0.00    +0.002 C 
BRANCH   5  12
ATOM     11  O   UNL     1      33.598 -24.525 -14.720  0.00  0.00    -0.207 OA
ATOM     12  N   UNL     1      35.188 -22.546 -18.023  0.00  0.00    -0.137 N 
ATOM     13  N   UNL     1      36.429 -22.356 -17.501  0.00  0.00    -0.215 N 
ATOM     14  N   UNL     1      34.359 -23.217 -17.127  0.00  0.00    -0.143 NA
ATOM     15  N   UNL     1      37.304 -23.023 -15.303  0.00  0.00    -0.309 NA
ATOM     16  N   UNL     1      35.731 -24.175 -13.880  0.00  0.00    -0.251 NA
ATOM     17  N   UNL     1      37.887 -23.771 -13.145  0.00  0.00    -0.283 N 
ATOM     18  C   UNL     1      36.458 -22.891 -16.255  0.00  0.00    +0.243 C 
ATOM     19  C   UNL     1      35.098 -23.425 -16.082  0.00  0.00    +0.241 C 
ATOM     20  C   UNL     1      34.738 -24.095 -14.828  0.00  0.00    +0.239 C 
ATOM     21  C   UNL     1      36.923 -23.667 -14.122  0.00  0.00    +0.208 C 
ATOM     22  H   UNL     1      37.180 -21.906 -17.952  0.00  0.00    +0.175 HD
ATOM     23  H   UNL     1      38.786 -23.401 -13.298  0.00  0.00    +0.156 HD
ATOM     24  H   UNL     1      37.676 -24.215 -12.292  0.00  0.00    +0.156 HD
ENDBRANCH   5  12
ENDBRANCH   3   6
BRANCH   2  25
ATOM     25  C   UNL     1      35.554 -16.791 -22.584  0.00  0.00    +0.117 C 
BRANCH  25  26
ATOM     26  C   UNL     1      34.654 -16.207 -23.634  0.00  0.00    +0.003 C 
ATOM     27  C   UNL     1      33.900 -15.061 -23.399  0.00  0.00    +0.027 C 
ATOM     28  C   UNL     1      34.592 -16.850 -24.867  0.00  0.00    -0.002 C 
ATOM     29  C   UNL     1      33.077 -14.555 -24.405  0.00  0.00    +0.006 C 
ATOM     30  C   UNL     1      33.769 -16.344 -25.872  0.00  0.00    -0.000 C 
ATOM     31  C   UNL     1      33.012 -15.196 -25.642  0.00  0.00    +0.000 C 
BRANCH  27  32
ATOM     32  S   UNL     1      33.949 -14.203 -21.831  0.00  0.00    -0.087 S 
BRANCH  32  33
ATOM     33  C   UNL     1      33.440 -12.562 -22.322  0.00  0.00    +0.028 C 
ATOM     34  C   UNL     1      32.343 -11.928 -21.737  0.00  0.00    +0.013 C 
ATOM     35  C   UNL     1      34.169 -11.912 -23.319  0.00  0.00    +0.006 C 
ATOM     36  C   UNL     1      31.977 -10.646 -22.147  0.00  0.00    -0.001 C 
ATOM     37  C   UNL     1      33.802 -10.631 -23.730  0.00  0.00    +0.000 C 
ATOM     38  C   UNL     1      32.706  -9.997 -23.144  0.00  0.00    -0.000 C 
BRANCH  34  39
ATOM     39  C   UNL     1      31.530 -12.580 -20.665  0.00  0.00    +0.164 C 
BRANCH  39  40
ATOM     40  O   UNL     1      30.283 -11.908 -20.548  0.00  0.00    -0.377 OA
ATOM     41  H   UNL     1      29.948 -11.693 -21.433  0.00  0.00    +0.211 HD
ENDBRANCH  39  40
ENDBRANCH  34  39
ENDBRANCH  32  33
ENDBRANCH  27  32
ENDBRANCH  25  26
ENDBRANCH   2  25
TORSDOF 8
ENDMDL
MODEL 9
REMARK VINA RESULT:     -11.1      5.287     12.904
REMARK  Name = 448408
REMARK  8 active torsions:
REMARK  status: ('A' for Active; 'I' for Inactive)
REMARK    1  A    between atoms: N_2  and  C_25
REMARK    2  A    between atoms: C_3  and  C_6
REMARK    3  A    between atoms: C_5  and  N_12
REMARK    4  A    between atoms: C_25  and  C_26
REMARK    5  A    between atoms: C_27  and  S_32
REMARK    6  A    between atoms: S_32  and  C_33
REMARK    7  A    between atoms: C_34  and  C_39
REMARK    8  A    between atoms: C_39  and  O_40
REMARK                            x       y       z     vdW  Elec       q    Type
REMARK                         _______ _______ _______ _____ _____    ______ ____
ROOT
ATOM      1  O   UNL     1      35.077 -14.359 -21.633  0.00  0.00    -0.270 OA
ATOM      2  N   UNL     1      34.047 -13.578 -23.557  0.00  0.00    -0.297 N 
ATOM      3  C   UNL     1      34.587 -14.588 -22.752  0.00  0.00    +0.246 C 
ATOM      4  H   UNL     1      33.675 -13.830 -24.434  0.00  0.00    +0.150 HD
ENDROOT
BRANCH   3   6
ATOM      5  C   UNL     1      34.932 -18.327 -22.991  0.00  0.00    +0.090 C 
ATOM      6  C   UNL     1      34.576 -15.939 -23.292  0.00  0.00    +0.055 C 
ATOM      7  C   UNL     1      34.937 -17.016 -22.483  0.00  0.00    +0.023 C 
ATOM      8  C   UNL     1      34.558 -18.529 -24.329  0.00  0.00    +0.018 C 
ATOM      9  C   UNL     1      34.206 -16.156 -24.620  0.00  0.00    +0.005 C 
ATOM     10  C   UNL     1      34.197 -17.450 -25.138  0.00  0.00    +0.002 C 
BRANCH   5  12
ATOM     11  O   UNL     1      33.041 -21.878 -19.703  0.00  0.00    -0.207 OA
ATOM     12  N   UNL     1      35.291 -19.401 -22.184  0.00  0.00    -0.137 N 
ATOM     13  N   UNL     1      36.446 -19.486 -21.473  0.00  0.00    -0.215 N 
ATOM     14  N   UNL     1      34.277 -20.155 -21.597  0.00  0.00    -0.143 NA
ATOM     15  N   UNL     1      36.906 -20.737 -19.408  0.00  0.00    -0.309 NA
ATOM     16  N   UNL     1      35.037 -21.988 -18.530  0.00  0.00    -0.251 NA
ATOM     17  N   UNL     1      37.078 -22.024 -17.441  0.00  0.00    -0.283 N 
ATOM     18  C   UNL     1      36.234 -20.291 -20.403  0.00  0.00    +0.243 C 
ATOM     19  C   UNL     1      34.823 -20.684 -20.546  0.00  0.00    +0.241 C 
ATOM     20  C   UNL     1      34.215 -21.575 -19.552  0.00  0.00    +0.239 C 
ATOM     21  C   UNL     1      36.292 -21.584 -18.481  0.00  0.00    +0.208 C 
ATOM     22  H   UNL     1      37.294 -19.037 -21.697  0.00  0.00    +0.175 HD
ATOM     23  H   UNL     1      38.018 -21.739 -17.379  0.00  0.00    +0.156 HD
ATOM     24  H   UNL     1      36.699 -22.623 -16.757  0.00  0.00    +0.156 HD
ENDBRANCH   5  12
ENDBRANCH   3   6
BRANCH   2  25
ATOM     25  C   UNL     1      34.007 -12.185 -23.172  0.00  0.00    +0.117 C 
BRANCH  25  26
ATOM     26  C   UNL     1      32.841 -11.885 -22.274  0.00  0.00    +0.003 C 
ATOM     27  C   UNL     1      32.295 -10.608 -22.184  0.00  0.00    +0.027 C 
ATOM     28  C   UNL     1      32.314 -12.931 -21.523  0.00  0.00    -0.002 C 
ATOM     29  C   UNL     1      31.213 -10.376 -21.336  0.00  0.00    +0.006 C 
ATOM     30  C   UNL     1      31.232 -12.699 -20.675  0.00  0.00    -0.000 C 
ATOM     31  C   UNL     1      30.681 -11.422 -20.581  0.00  0.00    +0.000 C 
BRANCH  27  32
ATOM     32  S   UNL     1      32.941  -9.235 -23.130  0.00  0.00    -0.087 S 
BRANCH  32  33
ATOM     33  C   UNL     1      31.973  -7.883 -22.477  0.00  0.00    +0.028 C 
ATOM     34  C   UNL     1      32.269  -7.295 -21.246  0.00  0.00    +0.013 C 
ATOM     35  C   UNL     1      30.895  -7.415 -23.230  0.00  0.00    +0.006 C 
ATOM     36  C   UNL     1      31.490  -6.241 -20.770  0.00  0.00    -0.001 C 
ATOM     37  C   UNL     1      30.115  -6.361 -22.753  0.00  0.00    +0.000 C 
ATOM     38  C   UNL     1      30.412  -5.774 -21.523  0.00  0.00    -0.000 C 
BRANCH  34  39
ATOM     39  C   UNL     1      33.413  -7.759 -20.402  0.00  0.00    +0.164 C 
BRANCH  39  40
ATOM     40  O   UNL     1      33.364  -7.099 -19.144  0.00  0.00    -0.377 OA
ATOM     41  H   UNL     1      34.261  -7.024 -18.783  0.00  0.00    +0.211 HD
ENDBRANCH  39  40
ENDBRANCH  34  39
ENDBRANCH  32  33
ENDBRANCH  27  32
ENDBRANCH  25  26
ENDBRANCH   2  25
TORSDOF 8
ENDMDL
