MODEL 1
REMARK VINA RESULT:     -11.5      0.000      0.000
REMARK  Name = 447546
REMARK  10 active torsions:
REMARK  status: ('A' for Active; 'I' for Inactive)
REMARK    1  A    between atoms: N_1  and  C_23
REMARK    2  A    between atoms: C_8  and  N_11
REMARK    3  A    between atoms: N_12  and  C_16
REMARK    4  A    between atoms: C_16  and  C_17
REMARK    5  A    between atoms: C_23  and  C_24
REMARK    6  A    between atoms: C_24  and  C_25
REMARK    7  A    between atoms: C_25  and  N_26
REMARK    8  A    between atoms: C_25  and  C_36
REMARK    9  A    between atoms: C_30  and  C_33
REMARK   10  A    between atoms: C_36  and  O_37
REMARK                            x       y       z     vdW  Elec       q    Type
REMARK                         _______ _______ _______ _____ _____    ______ ____
ROOT
ATOM      1  N   UNL     1      32.803 -14.103 -21.915  0.00  0.00    -0.286 N 
ATOM      2  C   UNL     1      32.318 -12.915 -21.416  0.00  0.00    +0.053 C 
ATOM      3  C   UNL     1      32.007 -13.133 -20.071  0.00  0.00    +0.015 C 
ATOM      4  C   UNL     1      32.811 -15.060 -20.936  0.00  0.00    +0.065 C 
ATOM      5  C   UNL     1      32.324 -14.489 -19.783  0.00  0.00    +0.017 C 
ATOM      6  C   UNL     1      32.132 -11.679 -22.044  0.00  0.00    +0.030 C 
ATOM      7  C   UNL     1      31.484 -12.064 -19.315  0.00  0.00    +0.003 C 
ATOM      8  C   UNL     1      31.613 -10.634 -21.274  0.00  0.00    +0.053 C 
ATOM      9  C   UNL     1      31.294 -10.822 -19.930  0.00  0.00    +0.015 C 
ENDROOT
BRANCH   8  11
ATOM     10  O   UNL     1      33.069  -8.042 -20.867  0.00  0.00    -0.252 OA
ATOM     11  N   UNL     1      31.414  -9.384 -21.862  0.00  0.00    -0.268 N 
ATOM     12  N   UNL     1      31.615  -7.151 -22.429  0.00  0.00    -0.285 N 
ATOM     13  C   UNL     1      32.126  -8.188 -21.640  0.00  0.00    +0.305 C 
ATOM     14  H   UNL     1      30.681  -9.331 -22.518  0.00  0.00    +0.156 HD
ATOM     15  H   UNL     1      30.857  -7.345 -23.025  0.00  0.00    +0.151 HD
BRANCH  12  16
ATOM     16  C   UNL     1      32.150  -5.809 -22.409  0.00  0.00    +0.118 C 
BRANCH  16  17
ATOM     17  C   UNL     1      32.735  -5.418 -23.735  0.00  0.00    -0.003 C 
ATOM     18  C   UNL     1      33.836  -6.106 -24.242  0.00  0.00    -0.003 C 
ATOM     19  C   UNL     1      32.176  -4.365 -24.460  0.00  0.00    -0.003 C 
ATOM     20  C   UNL     1      34.380  -5.742 -25.474  0.00  0.00    -0.000 C 
ATOM     21  C   UNL     1      32.720  -4.001 -25.692  0.00  0.00    -0.000 C 
ATOM     22  C   UNL     1      33.822  -4.690 -26.199  0.00  0.00    -0.000 C 
ENDBRANCH  16  17
ENDBRANCH  12  16
ENDBRANCH   8  11
BRANCH   1  23
ATOM     23  C   UNL     1      33.245 -14.325 -23.275  0.00  0.00    +0.097 C 
BRANCH  23  24
ATOM     24  C   UNL     1      34.660 -14.909 -23.392  0.00  0.00    +0.040 C 
BRANCH  24  25
ATOM     25  C   UNL     1      34.794 -16.121 -24.341  0.00  0.00    +0.091 C 
BRANCH  25  26
ATOM     26  N   UNL     1      34.959 -17.404 -23.638  0.00  0.00    -0.246 NA
ATOM     27  N   UNL     1      34.922 -19.559 -23.105  0.00  0.00    -0.251 NA
ATOM     28  C   UNL     1      35.537 -17.595 -22.407  0.00  0.00    +0.125 C 
ATOM     29  C   UNL     1      34.600 -18.606 -24.030  0.00  0.00    +0.201 C 
ATOM     30  C   UNL     1      35.525 -18.925 -22.055  0.00  0.00    +0.124 C 
BRANCH  30  33
ATOM     31  O   UNL     1      35.356 -20.381 -20.200  0.00  0.00    -0.269 OA
ATOM     32  N   UNL     1      37.319 -19.254 -20.462  0.00  0.00    -0.324 N 
ATOM     33  C   UNL     1      36.016 -19.556 -20.876  0.00  0.00    +0.257 C 
ATOM     34  H   UNL     1      37.688 -19.673 -19.652  0.00  0.00    +0.145 HD
ATOM     35  H   UNL     1      37.867 -18.622 -20.982  0.00  0.00    +0.145 HD
ENDBRANCH  30  33
ENDBRANCH  25  26
BRANCH  25  36
ATOM     36  C   UNL     1      33.597 -16.187 -25.305  0.00  0.00    +0.153 C 
BRANCH  36  37
ATOM     37  O   UNL     1      33.895 -15.456 -26.489  0.00  0.00    -0.381 OA
ATOM     38  H   UNL     1      33.449 -15.869 -27.245  0.00  0.00    +0.210 HD
ENDBRANCH  36  37
ENDBRANCH  25  36
ENDBRANCH  24  25
ENDBRANCH  23  24
ENDBRANCH   1  23
TORSDOF 10
ENDMDL
MODEL 2
REMARK VINA RESULT:     -11.4      6.950     12.144
REMARK  Name = 447546
REMARK  10 active torsions:
REMARK  status: ('A' for Active; 'I' for Inactive)
REMARK    1  A    between atoms: N_1  and  C_23
REMARK    2  A    between atoms: C_8  and  N_11
REMARK    3  A    between atoms: N_12  and  C_16
REMARK    4  A    between atoms: C_16  and  C_17
REMARK    5  A    between atoms: C_23  and  C_24
REMARK    6  A    between atoms: C_24  and  C_25
REMARK    7  A    between atoms: C_25  and  N_26
REMARK    8  A    between atoms: C_25  and  C_36
REMARK    9  A    between atoms: C_30  and  C_33
REMARK   10  A    between atoms: C_36  and  O_37
REMARK                            x       y       z     vdW  Elec       q    Type
REMARK                         _______ _______ _______ _____ _____    ______ ____
ROOT
ATOM      1  N   UNL     1      33.526 -23.764 -15.775  0.00  0.00    -0.286 N 
ATOM      2  C   UNL     1      34.369 -23.139 -16.666  0.00  0.00    +0.053 C 
ATOM      3  C   UNL     1      35.662 -23.238 -16.147  0.00  0.00    +0.015 C 
ATOM      4  C   UNL     1      34.240 -24.255 -14.715  0.00  0.00    +0.065 C 
ATOM      5  C   UNL     1      35.564 -23.945 -14.917  0.00  0.00    +0.017 C 
ATOM      6  C   UNL     1      34.088 -22.499 -17.879  0.00  0.00    +0.030 C 
ATOM      7  C   UNL     1      36.729 -22.672 -16.872  0.00  0.00    +0.003 C 
ATOM      8  C   UNL     1      35.163 -21.945 -18.580  0.00  0.00    +0.053 C 
ATOM      9  C   UNL     1      36.464 -22.030 -18.087  0.00  0.00    +0.015 C 
ENDROOT
BRANCH   8  11
ATOM     10  O   UNL     1      36.855 -19.988 -20.102  0.00  0.00    -0.252 OA
ATOM     11  N   UNL     1      34.928 -21.299 -19.796  0.00  0.00    -0.268 N 
ATOM     12  N   UNL     1      35.155 -19.964 -21.670  0.00  0.00    -0.285 N 
ATOM     13  C   UNL     1      35.754 -20.384 -20.477  0.00  0.00    +0.305 C 
ATOM     14  H   UNL     1      34.072 -21.513 -20.234  0.00  0.00    +0.156 HD
ATOM     15  H   UNL     1      34.271 -20.326 -21.903  0.00  0.00    +0.151 HD
BRANCH  12  16
ATOM     16  C   UNL     1      35.776 -19.024 -22.575  0.00  0.00    +0.118 C 
BRANCH  16  17
ATOM     17  C   UNL     1      35.242 -17.632 -22.392  0.00  0.00    -0.003 C 
ATOM     18  C   UNL     1      34.950 -17.159 -21.114  0.00  0.00    -0.003 C 
ATOM     19  C   UNL     1      35.039 -16.812 -23.503  0.00  0.00    -0.003 C 
ATOM     20  C   UNL     1      34.454 -15.866 -20.945  0.00  0.00    -0.000 C 
ATOM     21  C   UNL     1      34.544 -15.519 -23.334  0.00  0.00    -0.000 C 
ATOM     22  C   UNL     1      34.251 -15.047 -22.055  0.00  0.00    -0.000 C 
ENDBRANCH  16  17
ENDBRANCH  12  16
ENDBRANCH   8  11
BRANCH   1  23
ATOM     23  C   UNL     1      32.092 -23.893 -15.922  0.00  0.00    +0.097 C 
BRANCH  23  24
ATOM     24  C   UNL     1      31.280 -23.214 -14.810  0.00  0.00    +0.040 C 
BRANCH  24  25
ATOM     25  C   UNL     1      29.924 -23.881 -14.488  0.00  0.00    +0.091 C 
BRANCH  25  26
ATOM     26  N   UNL     1      28.931 -23.748 -15.568  0.00  0.00    -0.246 NA
ATOM     27  N   UNL     1      27.567 -24.168 -17.269  0.00  0.00    -0.251 NA
ATOM     28  C   UNL     1      28.251 -22.608 -15.920  0.00  0.00    +0.125 C 
ATOM     29  C   UNL     1      28.495 -24.668 -16.399  0.00  0.00    +0.201 C 
ATOM     30  C   UNL     1      27.398 -22.845 -16.973  0.00  0.00    +0.124 C 
BRANCH  30  33
ATOM     31  O   UNL     1      26.265 -20.788 -17.247  0.00  0.00    -0.269 OA
ATOM     32  N   UNL     1      25.912 -22.389 -18.830  0.00  0.00    -0.324 N 
ATOM     33  C   UNL     1      26.516 -21.951 -17.645  0.00  0.00    +0.257 C 
ATOM     34  H   UNL     1      25.297 -21.796 -19.318  0.00  0.00    +0.145 HD
ATOM     35  H   UNL     1      26.102 -23.292 -19.175  0.00  0.00    +0.145 HD
ENDBRANCH  30  33
ENDBRANCH  25  26
BRANCH  25  36
ATOM     36  C   UNL     1      30.122 -25.361 -14.121  0.00  0.00    +0.153 C 
BRANCH  36  37
ATOM     37  O   UNL     1      30.867 -25.458 -12.912  0.00  0.00    -0.381 OA
ATOM     38  H   UNL     1      30.276 -25.316 -12.157  0.00  0.00    +0.210 HD
ENDBRANCH  36  37
ENDBRANCH  25  36
ENDBRANCH  24  25
ENDBRANCH  23  24
ENDBRANCH   1  23
TORSDOF 10
ENDMDL
MODEL 3
REMARK VINA RESULT:     -11.2      7.051     12.462
REMARK  Name = 447546
REMARK  10 active torsions:
REMARK  status: ('A' for Active; 'I' for Inactive)
REMARK    1  A    between atoms: N_1  and  C_23
REMARK    2  A    between atoms: C_8  and  N_11
REMARK    3  A    between atoms: N_12  and  C_16
REMARK    4  A    between atoms: C_16  and  C_17
REMARK    5  A    between atoms: C_23  and  C_24
REMARK    6  A    between atoms: C_24  and  C_25
REMARK    7  A    between atoms: C_25  and  N_26
REMARK    8  A    between atoms: C_25  and  C_36
REMARK    9  A    between atoms: C_30  and  C_33
REMARK   10  A    between atoms: C_36  and  O_37
REMARK                            x       y       z     vdW  Elec       q    Type
REMARK                         _______ _______ _______ _____ _____    ______ ____
ROOT
ATOM      1  N   UNL     1      36.279 -23.421 -15.719  0.00  0.00    -0.286 N 
ATOM      2  C   UNL     1      35.686 -22.889 -16.842  0.00  0.00    +0.053 C 
ATOM      3  C   UNL     1      34.368 -23.351 -16.868  0.00  0.00    +0.015 C 
ATOM      4  C   UNL     1      35.383 -24.200 -15.036  0.00  0.00    +0.065 C 
ATOM      5  C   UNL     1      34.192 -24.176 -15.723  0.00  0.00    +0.017 C 
ATOM      6  C   UNL     1      36.211 -22.044 -17.827  0.00  0.00    +0.030 C 
ATOM      7  C   UNL     1      33.531 -22.950 -17.929  0.00  0.00    +0.003 C 
ATOM      8  C   UNL     1      35.360 -21.660 -18.868  0.00  0.00    +0.053 C 
ATOM      9  C   UNL     1      34.041 -22.104 -18.920  0.00  0.00    +0.015 C 
ENDROOT
BRANCH   8  11
ATOM     10  O   UNL     1      33.907 -20.220 -21.064  0.00  0.00    -0.252 OA
ATOM     11  N   UNL     1      35.843 -20.816 -19.869  0.00  0.00    -0.268 N 
ATOM     12  N   UNL     1      35.976 -19.399 -21.693  0.00  0.00    -0.285 N 
ATOM     13  C   UNL     1      35.121 -20.157 -20.885  0.00  0.00    +0.305 C 
ATOM     14  H   UNL     1      36.815 -20.658 -19.865  0.00  0.00    +0.156 HD
ATOM     15  H   UNL     1      36.937 -19.398 -21.486  0.00  0.00    +0.151 HD
BRANCH  12  16
ATOM     16  C   UNL     1      35.511 -18.617 -22.815  0.00  0.00    +0.118 C 
BRANCH  16  17
ATOM     17  C   UNL     1      35.091 -17.237 -22.402  0.00  0.00    -0.003 C 
ATOM     18  C   UNL     1      34.932 -16.239 -23.363  0.00  0.00    -0.003 C 
ATOM     19  C   UNL     1      34.857 -16.952 -21.056  0.00  0.00    -0.003 C 
ATOM     20  C   UNL     1      34.542 -14.956 -22.979  0.00  0.00    -0.000 C 
ATOM     21  C   UNL     1      34.467 -15.669 -20.672  0.00  0.00    -0.000 C 
ATOM     22  C   UNL     1      34.309 -14.671 -21.634  0.00  0.00    -0.000 C 
ENDBRANCH  16  17
ENDBRANCH  12  16
ENDBRANCH   8  11
BRANCH   1  23
ATOM     23  C   UNL     1      37.648 -23.201 -15.306  0.00  0.00    +0.097 C 
BRANCH  23  24
ATOM     24  C   UNL     1      38.561 -24.425 -15.464  0.00  0.00    +0.040 C 
BRANCH  24  25
ATOM     25  C   UNL     1      39.230 -24.917 -14.161  0.00  0.00    +0.091 C 
BRANCH  25  26
ATOM     26  N   UNL     1      38.268 -25.317 -13.120  0.00  0.00    -0.246 NA
ATOM     27  N   UNL     1      36.873 -26.484 -11.847  0.00  0.00    -0.251 NA
ATOM     28  C   UNL     1      37.745 -24.516 -12.136  0.00  0.00    +0.125 C 
ATOM     29  C   UNL     1      37.722 -26.496 -12.917  0.00  0.00    +0.201 C 
ATOM     30  C   UNL     1      36.877 -25.218 -11.333  0.00  0.00    +0.124 C 
BRANCH  30  33
ATOM     31  O   UNL     1      35.189 -25.437  -9.692  0.00  0.00    -0.269 OA
ATOM     32  N   UNL     1      36.462 -23.547  -9.630  0.00  0.00    -0.324 N 
ATOM     33  C   UNL     1      36.124 -24.777 -10.207  0.00  0.00    +0.257 C 
ATOM     34  H   UNL     1      35.961 -23.215  -8.851  0.00  0.00    +0.145 HD
ATOM     35  H   UNL     1      37.201 -23.015 -10.003  0.00  0.00    +0.145 HD
ENDBRANCH  30  33
ENDBRANCH  25  26
BRANCH  25  36
ATOM     36  C   UNL     1      40.209 -26.066 -14.457  0.00  0.00    +0.153 C 
BRANCH  36  37
ATOM     37  O   UNL     1      40.316 -26.253 -15.863  0.00  0.00    -0.381 OA
ATOM     38  H   UNL     1      39.724 -26.970 -16.139  0.00  0.00    +0.210 HD
ENDBRANCH  36  37
ENDBRANCH  25  36
ENDBRANCH  24  25
ENDBRANCH  23  24
ENDBRANCH   1  23
TORSDOF 10
ENDMDL
MODEL 4
REMARK VINA RESULT:     -11.2      2.668     12.030
REMARK  Name = 447546
REMARK  10 active torsions:
REMARK  status: ('A' for Active; 'I' for Inactive)
REMARK    1  A    between atoms: N_1  and  C_23
REMARK    2  A    between atoms: C_8  and  N_11
REMARK    3  A    between atoms: N_12  and  C_16
REMARK    4  A    between atoms: C_16  and  C_17
REMARK    5  A    between atoms: C_23  and  C_24
REMARK    6  A    between atoms: C_24  and  C_25
REMARK    7  A    between atoms: C_25  and  N_26
REMARK    8  A    between atoms: C_25  and  C_36
REMARK    9  A    between atoms: C_30  and  C_33
REMARK   10  A    between atoms: C_36  and  O_37
REMARK                            x       y       z     vdW  Elec       q    Type
REMARK                         _______ _______ _______ _____ _____    ______ ____
ROOT
ATOM      1  N   UNL     1      33.222 -13.949 -21.723  0.00  0.00    -0.286 N 
ATOM      2  C   UNL     1      33.947 -15.091 -21.981  0.00  0.00    +0.053 C 
ATOM      3  C   UNL     1      34.279 -15.068 -23.338  0.00  0.00    +0.015 C 
ATOM      4  C   UNL     1      33.087 -13.207 -22.865  0.00  0.00    +0.065 C 
ATOM      5  C   UNL     1      33.731 -13.873 -23.881  0.00  0.00    +0.017 C 
ATOM      6  C   UNL     1      34.329 -16.132 -21.126  0.00  0.00    +0.030 C 
ATOM      7  C   UNL     1      35.029 -16.136 -23.870  0.00  0.00    +0.003 C 
ATOM      8  C   UNL     1      35.073 -17.180 -21.678  0.00  0.00    +0.053 C 
ATOM      9  C   UNL     1      35.419 -17.183 -23.027  0.00  0.00    +0.015 C 
ENDROOT
BRANCH   8  11
ATOM     10  O   UNL     1      34.418 -20.105 -21.818  0.00  0.00    -0.252 OA
ATOM     11  N   UNL     1      35.476 -18.236 -20.860  0.00  0.00    -0.268 N 
ATOM     12  N   UNL     1      35.754 -20.342 -19.945  0.00  0.00    -0.285 N 
ATOM     13  C   UNL     1      35.143 -19.602 -20.964  0.00  0.00    +0.305 C 
ATOM     14  H   UNL     1      36.072 -17.996 -20.113  0.00  0.00    +0.156 HD
ATOM     15  H   UNL     1      36.321 -19.868 -19.297  0.00  0.00    +0.151 HD
BRANCH  12  16
ATOM     16  C   UNL     1      35.590 -21.771 -19.803  0.00  0.00    +0.118 C 
BRANCH  16  17
ATOM     17  C   UNL     1      35.677 -22.206 -18.369  0.00  0.00    -0.003 C 
ATOM     18  C   UNL     1      36.847 -21.991 -17.644  0.00  0.00    -0.003 C 
ATOM     19  C   UNL     1      34.584 -22.826 -17.762  0.00  0.00    -0.003 C 
ATOM     20  C   UNL     1      36.927 -22.396 -16.312  0.00  0.00    -0.000 C 
ATOM     21  C   UNL     1      34.664 -23.231 -16.429  0.00  0.00    -0.000 C 
ATOM     22  C   UNL     1      35.836 -23.016 -15.704  0.00  0.00    -0.000 C 
ENDBRANCH  16  17
ENDBRANCH  12  16
ENDBRANCH   8  11
BRANCH   1  23
ATOM     23  C   UNL     1      32.676 -13.572 -20.436  0.00  0.00    +0.097 C 
BRANCH  23  24
ATOM     24  C   UNL     1      31.512 -12.574 -20.513  0.00  0.00    +0.040 C 
BRANCH  24  25
ATOM     25  C   UNL     1      31.775 -11.208 -19.840  0.00  0.00    +0.091 C 
BRANCH  25  26
ATOM     26  N   UNL     1      31.818 -10.083 -20.790  0.00  0.00    -0.246 NA
ATOM     27  N   UNL     1      31.623  -8.826 -22.609  0.00  0.00    -0.251 NA
ATOM     28  C   UNL     1      32.282  -8.816 -20.539  0.00  0.00    +0.125 C 
ATOM     29  C   UNL     1      31.428 -10.055 -22.046  0.00  0.00    +0.201 C 
ATOM     30  C   UNL     1      32.171  -8.017 -21.654  0.00  0.00    +0.124 C 
BRANCH  30  33
ATOM     31  O   UNL     1      33.175  -6.221 -22.817  0.00  0.00    -0.269 OA
ATOM     32  N   UNL     1      32.122  -5.731 -20.856  0.00  0.00    -0.324 N 
ATOM     33  C   UNL     1      32.531  -6.650 -21.830  0.00  0.00    +0.257 C 
ATOM     34  H   UNL     1      32.355  -4.780 -20.948  0.00  0.00    +0.145 HD
ATOM     35  H   UNL     1      31.602  -6.037 -20.078  0.00  0.00    +0.145 HD
ENDBRANCH  30  33
ENDBRANCH  25  26
BRANCH  25  36
ATOM     36  C   UNL     1      30.738 -10.940 -18.737  0.00  0.00    +0.153 C 
BRANCH  36  37
ATOM     37  O   UNL     1      31.177 -11.522 -17.515  0.00  0.00    -0.381 OA
ATOM     38  H   UNL     1      31.428 -12.446 -17.670  0.00  0.00    +0.210 HD
ENDBRANCH  36  37
ENDBRANCH  25  36
ENDBRANCH  24  25
ENDBRANCH  23  24
ENDBRANCH   1  23
TORSDOF 10
ENDMDL
MODEL 5
REMARK VINA RESULT:     -10.7      9.355     13.933
REMARK  Name = 447546
REMARK  10 active torsions:
REMARK  status: ('A' for Active; 'I' for Inactive)
REMARK    1  A    between atoms: N_1  and  C_23
REMARK    2  A    between atoms: C_8  and  N_11
REMARK    3  A    between atoms: N_12  and  C_16
REMARK    4  A    between atoms: C_16  and  C_17
REMARK    5  A    between atoms: C_23  and  C_24
REMARK    6  A    between atoms: C_24  and  C_25
REMARK    7  A    between atoms: C_25  and  N_26
REMARK    8  A    between atoms: C_25  and  C_36
REMARK    9  A    between atoms: C_30  and  C_33
REMARK   10  A    between atoms: C_36  and  O_37
REMARK                            x       y       z     vdW  Elec       q    Type
REMARK                         _______ _______ _______ _____ _____    ______ ____
ROOT
ATOM      1  N   UNL     1      32.590 -25.042 -13.520  0.00  0.00    -0.286 N 
ATOM      2  C   UNL     1      32.149 -24.362 -14.633  0.00  0.00    +0.053 C 
ATOM      3  C   UNL     1      30.763 -24.232 -14.513  0.00  0.00    +0.015 C 
ATOM      4  C   UNL     1      31.534 -25.345 -12.703  0.00  0.00    +0.065 C 
ATOM      5  C   UNL     1      30.391 -24.856 -13.290  0.00  0.00    +0.017 C 
ATOM      6  C   UNL     1      32.863 -23.857 -15.726  0.00  0.00    +0.030 C 
ATOM      7  C   UNL     1      30.054 -23.566 -15.532  0.00  0.00    +0.003 C 
ATOM      8  C   UNL     1      32.137 -23.200 -16.724  0.00  0.00    +0.053 C 
ATOM      9  C   UNL     1      30.755 -23.055 -16.630  0.00  0.00    +0.015 C 
ENDROOT
BRANCH   8  11
ATOM     10  O   UNL     1      35.073 -22.792 -17.196  0.00  0.00    -0.252 OA
ATOM     11  N   UNL     1      32.811 -22.680 -17.830  0.00  0.00    -0.268 N 
ATOM     12  N   UNL     1      34.472 -21.950 -19.264  0.00  0.00    -0.285 N 
ATOM     13  C   UNL     1      34.198 -22.506 -18.010  0.00  0.00    +0.305 C 
ATOM     14  H   UNL     1      32.243 -22.398 -18.584  0.00  0.00    +0.156 HD
ATOM     15  H   UNL     1      33.718 -21.748 -19.863  0.00  0.00    +0.151 HD
BRANCH  12  16
ATOM     16  C   UNL     1      35.812 -21.661 -19.722  0.00  0.00    +0.118 C 
BRANCH  16  17
ATOM     17  C   UNL     1      35.845 -20.485 -20.655  0.00  0.00    -0.003 C 
ATOM     18  C   UNL     1      34.709 -20.141 -21.384  0.00  0.00    -0.003 C 
ATOM     19  C   UNL     1      37.015 -19.737 -20.792  0.00  0.00    -0.003 C 
ATOM     20  C   UNL     1      34.740 -19.048 -22.251  0.00  0.00    -0.000 C 
ATOM     21  C   UNL     1      37.047 -18.644 -21.659  0.00  0.00    -0.000 C 
ATOM     22  C   UNL     1      35.909 -18.300 -22.388  0.00  0.00    -0.000 C 
ENDBRANCH  16  17
ENDBRANCH  12  16
ENDBRANCH   8  11
BRANCH   1  23
ATOM     23  C   UNL     1      33.965 -25.395 -13.240  0.00  0.00    +0.097 C 
BRANCH  23  24
ATOM     24  C   UNL     1      34.731 -24.348 -12.419  0.00  0.00    +0.040 C 
BRANCH  24  25
ATOM     25  C   UNL     1      36.084 -24.826 -11.846  0.00  0.00    +0.091 C 
BRANCH  25  26
ATOM     26  N   UNL     1      37.162 -24.881 -12.848  0.00  0.00    -0.246 NA
ATOM     27  N   UNL     1      38.492 -24.437 -14.569  0.00  0.00    -0.251 NA
ATOM     28  C   UNL     1      38.161 -25.819 -12.926  0.00  0.00    +0.125 C 
ATOM     29  C   UNL     1      37.391 -24.063 -13.852  0.00  0.00    +0.201 C 
ATOM     30  C   UNL     1      38.999 -25.564 -13.987  0.00  0.00    +0.124 C 
BRANCH  30  33
ATOM     31  O   UNL     1      40.556 -26.283 -15.614  0.00  0.00    -0.269 OA
ATOM     32  N   UNL     1      40.880 -27.000 -13.475  0.00  0.00    -0.324 N 
ATOM     33  C   UNL     1      40.149 -26.279 -14.427  0.00  0.00    +0.257 C 
ATOM     34  H   UNL     1      41.680 -27.505 -13.746  0.00  0.00    +0.145 HD
ATOM     35  H   UNL     1      40.593 -27.003 -12.532  0.00  0.00    +0.145 HD
ENDBRANCH  30  33
ENDBRANCH  25  26
BRANCH  25  36
ATOM     36  C   UNL     1      36.504 -23.951 -10.652  0.00  0.00    +0.153 C 
BRANCH  36  37
ATOM     37  O   UNL     1      36.066 -24.553  -9.440  0.00  0.00    -0.381 OA
ATOM     38  H   UNL     1      36.796 -24.561  -8.801  0.00  0.00    +0.210 HD
ENDBRANCH  36  37
ENDBRANCH  25  36
ENDBRANCH  24  25
ENDBRANCH  23  24
ENDBRANCH   1  23
TORSDOF 10
ENDMDL
MODEL 6
REMARK VINA RESULT:     -10.6      2.514      4.513
REMARK  Name = 447546
REMARK  10 active torsions:
REMARK  status: ('A' for Active; 'I' for Inactive)
REMARK    1  A    between atoms: N_1  and  C_23
REMARK    2  A    between atoms: C_8  and  N_11
REMARK    3  A    between atoms: N_12  and  C_16
REMARK    4  A    between atoms: C_16  and  C_17
REMARK    5  A    between atoms: C_23  and  C_24
REMARK    6  A    between atoms: C_24  and  C_25
REMARK    7  A    between atoms: C_25  and  N_26
REMARK    8  A    between atoms: C_25  and  C_36
REMARK    9  A    between atoms: C_30  and  C_33
REMARK   10  A    between atoms: C_36  and  O_37
REMARK                            x       y       z     vdW  Elec       q    Type
REMARK                         _______ _______ _______ _____ _____    ______ ____
ROOT
ATOM      1  N   UNL     1      34.682 -16.506 -23.243  0.00  0.00    -0.286 N 
ATOM      2  C   UNL     1      34.304 -15.334 -23.859  0.00  0.00    +0.053 C 
ATOM      3  C   UNL     1      33.917 -15.661 -25.161  0.00  0.00    +0.015 C 
ATOM      4  C   UNL     1      34.546 -17.559 -24.108  0.00  0.00    +0.065 C 
ATOM      5  C   UNL     1      34.075 -17.067 -25.302  0.00  0.00    +0.017 C 
ATOM      6  C   UNL     1      34.275 -14.023 -23.368  0.00  0.00    +0.030 C 
ATOM      7  C   UNL     1      33.481 -14.630 -26.017  0.00  0.00    +0.003 C 
ATOM      8  C   UNL     1      33.838 -13.018 -24.237  0.00  0.00    +0.053 C 
ATOM      9  C   UNL     1      33.446 -13.315 -25.540  0.00  0.00    +0.015 C 
ENDROOT
BRANCH   8  11
ATOM     10  O   UNL     1      32.046 -11.716 -22.212  0.00  0.00    -0.252 OA
ATOM     11  N   UNL     1      33.792 -11.698 -23.787  0.00  0.00    -0.268 N 
ATOM     12  N   UNL     1      33.206  -9.767 -22.658  0.00  0.00    -0.285 N 
ATOM     13  C   UNL     1      32.930 -11.128 -22.829  0.00  0.00    +0.305 C 
ATOM     14  H   UNL     1      34.449 -11.085 -24.190  0.00  0.00    +0.156 HD
ATOM     15  H   UNL     1      33.931  -9.365 -23.188  0.00  0.00    +0.151 HD
BRANCH  12  16
ATOM     16  C   UNL     1      32.477  -8.925 -21.737  0.00  0.00    +0.118 C 
BRANCH  16  17
ATOM     17  C   UNL     1      32.289  -7.535 -22.275  0.00  0.00    -0.003 C 
ATOM     18  C   UNL     1      33.050  -7.097 -23.357  0.00  0.00    -0.003 C 
ATOM     19  C   UNL     1      31.352  -6.682 -21.690  0.00  0.00    -0.003 C 
ATOM     20  C   UNL     1      32.876  -5.806 -23.856  0.00  0.00    -0.000 C 
ATOM     21  C   UNL     1      31.177  -5.392 -22.189  0.00  0.00    -0.000 C 
ATOM     22  C   UNL     1      31.939  -4.954 -23.272  0.00  0.00    -0.000 C 
ENDBRANCH  16  17
ENDBRANCH  12  16
ENDBRANCH   8  11
BRANCH   1  23
ATOM     23  C   UNL     1      35.155 -16.625 -21.881  0.00  0.00    +0.097 C 
BRANCH  23  24
ATOM     24  C   UNL     1      34.892 -17.995 -21.238  0.00  0.00    +0.040 C 
BRANCH  24  25
ATOM     25  C   UNL     1      36.158 -18.812 -20.895  0.00  0.00    +0.091 C 
BRANCH  25  26
ATOM     26  N   UNL     1      35.870 -20.083 -20.209  0.00  0.00    -0.246 NA
ATOM     27  N   UNL     1      36.070 -21.993 -19.095  0.00  0.00    -0.251 NA
ATOM     28  C   UNL     1      34.636 -20.660 -20.036  0.00  0.00    +0.125 C 
ATOM     29  C   UNL     1      36.711 -20.911 -19.630  0.00  0.00    +0.201 C 
ATOM     30  C   UNL     1      34.735 -21.846 -19.347  0.00  0.00    +0.124 C 
BRANCH  30  33
ATOM     31  O   UNL     1      32.592 -22.402 -18.519  0.00  0.00    -0.269 OA
ATOM     32  N   UNL     1      33.965 -24.128 -19.094  0.00  0.00    -0.324 N 
ATOM     33  C   UNL     1      33.712 -22.757 -18.958  0.00  0.00    +0.257 C 
ATOM     34  H   UNL     1      33.279 -24.783 -18.833  0.00  0.00    +0.145 HD
ATOM     35  H   UNL     1      34.830 -24.436 -19.450  0.00  0.00    +0.145 HD
ENDBRANCH  30  33
ENDBRANCH  25  26
BRANCH  25  36
ATOM     36  C   UNL     1      37.000 -19.062 -22.157  0.00  0.00    +0.153 C 
BRANCH  36  37
ATOM     37  O   UNL     1      38.361 -18.738 -21.897  0.00  0.00    -0.381 OA
ATOM     38  H   UNL     1      38.554 -18.887 -20.959  0.00  0.00    +0.210 HD
ENDBRANCH  36  37
ENDBRANCH  25  36
ENDBRANCH  24  25
ENDBRANCH  23  24
ENDBRANCH   1  23
TORSDOF 10
ENDMDL
MODEL 7
REMARK VINA RESULT:     -10.4      6.414     11.265
REMARK  Name = 447546
REMARK  10 active torsions:
REMARK  status: ('A' for Active; 'I' for Inactive)
REMARK    1  A    between atoms: N_1  and  C_23
REMARK    2  A    between atoms: C_8  and  N_11
REMARK    3  A    between atoms: N_12  and  C_16
REMARK    4  A    between atoms: C_16  and  C_17
REMARK    5  A    between atoms: C_23  and  C_24
REMARK    6  A    between atoms: C_24  and  C_25
REMARK    7  A    between atoms: C_25  and  N_26
REMARK    8  A    between atoms: C_25  and  C_36
REMARK    9  A    between atoms: C_30  and  C_33
REMARK   10  A    between atoms: C_36  and  O_37
REMARK                            x       y       z     vdW  Elec       q    Type
REMARK                         _______ _______ _______ _____ _____    ______ ____
ROOT
ATOM      1  N   UNL     1      34.156 -22.784 -17.418  0.00  0.00    -0.286 N 
ATOM      2  C   UNL     1      34.775 -22.061 -18.413  0.00  0.00    +0.053 C 
ATOM      3  C   UNL     1      36.136 -22.018 -18.102  0.00  0.00    +0.015 C 
ATOM      4  C   UNL     1      35.076 -23.199 -16.493  0.00  0.00    +0.065 C 
ATOM      5  C   UNL     1      36.311 -22.740 -16.890  0.00  0.00    +0.017 C 
ATOM      6  C   UNL     1      34.239 -21.448 -19.552  0.00  0.00    +0.030 C 
ATOM      7  C   UNL     1      37.007 -21.329 -18.970  0.00  0.00    +0.003 C 
ATOM      8  C   UNL     1      35.124 -20.771 -20.397  0.00  0.00    +0.053 C 
ATOM      9  C   UNL     1      36.487 -20.712 -20.113  0.00  0.00    +0.015 C 
ENDROOT
BRANCH   8  11
ATOM     10  O   UNL     1      36.482 -18.941 -22.349  0.00  0.00    -0.252 OA
ATOM     11  N   UNL     1      34.631 -20.148 -21.545  0.00  0.00    -0.268 N 
ATOM     12  N   UNL     1      34.459 -18.876 -23.468  0.00  0.00    -0.285 N 
ATOM     13  C   UNL     1      35.308 -19.293 -22.437  0.00  0.00    +0.305 C 
ATOM     14  H   UNL     1      33.688 -20.331 -21.760  0.00  0.00    +0.156 HD
ATOM     15  H   UNL     1      33.531 -19.200 -23.471  0.00  0.00    +0.151 HD
BRANCH  12  16
ATOM     16  C   UNL     1      34.884 -17.991 -24.529  0.00  0.00    +0.118 C 
BRANCH  16  17
ATOM     17  C   UNL     1      34.473 -16.570 -24.274  0.00  0.00    -0.003 C 
ATOM     18  C   UNL     1      33.769 -15.862 -25.247  0.00  0.00    -0.003 C 
ATOM     19  C   UNL     1      34.795 -15.958 -23.062  0.00  0.00    -0.003 C 
ATOM     20  C   UNL     1      33.387 -14.542 -25.009  0.00  0.00    -0.000 C 
ATOM     21  C   UNL     1      34.414 -14.638 -22.825  0.00  0.00    -0.000 C 
ATOM     22  C   UNL     1      33.709 -13.930 -23.799  0.00  0.00    -0.000 C 
ENDBRANCH  16  17
ENDBRANCH  12  16
ENDBRANCH   8  11
BRANCH   1  23
ATOM     23  C   UNL     1      32.740 -23.072 -17.345  0.00  0.00    +0.097 C 
BRANCH  23  24
ATOM     24  C   UNL     1      32.361 -24.115 -16.283  0.00  0.00    +0.040 C 
BRANCH  24  25
ATOM     25  C   UNL     1      31.607 -23.557 -15.056  0.00  0.00    +0.091 C 
BRANCH  25  26
ATOM     26  N   UNL     1      30.144 -23.703 -15.148  0.00  0.00    -0.246 NA
ATOM     27  N   UNL     1      28.073 -24.492 -15.028  0.00  0.00    -0.251 NA
ATOM     28  C   UNL     1      29.257 -22.775 -15.634  0.00  0.00    +0.125 C 
ATOM     29  C   UNL     1      29.398 -24.725 -14.791  0.00  0.00    +0.201 C 
ATOM     30  C   UNL     1      27.965 -23.242 -15.570  0.00  0.00    +0.124 C 
BRANCH  30  33
ATOM     31  O   UNL     1      25.737 -22.529 -15.229  0.00  0.00    -0.269 OA
ATOM     32  N   UNL     1      26.694 -22.029 -17.236  0.00  0.00    -0.324 N 
ATOM     33  C   UNL     1      26.750 -22.611 -15.964  0.00  0.00    +0.257 C 
ATOM     34  H   UNL     1      25.870 -21.586 -17.539  0.00  0.00    +0.145 HD
ATOM     35  H   UNL     1      27.480 -22.064 -17.829  0.00  0.00    +0.145 HD
ENDBRANCH  30  33
ENDBRANCH  25  26
BRANCH  25  36
ATOM     36  C   UNL     1      32.130 -24.201 -13.761  0.00  0.00    +0.153 C 
BRANCH  36  37
ATOM     37  O   UNL     1      31.942 -23.305 -12.671  0.00  0.00    -0.381 OA
ATOM     38  H   UNL     1      32.705 -22.709 -12.608  0.00  0.00    +0.210 HD
ENDBRANCH  36  37
ENDBRANCH  25  36
ENDBRANCH  24  25
ENDBRANCH  23  24
ENDBRANCH   1  23
TORSDOF 10
ENDMDL
MODEL 8
REMARK VINA RESULT:     -10.0      1.955      2.995
REMARK  Name = 447546
REMARK  10 active torsions:
REMARK  status: ('A' for Active; 'I' for Inactive)
REMARK    1  A    between atoms: N_1  and  C_23
REMARK    2  A    between atoms: C_8  and  N_11
REMARK    3  A    between atoms: N_12  and  C_16
REMARK    4  A    between atoms: C_16  and  C_17
REMARK    5  A    between atoms: C_23  and  C_24
REMARK    6  A    between atoms: C_24  and  C_25
REMARK    7  A    between atoms: C_25  and  N_26
REMARK    8  A    between atoms: C_25  and  C_36
REMARK    9  A    between atoms: C_30  and  C_33
REMARK   10  A    between atoms: C_36  and  O_37
REMARK                            x       y       z     vdW  Elec       q    Type
REMARK                         _______ _______ _______ _____ _____    ______ ____
ROOT
ATOM      1  N   UNL     1      31.802 -11.753 -20.768  0.00  0.00    -0.286 N 
ATOM      2  C   UNL     1      32.098 -10.409 -20.812  0.00  0.00    +0.053 C 
ATOM      3  C   UNL     1      31.788  -9.880 -19.557  0.00  0.00    +0.015 C 
ATOM      4  C   UNL     1      31.320 -12.091 -19.532  0.00  0.00    +0.065 C 
ATOM      5  C   UNL     1      31.300 -10.952 -18.761  0.00  0.00    +0.017 C 
ATOM      6  C   UNL     1      32.608  -9.629 -21.856  0.00  0.00    +0.030 C 
ATOM      7  C   UNL     1      31.998  -8.505 -19.331  0.00  0.00    +0.003 C 
ATOM      8  C   UNL     1      32.809  -8.268 -21.607  0.00  0.00    +0.053 C 
ATOM      9  C   UNL     1      32.510  -7.713 -20.365  0.00  0.00    +0.015 C 
ENDROOT
BRANCH   8  11
ATOM     10  O   UNL     1      31.392  -6.556 -23.625  0.00  0.00    -0.252 OA
ATOM     11  N   UNL     1      33.319  -7.455 -22.621  0.00  0.00    -0.268 N 
ATOM     12  N   UNL     1      33.495  -5.995 -24.406  0.00  0.00    -0.285 N 
ATOM     13  C   UNL     1      32.613  -6.664 -23.549  0.00  0.00    +0.305 C 
ATOM     14  H   UNL     1      34.301  -7.431 -22.696  0.00  0.00    +0.156 HD
ATOM     15  H   UNL     1      34.461  -6.132 -24.284  0.00  0.00    +0.151 HD
BRANCH  12  16
ATOM     16  C   UNL     1      33.051  -5.112 -25.460  0.00  0.00    +0.118 C 
BRANCH  16  17
ATOM     17  C   UNL     1      34.137  -4.842 -26.461  0.00  0.00    -0.003 C 
ATOM     18  C   UNL     1      35.460  -5.159 -26.158  0.00  0.00    -0.003 C 
ATOM     19  C   UNL     1      33.821  -4.275 -27.696  0.00  0.00    -0.003 C 
ATOM     20  C   UNL     1      36.468  -4.908 -27.089  0.00  0.00    -0.000 C 
ATOM     21  C   UNL     1      34.829  -4.024 -28.627  0.00  0.00    -0.000 C 
ATOM     22  C   UNL     1      36.153  -4.341 -28.323  0.00  0.00    -0.000 C 
ENDBRANCH  16  17
ENDBRANCH  12  16
ENDBRANCH   8  11
BRANCH   1  23
ATOM     23  C   UNL     1      31.971 -12.687 -21.860  0.00  0.00    +0.097 C 
BRANCH  23  24
ATOM     24  C   UNL     1      33.055 -13.748 -21.623  0.00  0.00    +0.040 C 
BRANCH  24  25
ATOM     25  C   UNL     1      34.154 -13.817 -22.708  0.00  0.00    +0.091 C 
BRANCH  25  26
ATOM     26  N   UNL     1      34.444 -15.187 -23.165  0.00  0.00    -0.246 NA
ATOM     27  N   UNL     1      34.658 -17.015 -24.406  0.00  0.00    -0.251 NA
ATOM     28  C   UNL     1      34.965 -16.209 -22.412  0.00  0.00    +0.125 C 
ATOM     29  C   UNL     1      34.270 -15.706 -24.361  0.00  0.00    +0.201 C 
ATOM     30  C   UNL     1      35.108 -17.354 -23.161  0.00  0.00    +0.124 C 
BRANCH  30  33
ATOM     31  O   UNL     1      34.955 -19.699 -22.901  0.00  0.00    -0.269 OA
ATOM     32  N   UNL     1      36.902 -18.705 -22.255  0.00  0.00    -0.324 N 
ATOM     33  C   UNL     1      35.605 -18.633 -22.778  0.00  0.00    +0.257 C 
ATOM     34  H   UNL     1      37.275 -19.573 -21.981  0.00  0.00    +0.145 HD
ATOM     35  H   UNL     1      37.441 -17.886 -22.161  0.00  0.00    +0.145 HD
ENDBRANCH  30  33
ENDBRANCH  25  26
BRANCH  25  36
ATOM     36  C   UNL     1      33.792 -12.918 -23.902  0.00  0.00    +0.153 C 
BRANCH  36  37
ATOM     37  O   UNL     1      34.614 -11.756 -23.892  0.00  0.00    -0.381 OA
ATOM     38  H   UNL     1      34.213 -11.072 -24.451  0.00  0.00    +0.210 HD
ENDBRANCH  36  37
ENDBRANCH  25  36
ENDBRANCH  24  25
ENDBRANCH  23  24
ENDBRANCH   1  23
TORSDOF 10
ENDMDL
MODEL 9
REMARK VINA RESULT:      -9.8      2.459     10.909
REMARK  Name = 447546
REMARK  10 active torsions:
REMARK  status: ('A' for Active; 'I' for Inactive)
REMARK    1  A    between atoms: N_1  and  C_23
REMARK    2  A    between atoms: C_8  and  N_11
REMARK    3  A    between atoms: N_12  and  C_16
REMARK    4  A    between atoms: C_16  and  C_17
REMARK    5  A    between atoms: C_23  and  C_24
REMARK    6  A    between atoms: C_24  and  C_25
REMARK    7  A    between atoms: C_25  and  N_26
REMARK    8  A    between atoms: C_25  and  C_36
REMARK    9  A    between atoms: C_30  and  C_33
REMARK   10  A    between atoms: C_36  and  O_37
REMARK                            x       y       z     vdW  Elec       q    Type
REMARK                         _______ _______ _______ _____ _____    ______ ____
ROOT
ATOM      1  N   UNL     1      32.295  -8.981 -21.225  0.00  0.00    -0.286 N 
ATOM      2  C   UNL     1      32.192 -10.352 -21.165  0.00  0.00    +0.053 C 
ATOM      3  C   UNL     1      31.740 -10.674 -19.883  0.00  0.00    +0.015 C 
ATOM      4  C   UNL     1      31.922  -8.427 -20.029  0.00  0.00    +0.065 C 
ATOM      5  C   UNL     1      31.573  -9.450 -19.179  0.00  0.00    +0.017 C 
ATOM      6  C   UNL     1      32.463 -11.322 -22.137  0.00  0.00    +0.030 C 
ATOM      7  C   UNL     1      31.548 -12.031 -19.554  0.00  0.00    +0.003 C 
ATOM      8  C   UNL     1      32.265 -12.661 -21.786  0.00  0.00    +0.053 C 
ATOM      9  C   UNL     1      31.813 -13.012 -20.516  0.00  0.00    +0.015 C 
ENDROOT
BRANCH   8  11
ATOM     10  O   UNL     1      34.831 -14.039 -22.508  0.00  0.00    -0.252 OA
ATOM     11  N   UNL     1      32.521 -13.660 -22.727  0.00  0.00    -0.268 N 
ATOM     12  N   UNL     1      33.583 -15.238 -24.042  0.00  0.00    -0.285 N 
ATOM     13  C   UNL     1      33.748 -14.281 -23.034  0.00  0.00    +0.305 C 
ATOM     14  H   UNL     1      31.742 -13.971 -23.243  0.00  0.00    +0.156 HD
ATOM     15  H   UNL     1      32.684 -15.377 -24.415  0.00  0.00    +0.151 HD
BRANCH  12  16
ATOM     16  C   UNL     1      34.674 -16.033 -24.559  0.00  0.00    +0.118 C 
BRANCH  16  17
ATOM     17  C   UNL     1      34.824 -17.330 -23.819  0.00  0.00    -0.003 C 
ATOM     18  C   UNL     1      35.356 -17.341 -22.531  0.00  0.00    -0.003 C 
ATOM     19  C   UNL     1      34.429 -18.526 -24.420  0.00  0.00    -0.003 C 
ATOM     20  C   UNL     1      35.496 -18.546 -21.843  0.00  0.00    -0.000 C 
ATOM     21  C   UNL     1      34.569 -19.732 -23.732  0.00  0.00    -0.000 C 
ATOM     22  C   UNL     1      35.102 -19.741 -22.444  0.00  0.00    -0.000 C 
ENDBRANCH  16  17
ENDBRANCH  12  16
ENDBRANCH   8  11
BRANCH   1  23
ATOM     23  C   UNL     1      32.731  -8.219 -22.375  0.00  0.00    +0.097 C 
BRANCH  23  24
ATOM     24  C   UNL     1      31.643  -7.330 -22.994  0.00  0.00    +0.040 C 
BRANCH  24  25
ATOM     25  C   UNL     1      31.825  -5.813 -22.763  0.00  0.00    +0.091 C 
BRANCH  25  26
ATOM     26  N   UNL     1      32.362  -5.099 -23.934  0.00  0.00    -0.246 NA
ATOM     27  N   UNL     1      32.739  -3.589 -25.516  0.00  0.00    -0.251 NA
ATOM     28  C   UNL     1      33.357  -5.534 -24.773  0.00  0.00    +0.125 C 
ATOM     29  C   UNL     1      32.012  -3.925 -24.409  0.00  0.00    +0.201 C 
ATOM     30  C   UNL     1      33.609  -4.613 -25.763  0.00  0.00    +0.124 C 
BRANCH  30  33
ATOM     31  O   UNL     1      34.281  -4.344 -28.014  0.00  0.00    -0.269 OA
ATOM     32  N   UNL     1      35.858  -5.069 -26.537  0.00  0.00    -0.324 N 
ATOM     33  C   UNL     1      34.551  -4.662 -26.831  0.00  0.00    +0.257 C 
ATOM     34  H   UNL     1      36.532  -5.113 -27.252  0.00  0.00    +0.145 HD
ATOM     35  H   UNL     1      36.103  -5.310 -25.614  0.00  0.00    +0.145 HD
ENDBRANCH  30  33
ENDBRANCH  25  26
BRANCH  25  36
ATOM     36  C   UNL     1      30.503  -5.174 -22.304  0.00  0.00    +0.153 C 
BRANCH  36  37
ATOM     37  O   UNL     1      30.456  -5.143 -20.882  0.00  0.00    -0.381 OA
ATOM     38  H   UNL     1      30.168  -4.264 -20.588  0.00  0.00    +0.210 HD
ENDBRANCH  36  37
ENDBRANCH  25  36
ENDBRANCH  24  25
ENDBRANCH  23  24
ENDBRANCH   1  23
TORSDOF 10
ENDMDL
