MODEL 1
REMARK VINA RESULT:     -12.5      0.000      0.000
REMARK  Name = 67335295
REMARK  6 active torsions:
REMARK  status: ('A' for Active; 'I' for Inactive)
REMARK    1  A    between atoms: N_2  and  C_14
REMARK    2  A    between atoms: C_7  and  O_20
REMARK    3  A    between atoms: O_20  and  C_21
REMARK    4  A    between atoms: C_21  and  C_23
REMARK    5  A    between atoms: C_22  and  C_28
REMARK    6  A    between atoms: C_28  and  N_30
REMARK                            x       y       z     vdW  Elec       q    Type
REMARK                         _______ _______ _______ _____ _____    ______ ____
ROOT
ATOM      1  O   UNL     1      34.595 -25.150 -11.647  0.00  0.00    -0.270 OA
ATOM      2  N   UNL     1      35.714 -25.082 -13.727  0.00  0.00    -0.265 N 
ATOM      3  C   UNL     1      35.408 -24.626 -15.078  0.00  0.00    +0.124 C 
ATOM      4  C   UNL     1      34.018 -24.110 -14.921  0.00  0.00    +0.036 C 
ATOM      5  C   UNL     1      34.668 -24.886 -12.833  0.00  0.00    +0.249 C 
ATOM      6  C   UNL     1      33.585 -24.264 -13.604  0.00  0.00    +0.054 C 
ATOM      7  C   UNL     1      33.185 -23.543 -15.867  0.00  0.00    +0.137 C 
ATOM      8  C   UNL     1      32.332 -23.869 -13.179  0.00  0.00    +0.004 C 
ATOM      9  C   UNL     1      31.910 -23.135 -15.464  0.00  0.00    +0.037 C 
ATOM     10  C   UNL     1      31.487 -23.297 -14.131  0.00  0.00    +0.003 C 
ENDROOT
BRANCH   2  14
ATOM     11  O   UNL     1      37.624 -23.449 -12.681  0.00  0.00    -0.273 OA
ATOM     12  O   UNL     1      41.032 -26.308 -13.868  0.00  0.00    -0.275 OA
ATOM     13  N   UNL     1      39.298 -24.895 -13.312  0.00  0.00    -0.254 N 
ATOM     14  C   UNL     1      36.972 -25.676 -13.357  0.00  0.00    +0.153 C 
ATOM     15  C   UNL     1      37.473 -26.622 -14.438  0.00  0.00    +0.039 C 
ATOM     16  C   UNL     1      38.814 -27.197 -14.020  0.00  0.00    +0.088 C 
ATOM     17  C   UNL     1      37.962 -24.553 -13.107  0.00  0.00    +0.246 C 
ATOM     18  C   UNL     1      39.824 -26.106 -13.752  0.00  0.00    +0.228 C 
ATOM     19  H   UNL     1      39.955 -24.187 -13.120  0.00  0.00    +0.158 HD
ENDBRANCH   2  14
BRANCH   7  20
ATOM     20  O   UNL     1      33.583 -23.385 -17.156  0.00  0.00    -0.471 OA
BRANCH  20  21
ATOM     21  C   UNL     1      32.688 -22.705 -18.037  0.00  0.00    +0.232 C 
BRANCH  21  23
ATOM     22  C   UNL     1      34.965 -20.264 -20.733  0.00  0.00    -0.043 C 
ATOM     23  C   UNL     1      33.484 -21.853 -18.981  0.00  0.00    +0.021 C 
ATOM     24  C   UNL     1      35.613 -21.190 -19.913  0.00  0.00    -0.007 C 
ATOM     25  C   UNL     1      33.578 -20.134 -20.677  0.00  0.00    -0.007 C 
ATOM     26  C   UNL     1      34.872 -21.983 -19.037  0.00  0.00    -0.001 C 
ATOM     27  C   UNL     1      32.837 -20.929 -19.801  0.00  0.00    -0.001 C 
BRANCH  22  28
ATOM     28  C   UNL     1      35.757 -19.416 -21.669  0.00  0.00    -0.050 C 
BRANCH  28  30
ATOM     29  O   UNL     1      34.958 -15.470 -22.859  0.00  0.00    -0.358 OA
ATOM     30  N   UNL     1      35.043 -18.201 -22.058  0.00  0.00    +0.393 N 
ATOM     31  C   UNL     1      35.309 -17.113 -21.108  0.00  0.00    -0.044 C 
ATOM     32  C   UNL     1      35.421 -17.787 -23.417  0.00  0.00    -0.044 C 
ATOM     33  C   UNL     1      34.674 -16.511 -23.796  0.00  0.00    +0.119 C 
ATOM     34  C   UNL     1      34.564 -15.854 -21.541  0.00  0.00    +0.119 C 
ATOM     35  H   UNL     1      34.045 -18.408 -22.046  0.00  0.00    -0.079 HD
ENDBRANCH  28  30
ENDBRANCH  22  28
ENDBRANCH  21  23
ENDBRANCH  20  21
ENDBRANCH   7  20
TORSDOF 6
ENDMDL
MODEL 2
REMARK VINA RESULT:     -12.3      1.349      1.776
REMARK  Name = 67335295
REMARK  6 active torsions:
REMARK  status: ('A' for Active; 'I' for Inactive)
REMARK    1  A    between atoms: N_2  and  C_14
REMARK    2  A    between atoms: C_7  and  O_20
REMARK    3  A    between atoms: O_20  and  C_21
REMARK    4  A    between atoms: C_21  and  C_23
REMARK    5  A    between atoms: C_22  and  C_28
REMARK    6  A    between atoms: C_28  and  N_30
REMARK                            x       y       z     vdW  Elec       q    Type
REMARK                         _______ _______ _______ _____ _____    ______ ____
ROOT
ATOM      1  O   UNL     1      33.700 -24.823 -12.378  0.00  0.00    -0.270 OA
ATOM      2  N   UNL     1      34.779 -24.328 -14.421  0.00  0.00    -0.265 N 
ATOM      3  C   UNL     1      34.381 -23.832 -15.733  0.00  0.00    +0.124 C 
ATOM      4  C   UNL     1      32.912 -23.652 -15.562  0.00  0.00    +0.036 C 
ATOM      5  C   UNL     1      33.714 -24.447 -13.535  0.00  0.00    +0.249 C 
ATOM      6  C   UNL     1      32.522 -24.013 -14.272  0.00  0.00    +0.054 C 
ATOM      7  C   UNL     1      31.975 -23.201 -16.474  0.00  0.00    +0.137 C 
ATOM      8  C   UNL     1      31.212 -23.943 -13.841  0.00  0.00    +0.004 C 
ATOM      9  C   UNL     1      30.641 -23.121 -16.063  0.00  0.00    +0.037 C 
ATOM     10  C   UNL     1      30.263 -23.488 -14.758  0.00  0.00    +0.003 C 
ENDROOT
BRANCH   2  14
ATOM     11  O   UNL     1      36.746 -22.644 -15.264  0.00  0.00    -0.273 OA
ATOM     12  O   UNL     1      39.965 -25.927 -15.018  0.00  0.00    -0.275 OA
ATOM     13  N   UNL     1      38.318 -24.320 -15.148  0.00  0.00    -0.254 N 
ATOM     14  C   UNL     1      36.136 -24.660 -14.077  0.00  0.00    +0.153 C 
ATOM     15  C   UNL     1      36.421 -26.134 -14.319  0.00  0.00    +0.039 C 
ATOM     16  C   UNL     1      37.869 -26.430 -13.975  0.00  0.00    +0.088 C 
ATOM     17  C   UNL     1      37.056 -23.779 -14.903  0.00  0.00    +0.246 C 
ATOM     18  C   UNL     1      38.815 -25.564 -14.772  0.00  0.00    +0.228 C 
ATOM     19  H   UNL     1      38.938 -23.745 -15.653  0.00  0.00    +0.158 HD
ENDBRANCH   2  14
BRANCH   7  20
ATOM     20  O   UNL     1      32.331 -22.846 -17.735  0.00  0.00    -0.471 OA
BRANCH  20  21
ATOM     21  C   UNL     1      33.601 -23.299 -18.207  0.00  0.00    +0.232 C 
BRANCH  21  23
ATOM     22  C   UNL     1      35.400 -20.208 -20.578  0.00  0.00    -0.043 C 
ATOM     23  C   UNL     1      34.230 -22.217 -19.034  0.00  0.00    +0.021 C 
ATOM     24  C   UNL     1      34.010 -20.303 -20.493  0.00  0.00    -0.007 C 
ATOM     25  C   UNL     1      36.204 -21.118 -19.892  0.00  0.00    -0.007 C 
ATOM     26  C   UNL     1      33.425 -21.307 -19.721  0.00  0.00    -0.001 C 
ATOM     27  C   UNL     1      35.619 -22.122 -19.119  0.00  0.00    -0.001 C 
BRANCH  22  28
ATOM     28  C   UNL     1      36.024 -19.135 -21.404  0.00  0.00    -0.050 C 
BRANCH  28  30
ATOM     29  O   UNL     1      34.501 -17.627 -25.013  0.00  0.00    -0.358 OA
ATOM     30  N   UNL     1      35.105 -18.600 -22.407  0.00  0.00    +0.393 N 
ATOM     31  C   UNL     1      35.534 -17.265 -22.847  0.00  0.00    -0.044 C 
ATOM     32  C   UNL     1      35.008 -19.505 -23.561  0.00  0.00    -0.044 C 
ATOM     33  C   UNL     1      34.055 -18.920 -24.599  0.00  0.00    +0.119 C 
ATOM     34  C   UNL     1      34.567 -16.733 -23.901  0.00  0.00    +0.119 C 
ATOM     35  H   UNL     1      34.184 -18.521 -21.976  0.00  0.00    -0.079 HD
ENDBRANCH  28  30
ENDBRANCH  22  28
ENDBRANCH  21  23
ENDBRANCH  20  21
ENDBRANCH   7  20
TORSDOF 6
ENDMDL
MODEL 3
REMARK VINA RESULT:     -11.6      6.722     14.976
REMARK  Name = 67335295
REMARK  6 active torsions:
REMARK  status: ('A' for Active; 'I' for Inactive)
REMARK    1  A    between atoms: N_2  and  C_14
REMARK    2  A    between atoms: C_7  and  O_20
REMARK    3  A    between atoms: O_20  and  C_21
REMARK    4  A    between atoms: C_21  and  C_23
REMARK    5  A    between atoms: C_22  and  C_28
REMARK    6  A    between atoms: C_28  and  N_30
REMARK                            x       y       z     vdW  Elec       q    Type
REMARK                         _______ _______ _______ _____ _____    ______ ____
ROOT
ATOM      1  O   UNL     1      32.239  -7.503 -19.375  0.00  0.00    -0.270 OA
ATOM      2  N   UNL     1      32.498  -8.252 -21.601  0.00  0.00    -0.265 N 
ATOM      3  C   UNL     1      32.426  -9.528 -22.302  0.00  0.00    +0.124 C 
ATOM      4  C   UNL     1      32.103 -10.471 -21.194  0.00  0.00    +0.036 C 
ATOM      5  C   UNL     1      32.255  -8.362 -20.237  0.00  0.00    +0.249 C 
ATOM      6  C   UNL     1      32.004  -9.786 -19.983  0.00  0.00    +0.054 C 
ATOM      7  C   UNL     1      31.908 -11.839 -21.240  0.00  0.00    +0.137 C 
ATOM      8  C   UNL     1      31.712 -10.417 -18.790  0.00  0.00    +0.004 C 
ATOM      9  C   UNL     1      31.613 -12.503 -20.046  0.00  0.00    +0.037 C 
ATOM     10  C   UNL     1      31.515 -11.798 -18.831  0.00  0.00    +0.003 C 
ENDROOT
BRANCH   2  14
ATOM     11  O   UNL     1      30.454  -6.483 -21.923  0.00  0.00    -0.273 OA
ATOM     12  O   UNL     1      32.541  -4.375 -25.445  0.00  0.00    -0.275 OA
ATOM     13  N   UNL     1      31.522  -5.472 -23.693  0.00  0.00    -0.254 N 
ATOM     14  C   UNL     1      32.791  -7.003 -22.254  0.00  0.00    +0.153 C 
ATOM     15  C   UNL     1      33.641  -7.219 -23.497  0.00  0.00    +0.039 C 
ATOM     16  C   UNL     1      33.896  -5.883 -24.170  0.00  0.00    +0.088 C 
ATOM     17  C   UNL     1      31.471  -6.336 -22.599  0.00  0.00    +0.246 C 
ATOM     18  C   UNL     1      32.603  -5.184 -24.519  0.00  0.00    +0.228 C 
ATOM     19  H   UNL     1      30.682  -5.006 -23.907  0.00  0.00    +0.158 HD
ENDBRANCH   2  14
BRANCH   7  20
ATOM     20  O   UNL     1      32.002 -12.527 -22.406  0.00  0.00    -0.471 OA
BRANCH  20  21
ATOM     21  C   UNL     1      33.274 -12.540 -23.056  0.00  0.00    +0.232 C 
BRANCH  21  23
ATOM     22  C   UNL     1      34.714 -16.578 -23.247  0.00  0.00    -0.043 C 
ATOM     23  C   UNL     1      33.776 -13.953 -23.122  0.00  0.00    +0.021 C 
ATOM     24  C   UNL     1      34.745 -15.882 -22.037  0.00  0.00    -0.007 C 
ATOM     25  C   UNL     1      34.214 -15.961 -24.393  0.00  0.00    -0.007 C 
ATOM     26  C   UNL     1      34.276 -14.570 -21.975  0.00  0.00    -0.001 C 
ATOM     27  C   UNL     1      33.744 -14.648 -24.331  0.00  0.00    -0.001 C 
BRANCH  22  28
ATOM     28  C   UNL     1      35.216 -17.980 -23.313  0.00  0.00    -0.050 C 
BRANCH  28  30
ATOM     29  O   UNL     1      36.338 -20.624 -20.252  0.00  0.00    -0.358 OA
ATOM     30  N   UNL     1      35.446 -18.551 -21.987  0.00  0.00    +0.393 N 
ATOM     31  C   UNL     1      34.678 -19.791 -21.812  0.00  0.00    -0.044 C 
ATOM     32  C   UNL     1      36.877 -18.811 -21.772  0.00  0.00    -0.044 C 
ATOM     33  C   UNL     1      37.091 -19.418 -20.388  0.00  0.00    +0.119 C 
ATOM     34  C   UNL     1      34.943 -20.374 -20.427  0.00  0.00    +0.119 C 
ATOM     35  H   UNL     1      35.131 -17.872 -21.295  0.00  0.00    -0.079 HD
ENDBRANCH  28  30
ENDBRANCH  22  28
ENDBRANCH  21  23
ENDBRANCH  20  21
ENDBRANCH   7  20
TORSDOF 6
ENDMDL
MODEL 4
REMARK VINA RESULT:     -11.5      3.279     12.208
REMARK  Name = 67335295
REMARK  6 active torsions:
REMARK  status: ('A' for Active; 'I' for Inactive)
REMARK    1  A    between atoms: N_2  and  C_14
REMARK    2  A    between atoms: C_7  and  O_20
REMARK    3  A    between atoms: O_20  and  C_21
REMARK    4  A    between atoms: C_21  and  C_23
REMARK    5  A    between atoms: C_22  and  C_28
REMARK    6  A    between atoms: C_28  and  N_30
REMARK                            x       y       z     vdW  Elec       q    Type
REMARK                         _______ _______ _______ _____ _____    ______ ____
ROOT
ATOM      1  O   UNL     1      33.482 -14.345 -25.074  0.00  0.00    -0.270 OA
ATOM      2  N   UNL     1      34.122 -14.372 -22.799  0.00  0.00    -0.265 N 
ATOM      3  C   UNL     1      34.627 -15.361 -21.854  0.00  0.00    +0.124 C 
ATOM      4  C   UNL     1      34.690 -16.588 -22.698  0.00  0.00    +0.036 C 
ATOM      5  C   UNL     1      33.895 -14.892 -24.068  0.00  0.00    +0.249 C 
ATOM      6  C   UNL     1      34.260 -16.312 -23.996  0.00  0.00    +0.054 C 
ATOM      7  C   UNL     1      35.097 -17.864 -22.354  0.00  0.00    +0.137 C 
ATOM      8  C   UNL     1      34.217 -17.272 -24.988  0.00  0.00    +0.004 C 
ATOM      9  C   UNL     1      35.063 -18.855 -23.340  0.00  0.00    +0.037 C 
ATOM     10  C   UNL     1      34.627 -18.561 -24.646  0.00  0.00    +0.003 C 
ENDROOT
BRANCH   2  14
ATOM     11  O   UNL     1      32.086 -13.835 -21.073  0.00  0.00    -0.273 OA
ATOM     12  O   UNL     1      31.658  -9.505 -22.579  0.00  0.00    -0.275 OA
ATOM     13  N   UNL     1      31.891 -11.685 -21.870  0.00  0.00    -0.254 N 
ATOM     14  C   UNL     1      33.883 -12.995 -22.454  0.00  0.00    +0.153 C 
ATOM     15  C   UNL     1      33.917 -12.105 -23.687  0.00  0.00    +0.039 C 
ATOM     16  C   UNL     1      33.628 -10.672 -23.281  0.00  0.00    +0.088 C 
ATOM     17  C   UNL     1      32.538 -12.915 -21.755  0.00  0.00    +0.246 C 
ATOM     18  C   UNL     1      32.300 -10.555 -22.572  0.00  0.00    +0.228 C 
ATOM     19  H   UNL     1      31.034 -11.607 -21.393  0.00  0.00    +0.158 HD
ENDBRANCH   2  14
BRANCH   7  20
ATOM     20  O   UNL     1      35.518 -18.157 -21.097  0.00  0.00    -0.471 OA
BRANCH  20  21
ATOM     21  C   UNL     1      36.381 -19.284 -20.944  0.00  0.00    +0.232 C 
BRANCH  21  23
ATOM     22  C   UNL     1      34.272 -22.396 -18.875  0.00  0.00    -0.043 C 
ATOM     23  C   UNL     1      35.643 -20.371 -20.218  0.00  0.00    +0.021 C 
ATOM     24  C   UNL     1      35.664 -22.329 -18.802  0.00  0.00    -0.007 C 
ATOM     25  C   UNL     1      33.566 -21.451 -19.619  0.00  0.00    -0.007 C 
ATOM     26  C   UNL     1      36.349 -21.316 -19.474  0.00  0.00    -0.001 C 
ATOM     27  C   UNL     1      34.252 -20.438 -20.290  0.00  0.00    -0.001 C 
BRANCH  22  28
ATOM     28  C   UNL     1      33.540 -23.478 -18.156  0.00  0.00    -0.050 C 
BRANCH  28  30
ATOM     29  O   UNL     1      32.840 -23.987 -14.049  0.00  0.00    -0.358 OA
ATOM     30  N   UNL     1      33.403 -23.203 -16.727  0.00  0.00    +0.393 N 
ATOM     31  C   UNL     1      32.029 -23.465 -16.276  0.00  0.00    -0.044 C 
ATOM     32  C   UNL     1      34.352 -24.011 -15.948  0.00  0.00    -0.044 C 
ATOM     33  C   UNL     1      34.181 -23.717 -14.460  0.00  0.00    +0.119 C 
ATOM     34  C   UNL     1      31.914 -23.183 -14.781  0.00  0.00    +0.119 C 
ATOM     35  H   UNL     1      33.613 -22.217 -16.577  0.00  0.00    -0.079 HD
ENDBRANCH  28  30
ENDBRANCH  22  28
ENDBRANCH  21  23
ENDBRANCH  20  21
ENDBRANCH   7  20
TORSDOF 6
ENDMDL
MODEL 5
REMARK VINA RESULT:     -11.5      4.698      9.837
REMARK  Name = 67335295
REMARK  6 active torsions:
REMARK  status: ('A' for Active; 'I' for Inactive)
REMARK    1  A    between atoms: N_2  and  C_14
REMARK    2  A    between atoms: C_7  and  O_20
REMARK    3  A    between atoms: O_20  and  C_21
REMARK    4  A    between atoms: C_21  and  C_23
REMARK    5  A    between atoms: C_22  and  C_28
REMARK    6  A    between atoms: C_28  and  N_30
REMARK                            x       y       z     vdW  Elec       q    Type
REMARK                         _______ _______ _______ _____ _____    ______ ____
ROOT
ATOM      1  O   UNL     1      35.023 -20.378 -23.860  0.00  0.00    -0.270 OA
ATOM      2  N   UNL     1      35.021 -19.495 -21.668  0.00  0.00    -0.265 N 
ATOM      3  C   UNL     1      34.927 -18.173 -21.061  0.00  0.00    +0.124 C 
ATOM      4  C   UNL     1      34.810 -17.292 -22.257  0.00  0.00    +0.036 C 
ATOM      5  C   UNL     1      34.971 -19.465 -23.057  0.00  0.00    +0.249 C 
ATOM      6  C   UNL     1      34.837 -18.051 -23.428  0.00  0.00    +0.054 C 
ATOM      7  C   UNL     1      34.688 -15.917 -22.320  0.00  0.00    +0.137 C 
ATOM      8  C   UNL     1      34.745 -17.488 -24.685  0.00  0.00    +0.004 C 
ATOM      9  C   UNL     1      34.594 -15.320 -23.581  0.00  0.00    +0.037 C 
ATOM     10  C   UNL     1      34.622 -16.099 -24.754  0.00  0.00    +0.003 C 
ENDROOT
BRANCH   2  14
ATOM     11  O   UNL     1      32.751 -20.600 -20.647  0.00  0.00    -0.273 OA
ATOM     12  O   UNL     1      35.063 -22.862 -17.370  0.00  0.00    -0.275 OA
ATOM     13  N   UNL     1      33.943 -21.695 -19.012  0.00  0.00    -0.254 N 
ATOM     14  C   UNL     1      35.152 -20.710 -20.907  0.00  0.00    +0.153 C 
ATOM     15  C   UNL     1      36.308 -20.621 -19.923  0.00  0.00    +0.039 C 
ATOM     16  C   UNL     1      36.387 -21.907 -19.122  0.00  0.00    +0.088 C 
ATOM     17  C   UNL     1      33.837 -20.955 -20.189  0.00  0.00    +0.246 C 
ATOM     18  C   UNL     1      35.091 -22.190 -18.401  0.00  0.00    +0.228 C 
ATOM     19  H   UNL     1      33.094 -21.892 -18.553  0.00  0.00    +0.158 HD
ENDBRANCH   2  14
BRANCH   7  20
ATOM     20  O   UNL     1      34.662 -15.157 -21.195  0.00  0.00    -0.471 OA
BRANCH  20  21
ATOM     21  C   UNL     1      33.419 -15.067 -20.498  0.00  0.00    +0.232 C 
BRANCH  21  23
ATOM     22  C   UNL     1      31.592 -11.286 -21.384  0.00  0.00    -0.043 C 
ATOM     23  C   UNL     1      32.778 -13.746 -20.808  0.00  0.00    +0.021 C 
ATOM     24  C   UNL     1      32.383 -11.922 -22.343  0.00  0.00    -0.007 C 
ATOM     25  C   UNL     1      31.396 -11.881 -20.138  0.00  0.00    -0.007 C 
ATOM     26  C   UNL     1      32.975 -13.152 -22.055  0.00  0.00    -0.001 C 
ATOM     27  C   UNL     1      31.988 -13.111 -19.850  0.00  0.00    -0.001 C 
BRANCH  22  28
ATOM     28  C   UNL     1      30.959  -9.972 -21.692  0.00  0.00    -0.050 C 
BRANCH  28  30
ATOM     29  O   UNL     1      32.999  -6.438 -22.677  0.00  0.00    -0.358 OA
ATOM     30  N   UNL     1      31.895  -9.037 -22.314  0.00  0.00    +0.393 N 
ATOM     31  C   UNL     1      31.173  -7.991 -23.052  0.00  0.00    -0.044 C 
ATOM     32  C   UNL     1      32.771  -8.427 -21.304  0.00  0.00    -0.044 C 
ATOM     33  C   UNL     1      33.729  -7.446 -21.975  0.00  0.00    +0.119 C 
ATOM     34  C   UNL     1      32.168  -7.021 -23.682  0.00  0.00    +0.119 C 
ATOM     35  H   UNL     1      32.471  -9.562 -22.972  0.00  0.00    -0.079 HD
ENDBRANCH  28  30
ENDBRANCH  22  28
ENDBRANCH  21  23
ENDBRANCH  20  21
ENDBRANCH   7  20
TORSDOF 6
ENDMDL
MODEL 6
REMARK VINA RESULT:     -11.4      2.565      5.517
REMARK  Name = 67335295
REMARK  6 active torsions:
REMARK  status: ('A' for Active; 'I' for Inactive)
REMARK    1  A    between atoms: N_2  and  C_14
REMARK    2  A    between atoms: C_7  and  O_20
REMARK    3  A    between atoms: O_20  and  C_21
REMARK    4  A    between atoms: C_21  and  C_23
REMARK    5  A    between atoms: C_22  and  C_28
REMARK    6  A    between atoms: C_28  and  N_30
REMARK                            x       y       z     vdW  Elec       q    Type
REMARK                         _______ _______ _______ _____ _____    ______ ____
ROOT
ATOM      1  O   UNL     1      32.326 -25.485 -12.773  0.00  0.00    -0.270 OA
ATOM      2  N   UNL     1      31.894 -23.969 -14.534  0.00  0.00    -0.265 N 
ATOM      3  C   UNL     1      32.681 -23.258 -15.534  0.00  0.00    +0.124 C 
ATOM      4  C   UNL     1      34.064 -23.716 -15.220  0.00  0.00    +0.036 C 
ATOM      5  C   UNL     1      32.664 -24.769 -13.698  0.00  0.00    +0.249 C 
ATOM      6  C   UNL     1      34.053 -24.602 -14.143  0.00  0.00    +0.054 C 
ATOM      7  C   UNL     1      35.256 -23.381 -15.836  0.00  0.00    +0.137 C 
ATOM      8  C   UNL     1      35.201 -25.182 -13.641  0.00  0.00    +0.004 C 
ATOM      9  C   UNL     1      36.434 -23.953 -15.347  0.00  0.00    +0.037 C 
ATOM     10  C   UNL     1      36.407 -24.847 -14.259  0.00  0.00    +0.003 C 
ENDROOT
BRANCH   2  14
ATOM     11  O   UNL     1      30.376 -25.924 -15.669  0.00  0.00    -0.273 OA
ATOM     12  O   UNL     1      26.694 -23.179 -15.999  0.00  0.00    -0.275 OA
ATOM     13  N   UNL     1      28.567 -24.512 -15.835  0.00  0.00    -0.254 N 
ATOM     14  C   UNL     1      30.463 -23.854 -14.423  0.00  0.00    +0.153 C 
ATOM     15  C   UNL     1      30.000 -22.438 -14.727  0.00  0.00    +0.039 C 
ATOM     16  C   UNL     1      28.486 -22.373 -14.630  0.00  0.00    +0.088 C 
ATOM     17  C   UNL     1      29.839 -24.855 -15.378  0.00  0.00    +0.246 C 
ATOM     18  C   UNL     1      27.829 -23.364 -15.561  0.00  0.00    +0.228 C 
ATOM     19  H   UNL     1      28.135 -25.168 -16.429  0.00  0.00    +0.158 HD
ENDBRANCH   2  14
BRANCH   7  20
ATOM     20  O   UNL     1      35.292 -22.519 -16.884  0.00  0.00    -0.471 OA
BRANCH  20  21
ATOM     21  C   UNL     1      34.471 -22.828 -18.011  0.00  0.00    +0.232 C 
BRANCH  21  23
ATOM     22  C   UNL     1      35.296 -20.022 -21.151  0.00  0.00    -0.043 C 
ATOM     23  C   UNL     1      34.760 -21.849 -19.111  0.00  0.00    +0.021 C 
ATOM     24  C   UNL     1      36.348 -20.625 -20.459  0.00  0.00    -0.007 C 
ATOM     25  C   UNL     1      33.977 -20.332 -20.822  0.00  0.00    -0.007 C 
ATOM     26  C   UNL     1      36.079 -21.538 -19.439  0.00  0.00    -0.001 C 
ATOM     27  C   UNL     1      33.709 -21.246 -19.802  0.00  0.00    -0.001 C 
BRANCH  22  28
ATOM     28  C   UNL     1      35.584 -19.046 -22.241  0.00  0.00    -0.050 C 
BRANCH  28  30
ATOM     29  O   UNL     1      34.584 -14.989 -21.836  0.00  0.00    -0.358 OA
ATOM     30  N   UNL     1      34.808 -17.815 -22.104  0.00  0.00    +0.393 N 
ATOM     31  C   UNL     1      35.129 -17.134 -20.842  0.00  0.00    -0.044 C 
ATOM     32  C   UNL     1      35.055 -16.914 -23.238  0.00  0.00    -0.044 C 
ATOM     33  C   UNL     1      34.245 -15.631 -23.067  0.00  0.00    +0.119 C 
ATOM     34  C   UNL     1      34.317 -15.847 -20.727  0.00  0.00    +0.119 C 
ATOM     35  H   UNL     1      33.820 -18.067 -22.096  0.00  0.00    -0.079 HD
ENDBRANCH  28  30
ENDBRANCH  22  28
ENDBRANCH  21  23
ENDBRANCH  20  21
ENDBRANCH   7  20
TORSDOF 6
ENDMDL
MODEL 7
REMARK VINA RESULT:     -11.1      2.413      5.340
REMARK  Name = 67335295
REMARK  6 active torsions:
REMARK  status: ('A' for Active; 'I' for Inactive)
REMARK    1  A    between atoms: N_2  and  C_14
REMARK    2  A    between atoms: C_7  and  O_20
REMARK    3  A    between atoms: O_20  and  C_21
REMARK    4  A    between atoms: C_21  and  C_23
REMARK    5  A    between atoms: C_22  and  C_28
REMARK    6  A    between atoms: C_28  and  N_30
REMARK                            x       y       z     vdW  Elec       q    Type
REMARK                         _______ _______ _______ _____ _____    ______ ____
ROOT
ATOM      1  O   UNL     1      34.254 -25.200 -13.736  0.00  0.00    -0.270 OA
ATOM      2  N   UNL     1      33.548 -23.730 -15.447  0.00  0.00    -0.265 N 
ATOM      3  C   UNL     1      34.189 -22.837 -16.404  0.00  0.00    +0.124 C 
ATOM      4  C   UNL     1      35.632 -23.024 -16.082  0.00  0.00    +0.036 C 
ATOM      5  C   UNL     1      34.453 -24.395 -14.627  0.00  0.00    +0.249 C 
ATOM      6  C   UNL     1      35.786 -23.938 -15.039  0.00  0.00    +0.054 C 
ATOM      7  C   UNL     1      36.740 -22.434 -16.661  0.00  0.00    +0.137 C 
ATOM      8  C   UNL     1      37.021 -24.298 -14.537  0.00  0.00    +0.004 C 
ATOM      9  C   UNL     1      38.003 -22.780 -16.172  0.00  0.00    +0.037 C 
ATOM     10  C   UNL     1      38.142 -23.705 -15.119  0.00  0.00    +0.003 C 
ENDROOT
BRANCH   2  14
ATOM     11  O   UNL     1      32.066 -23.182 -17.663  0.00  0.00    -0.273 OA
ATOM     12  O   UNL     1      28.242 -22.472 -15.200  0.00  0.00    -0.275 OA
ATOM     13  N   UNL     1      30.183 -22.814 -16.392  0.00  0.00    -0.254 N 
ATOM     14  C   UNL     1      32.123 -23.907 -15.358  0.00  0.00    +0.153 C 
ATOM     15  C   UNL     1      31.574 -23.315 -14.069  0.00  0.00    +0.039 C 
ATOM     16  C   UNL     1      30.067 -23.494 -14.035  0.00  0.00    +0.088 C 
ATOM     17  C   UNL     1      31.495 -23.253 -16.576  0.00  0.00    +0.246 C 
ATOM     18  C   UNL     1      29.407 -22.863 -15.238  0.00  0.00    +0.228 C 
ATOM     19  H   UNL     1      29.751 -22.419 -17.184  0.00  0.00    +0.158 HD
ENDBRANCH   2  14
BRANCH   7  20
ATOM     20  O   UNL     1      36.615 -21.540 -17.675  0.00  0.00    -0.471 OA
BRANCH  20  21
ATOM     21  C   UNL     1      36.111 -22.030 -18.919  0.00  0.00    +0.232 C 
BRANCH  21  23
ATOM     22  C   UNL     1      35.783 -18.768 -21.687  0.00  0.00    -0.043 C 
ATOM     23  C   UNL     1      35.996 -20.888 -19.885  0.00  0.00    +0.021 C 
ATOM     24  C   UNL     1      34.674 -19.573 -21.421  0.00  0.00    -0.007 C 
ATOM     25  C   UNL     1      36.998 -19.025 -21.052  0.00  0.00    -0.007 C 
ATOM     26  C   UNL     1      34.780 -20.632 -20.520  0.00  0.00    -0.001 C 
ATOM     27  C   UNL     1      37.104 -20.084 -20.151  0.00  0.00    -0.001 C 
BRANCH  22  28
ATOM     28  C   UNL     1      35.668 -17.636 -22.650  0.00  0.00    -0.050 C 
BRANCH  28  30
ATOM     29  O   UNL     1      33.606 -14.181 -21.454  0.00  0.00    -0.358 OA
ATOM     30  N   UNL     1      34.588 -16.716 -22.301  0.00  0.00    +0.393 N 
ATOM     31  C   UNL     1      34.715 -16.269 -20.907  0.00  0.00    -0.044 C 
ATOM     32  C   UNL     1      34.579 -15.555 -23.203  0.00  0.00    -0.044 C 
ATOM     33  C   UNL     1      33.452 -14.604 -22.810  0.00  0.00    +0.119 C 
ATOM     34  C   UNL     1      33.585 -15.301 -20.569  0.00  0.00    +0.119 C 
ATOM     35  H   UNL     1      33.705 -17.216 -22.403  0.00  0.00    -0.079 HD
ENDBRANCH  28  30
ENDBRANCH  22  28
ENDBRANCH  21  23
ENDBRANCH  20  21
ENDBRANCH   7  20
TORSDOF 6
ENDMDL
MODEL 8
REMARK VINA RESULT:     -10.8      6.024     14.384
REMARK  Name = 67335295
REMARK  6 active torsions:
REMARK  status: ('A' for Active; 'I' for Inactive)
REMARK    1  A    between atoms: N_2  and  C_14
REMARK    2  A    between atoms: C_7  and  O_20
REMARK    3  A    between atoms: O_20  and  C_21
REMARK    4  A    between atoms: C_21  and  C_23
REMARK    5  A    between atoms: C_22  and  C_28
REMARK    6  A    between atoms: C_28  and  N_30
REMARK                            x       y       z     vdW  Elec       q    Type
REMARK                         _______ _______ _______ _____ _____    ______ ____
ROOT
ATOM      1  O   UNL     1      31.548  -8.607 -20.134  0.00  0.00    -0.270 OA
ATOM      2  N   UNL     1      32.200  -9.455 -22.241  0.00  0.00    -0.265 N 
ATOM      3  C   UNL     1      32.511 -10.763 -22.804  0.00  0.00    +0.124 C 
ATOM      4  C   UNL     1      32.321 -11.658 -21.627  0.00  0.00    +0.036 C 
ATOM      5  C   UNL     1      31.859  -9.505 -20.895  0.00  0.00    +0.249 C 
ATOM      6  C   UNL     1      31.939 -10.918 -20.508  0.00  0.00    +0.054 C 
ATOM      7  C   UNL     1      32.472 -13.029 -21.539  0.00  0.00    +0.137 C 
ATOM      8  C   UNL     1      31.695 -11.498 -19.278  0.00  0.00    +0.004 C 
ATOM      9  C   UNL     1      32.232 -13.641 -20.305  0.00  0.00    +0.037 C 
ATOM     10  C   UNL     1      31.846 -12.882 -19.184  0.00  0.00    +0.003 C 
ENDROOT
BRANCH   2  14
ATOM     11  O   UNL     1      34.337  -7.808 -21.877  0.00  0.00    -0.273 OA
ATOM     12  O   UNL     1      32.024  -4.115 -23.362  0.00  0.00    -0.275 OA
ATOM     13  N   UNL     1      33.138  -5.984 -22.605  0.00  0.00    -0.254 N 
ATOM     14  C   UNL     1      32.242  -8.234 -23.003  0.00  0.00    +0.153 C 
ATOM     15  C   UNL     1      30.893  -7.531 -22.988  0.00  0.00    +0.039 C 
ATOM     16  C   UNL     1      30.993  -6.236 -23.774  0.00  0.00    +0.088 C 
ATOM     17  C   UNL     1      33.328  -7.353 -22.413  0.00  0.00    +0.246 C 
ATOM     18  C   UNL     1      32.072  -5.336 -23.221  0.00  0.00    +0.228 C 
ATOM     19  H   UNL     1      33.852  -5.402 -22.258  0.00  0.00    +0.158 HD
ENDBRANCH   2  14
BRANCH   7  20
ATOM     20  O   UNL     1      32.846 -13.770 -22.614  0.00  0.00    -0.471 OA
BRANCH  20  21
ATOM     21  C   UNL     1      34.246 -13.964 -22.818  0.00  0.00    +0.232 C 
BRANCH  21  23
ATOM     22  C   UNL     1      35.191 -18.098 -22.161  0.00  0.00    -0.043 C 
ATOM     23  C   UNL     1      34.579 -15.409 -22.588  0.00  0.00    +0.021 C 
ATOM     24  C   UNL     1      35.106 -17.599 -23.462  0.00  0.00    -0.007 C 
ATOM     25  C   UNL     1      34.969 -17.252 -21.075  0.00  0.00    -0.007 C 
ATOM     26  C   UNL     1      34.800 -16.255 -23.675  0.00  0.00    -0.001 C 
ATOM     27  C   UNL     1      34.664 -15.907 -21.288  0.00  0.00    -0.001 C 
BRANCH  22  28
ATOM     28  C   UNL     1      35.518 -19.535 -21.934  0.00  0.00    -0.050 C 
BRANCH  28  30
ATOM     29  O   UNL     1      33.863 -22.082 -19.038  0.00  0.00    -0.358 OA
ATOM     30  N   UNL     1      34.978 -20.035 -20.671  0.00  0.00    +0.393 N 
ATOM     31  C   UNL     1      33.587 -20.480 -20.839  0.00  0.00    -0.044 C 
ATOM     32  C   UNL     1      35.800 -21.137 -20.153  0.00  0.00    -0.044 C 
ATOM     33  C   UNL     1      35.211 -21.651 -18.842  0.00  0.00    +0.119 C 
ATOM     34  C   UNL     1      33.050 -21.008 -19.512  0.00  0.00    +0.119 C 
ATOM     35  H   UNL     1      34.996 -19.269 -19.998  0.00  0.00    -0.079 HD
ENDBRANCH  28  30
ENDBRANCH  22  28
ENDBRANCH  21  23
ENDBRANCH  20  21
ENDBRANCH   7  20
TORSDOF 6
ENDMDL
MODEL 9
REMARK VINA RESULT:      -9.9     10.667     15.109
REMARK  Name = 67335295
REMARK  6 active torsions:
REMARK  status: ('A' for Active; 'I' for Inactive)
REMARK    1  A    between atoms: N_2  and  C_14
REMARK    2  A    between atoms: C_7  and  O_20
REMARK    3  A    between atoms: O_20  and  C_21
REMARK    4  A    between atoms: C_21  and  C_23
REMARK    5  A    between atoms: C_22  and  C_28
REMARK    6  A    between atoms: C_28  and  N_30
REMARK                            x       y       z     vdW  Elec       q    Type
REMARK                         _______ _______ _______ _____ _____    ______ ____
ROOT
ATOM      1  O   UNL     1      31.867 -14.342 -20.026  0.00  0.00    -0.270 OA
ATOM      2  N   UNL     1      32.563 -13.254 -22.004  0.00  0.00    -0.265 N 
ATOM      3  C   UNL     1      32.721 -11.875 -22.453  0.00  0.00    +0.124 C 
ATOM      4  C   UNL     1      32.295 -11.108 -21.248  0.00  0.00    +0.036 C 
ATOM      5  C   UNL     1      32.102 -13.354 -20.696  0.00  0.00    +0.249 C 
ATOM      6  C   UNL     1      31.932 -11.977 -20.218  0.00  0.00    +0.054 C 
ATOM      7  C   UNL     1      32.228  -9.740 -21.062  0.00  0.00    +0.137 C 
ATOM      8  C   UNL     1      31.497 -11.533 -18.985  0.00  0.00    +0.004 C 
ATOM      9  C   UNL     1      31.790  -9.263 -19.823  0.00  0.00    +0.037 C 
ATOM     10  C   UNL     1      31.428 -10.153 -18.793  0.00  0.00    +0.003 C 
ENDROOT
BRANCH   2  14
ATOM     11  O   UNL     1      34.660 -14.834 -21.282  0.00  0.00    -0.273 OA
ATOM     12  O   UNL     1      35.191 -16.459 -25.557  0.00  0.00    -0.275 OA
ATOM     13  N   UNL     1      34.905 -15.603 -23.437  0.00  0.00    -0.254 N 
ATOM     14  C   UNL     1      32.856 -14.395 -22.830  0.00  0.00    +0.153 C 
ATOM     15  C   UNL     1      32.820 -14.029 -24.306  0.00  0.00    +0.039 C 
ATOM     16  C   UNL     1      33.167 -15.252 -25.136  0.00  0.00    +0.088 C 
ATOM     17  C   UNL     1      34.221 -14.925 -22.428  0.00  0.00    +0.246 C 
ATOM     18  C   UNL     1      34.516 -15.814 -24.756  0.00  0.00    +0.228 C 
ATOM     19  H   UNL     1      35.776 -15.983 -23.181  0.00  0.00    +0.158 HD
ENDBRANCH   2  14
BRANCH   7  20
ATOM     20  O   UNL     1      32.574  -8.875 -22.050  0.00  0.00    -0.471 OA
BRANCH  20  21
ATOM     21  C   UNL     1      33.100  -7.608 -21.653  0.00  0.00    +0.232 C 
BRANCH  21  23
ATOM     22  C   UNL     1      32.879  -4.903 -24.977  0.00  0.00    -0.043 C 
ATOM     23  C   UNL     1      33.024  -6.661 -22.814  0.00  0.00    +0.021 C 
ATOM     24  C   UNL     1      32.012  -4.750 -23.894  0.00  0.00    -0.007 C 
ATOM     25  C   UNL     1      33.817  -5.935 -24.979  0.00  0.00    -0.007 C 
ATOM     26  C   UNL     1      32.085  -5.629 -22.813  0.00  0.00    -0.001 C 
ATOM     27  C   UNL     1      33.890  -6.813 -23.897  0.00  0.00    -0.001 C 
BRANCH  22  28
ATOM     28  C   UNL     1      32.800  -3.964 -26.132  0.00  0.00    -0.050 C 
BRANCH  28  30
ATOM     29  O   UNL     1      35.769  -2.656 -28.795  0.00  0.00    -0.358 OA
ATOM     30  N   UNL     1      34.081  -3.824 -26.823  0.00  0.00    +0.393 N 
ATOM     31  C   UNL     1      33.943  -4.158 -28.248  0.00  0.00    -0.044 C 
ATOM     32  C   UNL     1      34.606  -2.459 -26.674  0.00  0.00    -0.044 C 
ATOM     33  C   UNL     1      35.936  -2.333 -27.414  0.00  0.00    +0.119 C 
ATOM     34  C   UNL     1      35.288  -3.992 -28.949  0.00  0.00    +0.119 C 
ATOM     35  H   UNL     1      34.739  -4.475 -26.397  0.00  0.00    -0.079 HD
ENDBRANCH  28  30
ENDBRANCH  22  28
ENDBRANCH  21  23
ENDBRANCH  20  21
ENDBRANCH   7  20
TORSDOF 6
ENDMDL
