MODEL 1
REMARK VINA RESULT:     -12.2      0.000      0.000
REMARK  Name = 447735
REMARK  4 active torsions:
REMARK  status: ('A' for Active; 'I' for Inactive)
REMARK    1  A    between atoms: N_2  and  C_13
REMARK    2  A    between atoms: C_3  and  C_18
REMARK    3  A    between atoms: C_7  and  C_15
REMARK    4  A    between atoms: C_26  and  C_30
REMARK                            x       y       z     vdW  Elec       q    Type
REMARK                         _______ _______ _______ _____ _____    ______ ____
ROOT
ATOM      1  O   UNL     1      32.853 -21.389 -19.995  0.00  0.00    -0.270 OA
ATOM      2  N   UNL     1      35.031 -20.526 -20.199  0.00  0.00    -0.280 N 
ATOM      3  C   UNL     1      34.020 -21.312 -19.628  0.00  0.00    +0.249 C 
ATOM      4  H   UNL     1      35.917 -20.588 -19.774  0.00  0.00    +0.155 HD
ENDROOT
BRANCH   2  13
ATOM      5  N   UNL     1      34.871 -15.146 -23.043  0.00  0.00    -0.274 NA
ATOM      6  C   UNL     1      34.760 -17.440 -22.200  0.00  0.00    +0.010 C 
ATOM      7  C   UNL     1      34.645 -15.965 -22.070  0.00  0.00    +0.053 C 
ATOM      8  C   UNL     1      34.755 -17.962 -23.501  0.00  0.00    -0.019 C 
ATOM      9  C   UNL     1      34.621 -17.015 -24.656  0.00  0.00    +0.053 C 
ATOM     10  C   UNL     1      35.327 -15.708 -24.319  0.00  0.00    +0.130 C 
ATOM     11  C   UNL     1      34.855 -18.291 -21.097  0.00  0.00    +0.016 C 
ATOM     12  C   UNL     1      34.819 -19.346 -23.689  0.00  0.00    -0.003 C 
ATOM     13  C   UNL     1      34.935 -19.670 -21.296  0.00  0.00    +0.051 C 
ATOM     14  C   UNL     1      34.914 -20.196 -22.588  0.00  0.00    +0.014 C 
BRANCH   7  15
ATOM     15  C   UNL     1      34.237 -15.383 -20.739  0.00  0.00    +0.040 C 
ATOM     16  C   UNL     1      34.655 -13.924 -20.699  0.00  0.00    +0.006 C 
ATOM     17  C   UNL     1      32.739 -15.551 -20.558  0.00  0.00    +0.006 C 
ENDBRANCH   7  15
ENDBRANCH   2  13
BRANCH   3  18
ATOM     18  C   UNL     1      34.426 -22.106 -18.439  0.00  0.00    +0.054 C 
ATOM     19  C   UNL     1      36.122 -22.747 -16.859  0.00  0.00    +0.000 C 
ATOM     20  C   UNL     1      35.182 -23.588 -16.217  0.00  0.00    +0.000 C 
ATOM     21  C   UNL     1      35.723 -22.003 -17.981  0.00  0.00    +0.005 C 
ATOM     22  C   UNL     1      33.493 -22.916 -17.833  0.00  0.00    +0.005 C 
ATOM     23  C   UNL     1      33.871 -23.662 -16.716  0.00  0.00    +0.000 C 
ATOM     24  C   UNL     1      35.580 -24.332 -15.094  0.00  0.00    +0.003 C 
ATOM     25  C   UNL     1      37.432 -22.675 -16.358  0.00  0.00    +0.000 C 
ATOM     26  C   UNL     1      36.887 -24.248 -14.611  0.00  0.00    +0.031 C 
ATOM     27  C   UNL     1      37.811 -23.420 -15.242  0.00  0.00    +0.003 C 
BRANCH  26  30
ATOM     28  N   UNL     1      36.558 -26.140 -13.038  0.00  0.00    -0.343 N 
ATOM     29  N   UNL     1      38.350 -24.669 -12.752  0.00  0.00    -0.285 NA
ATOM     30  C   UNL     1      37.283 -25.023 -13.447  0.00  0.00    +0.117 C 
ATOM     31  H   UNL     1      36.845 -26.651 -12.247  0.00  0.00    +0.144 HD
ATOM     32  H   UNL     1      35.758 -26.419 -13.541  0.00  0.00    +0.144 HD
ATOM     33  H   UNL     1      38.621 -25.192 -11.963  0.00  0.00    +0.188 HD
ENDBRANCH  26  30
ENDBRANCH   3  18
TORSDOF 4
ENDMDL
MODEL 2
REMARK VINA RESULT:     -11.9      0.702      1.595
REMARK  Name = 447735
REMARK  4 active torsions:
REMARK  status: ('A' for Active; 'I' for Inactive)
REMARK    1  A    between atoms: N_2  and  C_13
REMARK    2  A    between atoms: C_3  and  C_18
REMARK    3  A    between atoms: C_7  and  C_15
REMARK    4  A    between atoms: C_26  and  C_30
REMARK                            x       y       z     vdW  Elec       q    Type
REMARK                         _______ _______ _______ _____ _____    ______ ____
ROOT
ATOM      1  O   UNL     1      33.694 -21.685 -19.821  0.00  0.00    -0.270 OA
ATOM      2  N   UNL     1      35.643 -20.392 -20.067  0.00  0.00    -0.280 N 
ATOM      3  C   UNL     1      34.819 -21.353 -19.466  0.00  0.00    +0.249 C 
ATOM      4  H   UNL     1      36.521 -20.253 -19.647  0.00  0.00    +0.155 HD
ENDROOT
BRANCH   2  13
ATOM      5  N   UNL     1      34.721 -15.216 -23.136  0.00  0.00    -0.274 NA
ATOM      6  C   UNL     1      34.904 -17.461 -22.179  0.00  0.00    +0.010 C 
ATOM      7  C   UNL     1      34.661 -15.997 -22.109  0.00  0.00    +0.053 C 
ATOM      8  C   UNL     1      34.835 -18.052 -23.447  0.00  0.00    -0.019 C 
ATOM      9  C   UNL     1      34.511 -17.187 -24.629  0.00  0.00    +0.053 C 
ATOM     10  C   UNL     1      35.115 -15.804 -24.421  0.00  0.00    +0.130 C 
ATOM     11  C   UNL     1      35.176 -18.236 -21.050  0.00  0.00    +0.016 C 
ATOM     12  C   UNL     1      35.014 -19.433 -23.575  0.00  0.00    -0.003 C 
ATOM     13  C   UNL     1      35.370 -19.611 -21.190  0.00  0.00    +0.051 C 
ATOM     14  C   UNL     1      35.286 -20.208 -22.449  0.00  0.00    +0.014 C 
BRANCH   7  15
ATOM     15  C   UNL     1      34.317 -15.381 -20.774  0.00  0.00    +0.040 C 
ATOM     16  C   UNL     1      34.721 -13.917 -20.798  0.00  0.00    +0.006 C 
ATOM     17  C   UNL     1      32.832 -15.557 -20.511  0.00  0.00    +0.006 C 
ENDBRANCH   7  15
ENDBRANCH   2  13
BRANCH   3  18
ATOM     18  C   UNL     1      35.382 -22.006 -18.254  0.00  0.00    +0.054 C 
ATOM     19  C   UNL     1      35.066 -23.391 -16.314  0.00  0.00    +0.000 C 
ATOM     20  C   UNL     1      36.434 -23.226 -15.994  0.00  0.00    +0.000 C 
ATOM     21  C   UNL     1      34.549 -22.769 -17.462  0.00  0.00    +0.005 C 
ATOM     22  C   UNL     1      36.715 -21.829 -17.966  0.00  0.00    +0.005 C 
ATOM     23  C   UNL     1      37.247 -22.441 -16.830  0.00  0.00    +0.000 C 
ATOM     24  C   UNL     1      36.951 -23.849 -14.846  0.00  0.00    +0.003 C 
ATOM     25  C   UNL     1      34.256 -24.176 -15.478  0.00  0.00    +0.000 C 
ATOM     26  C   UNL     1      36.131 -24.625 -14.026  0.00  0.00    +0.031 C 
ATOM     27  C   UNL     1      34.785 -24.788 -14.342  0.00  0.00    +0.003 C 
BRANCH  26  30
ATOM     28  N   UNL     1      38.057 -25.390 -12.659  0.00  0.00    -0.343 N 
ATOM     29  N   UNL     1      35.870 -25.743 -11.915  0.00  0.00    -0.285 NA
ATOM     30  C   UNL     1      36.681 -25.264 -12.842  0.00  0.00    +0.117 C 
ATOM     31  H   UNL     1      38.408 -25.827 -11.849  0.00  0.00    +0.144 HD
ATOM     32  H   UNL     1      38.678 -25.043 -13.339  0.00  0.00    +0.144 HD
ATOM     33  H   UNL     1      36.240 -26.177 -11.112  0.00  0.00    +0.188 HD
ENDBRANCH  26  30
ENDBRANCH   3  18
TORSDOF 4
ENDMDL
MODEL 3
REMARK VINA RESULT:     -11.2      1.759      3.018
REMARK  Name = 447735
REMARK  4 active torsions:
REMARK  status: ('A' for Active; 'I' for Inactive)
REMARK    1  A    between atoms: N_2  and  C_13
REMARK    2  A    between atoms: C_3  and  C_18
REMARK    3  A    between atoms: C_7  and  C_15
REMARK    4  A    between atoms: C_26  and  C_30
REMARK                            x       y       z     vdW  Elec       q    Type
REMARK                         _______ _______ _______ _____ _____    ______ ____
ROOT
ATOM      1  O   UNL     1      34.876 -20.178 -22.482  0.00  0.00    -0.270 OA
ATOM      2  N   UNL     1      34.952 -18.287 -21.086  0.00  0.00    -0.280 N 
ATOM      3  C   UNL     1      35.024 -19.655 -21.383  0.00  0.00    +0.249 C 
ATOM      4  H   UNL     1      35.098 -18.043 -20.144  0.00  0.00    +0.155 HD
ENDROOT
BRANCH   2  13
ATOM      5  N   UNL     1      33.448 -12.593 -22.626  0.00  0.00    -0.274 NA
ATOM      6  C   UNL     1      33.950 -14.972 -22.353  0.00  0.00    +0.010 C 
ATOM      7  C   UNL     1      33.393 -13.668 -21.912  0.00  0.00    +0.053 C 
ATOM      8  C   UNL     1      34.210 -15.117 -23.722  0.00  0.00    -0.019 C 
ATOM      9  C   UNL     1      33.901 -13.972 -24.639  0.00  0.00    +0.053 C 
ATOM     10  C   UNL     1      34.156 -12.659 -23.909  0.00  0.00    +0.130 C 
ATOM     11  C   UNL     1      34.199 -16.025 -21.470  0.00  0.00    +0.016 C 
ATOM     12  C   UNL     1      34.697 -16.334 -24.207  0.00  0.00    -0.003 C 
ATOM     13  C   UNL     1      34.701 -17.231 -21.962  0.00  0.00    +0.051 C 
ATOM     14  C   UNL     1      34.946 -17.386 -23.326  0.00  0.00    +0.014 C 
BRANCH   7  15
ATOM     15  C   UNL     1      32.719 -13.585 -20.563  0.00  0.00    +0.040 C 
ATOM     16  C   UNL     1      31.640 -12.519 -20.626  0.00  0.00    +0.006 C 
ATOM     17  C   UNL     1      32.154 -14.947 -20.203  0.00  0.00    +0.006 C 
ENDBRANCH   7  15
ENDBRANCH   2  13
BRANCH   3  18
ATOM     18  C   UNL     1      35.283 -20.547 -20.222  0.00  0.00    +0.054 C 
ATOM     19  C   UNL     1      34.453 -22.075 -18.561  0.00  0.00    +0.000 C 
ATOM     20  C   UNL     1      35.767 -22.213 -18.055  0.00  0.00    +0.000 C 
ATOM     21  C   UNL     1      34.224 -21.229 -19.659  0.00  0.00    +0.005 C 
ATOM     22  C   UNL     1      36.570 -20.662 -19.749  0.00  0.00    +0.005 C 
ATOM     23  C   UNL     1      36.815 -21.499 -18.660  0.00  0.00    +0.000 C 
ATOM     24  C   UNL     1      35.995 -23.059 -16.957  0.00  0.00    +0.003 C 
ATOM     25  C   UNL     1      33.406 -22.788 -17.955  0.00  0.00    +0.000 C 
ATOM     26  C   UNL     1      34.942 -23.760 -16.368  0.00  0.00    +0.031 C 
ATOM     27  C   UNL     1      33.650 -23.625 -16.866  0.00  0.00    +0.003 C 
BRANCH  26  30
ATOM     28  N   UNL     1      36.266 -25.523 -15.227  0.00  0.00    -0.343 N 
ATOM     29  N   UNL     1      34.395 -24.592 -14.181  0.00  0.00    -0.285 NA
ATOM     30  C   UNL     1      35.195 -24.633 -15.233  0.00  0.00    +0.117 C 
ATOM     31  H   UNL     1      36.419 -26.105 -14.447  0.00  0.00    +0.144 HD
ATOM     32  H   UNL     1      36.871 -25.571 -16.002  0.00  0.00    +0.144 HD
ATOM     33  H   UNL     1      34.564 -25.183 -13.411  0.00  0.00    +0.188 HD
ENDBRANCH  26  30
ENDBRANCH   3  18
TORSDOF 4
ENDMDL
MODEL 4
REMARK VINA RESULT:     -10.9      6.411     11.022
REMARK  Name = 447735
REMARK  4 active torsions:
REMARK  status: ('A' for Active; 'I' for Inactive)
REMARK    1  A    between atoms: N_2  and  C_13
REMARK    2  A    between atoms: C_3  and  C_18
REMARK    3  A    between atoms: C_7  and  C_15
REMARK    4  A    between atoms: C_26  and  C_30
REMARK                            x       y       z     vdW  Elec       q    Type
REMARK                         _______ _______ _______ _____ _____    ______ ____
ROOT
ATOM      1  O   UNL     1      31.119 -11.518 -21.609  0.00  0.00    -0.270 OA
ATOM      2  N   UNL     1      32.967 -10.284 -22.376  0.00  0.00    -0.280 N 
ATOM      3  C   UNL     1      32.244 -11.450 -22.089  0.00  0.00    +0.249 C 
ATOM      4  H   UNL     1      33.863 -10.416 -22.763  0.00  0.00    +0.155 HD
ENDROOT
BRANCH   2  13
ATOM      5  N   UNL     1      31.777  -4.550 -24.039  0.00  0.00    -0.274 NA
ATOM      6  C   UNL     1      32.293  -6.717 -23.027  0.00  0.00    +0.010 C 
ATOM      7  C   UNL     1      32.411  -5.675 -24.078  0.00  0.00    +0.053 C 
ATOM      8  C   UNL     1      31.767  -6.312 -21.792  0.00  0.00    -0.019 C 
ATOM      9  C   UNL     1      31.379  -4.875 -21.611  0.00  0.00    +0.053 C 
ATOM     10  C   UNL     1      30.844  -4.328 -22.928  0.00  0.00    +0.130 C 
ATOM     11  C   UNL     1      32.691  -8.041 -23.227  0.00  0.00    +0.016 C 
ATOM     12  C   UNL     1      31.667  -7.237 -20.748  0.00  0.00    -0.003 C 
ATOM     13  C   UNL     1      32.572  -8.960 -22.184  0.00  0.00    +0.051 C 
ATOM     14  C   UNL     1      32.065  -8.559 -20.948  0.00  0.00    +0.014 C 
BRANCH   7  15
ATOM     15  C   UNL     1      33.323  -5.928 -25.254  0.00  0.00    +0.040 C 
ATOM     16  C   UNL     1      33.033  -4.892 -26.325  0.00  0.00    +0.006 C 
ATOM     17  C   UNL     1      34.766  -5.876 -24.787  0.00  0.00    +0.006 C 
ENDBRANCH   7  15
ENDBRANCH   2  13
BRANCH   3  18
ATOM     18  C   UNL     1      32.950 -12.725 -22.383  0.00  0.00    +0.054 C 
ATOM     19  C   UNL     1      33.837 -14.824 -21.614  0.00  0.00    +0.000 C 
ATOM     20  C   UNL     1      34.265 -15.107 -22.933  0.00  0.00    +0.000 C 
ATOM     21  C   UNL     1      33.171 -13.615 -21.353  0.00  0.00    +0.005 C 
ATOM     22  C   UNL     1      33.356 -12.975 -23.673  0.00  0.00    +0.005 C 
ATOM     23  C   UNL     1      34.018 -14.172 -23.952  0.00  0.00    +0.000 C 
ATOM     24  C   UNL     1      34.930 -16.316 -23.195  0.00  0.00    +0.003 C 
ATOM     25  C   UNL     1      34.085 -15.759 -20.597  0.00  0.00    +0.000 C 
ATOM     26  C   UNL     1      35.168 -17.234 -22.171  0.00  0.00    +0.031 C 
ATOM     27  C   UNL     1      34.746 -16.955 -20.874  0.00  0.00    +0.003 C 
BRANCH  26  30
ATOM     28  N   UNL     1      37.195 -18.666 -22.117  0.00  0.00    -0.343 N 
ATOM     29  N   UNL     1      35.212 -19.466 -23.059  0.00  0.00    -0.285 NA
ATOM     30  C   UNL     1      35.857 -18.481 -22.458  0.00  0.00    +0.117 C 
ATOM     31  H   UNL     1      37.642 -19.520 -22.321  0.00  0.00    +0.144 HD
ATOM     32  H   UNL     1      37.695 -17.943 -21.672  0.00  0.00    +0.144 HD
ATOM     33  H   UNL     1      35.677 -20.312 -23.255  0.00  0.00    +0.188 HD
ENDBRANCH  26  30
ENDBRANCH   3  18
TORSDOF 4
ENDMDL
MODEL 5
REMARK VINA RESULT:     -10.9      2.144     10.160
REMARK  Name = 447735
REMARK  4 active torsions:
REMARK  status: ('A' for Active; 'I' for Inactive)
REMARK    1  A    between atoms: N_2  and  C_13
REMARK    2  A    between atoms: C_3  and  C_18
REMARK    3  A    between atoms: C_7  and  C_15
REMARK    4  A    between atoms: C_26  and  C_30
REMARK                            x       y       z     vdW  Elec       q    Type
REMARK                         _______ _______ _______ _____ _____    ______ ____
ROOT
ATOM      1  O   UNL     1      33.778 -24.169 -17.726  0.00  0.00    -0.270 OA
ATOM      2  N   UNL     1      35.152 -22.730 -16.471  0.00  0.00    -0.280 N 
ATOM      3  C   UNL     1      34.373 -23.108 -17.574  0.00  0.00    +0.249 C 
ATOM      4  H   UNL     1      35.558 -21.835 -16.517  0.00  0.00    +0.155 HD
ENDROOT
BRANCH   2  13
ATOM      5  N   UNL     1      38.626 -25.810 -12.533  0.00  0.00    -0.274 NA
ATOM      6  C   UNL     1      36.944 -24.760 -13.968  0.00  0.00    +0.010 C 
ATOM      7  C   UNL     1      38.256 -25.404 -13.703  0.00  0.00    +0.053 C 
ATOM      8  C   UNL     1      35.948 -24.933 -12.997  0.00  0.00    -0.019 C 
ATOM      9  C   UNL     1      36.260 -25.755 -11.783  0.00  0.00    +0.053 C 
ATOM     10  C   UNL     1      37.723 -25.558 -11.404  0.00  0.00    +0.130 C 
ATOM     11  C   UNL     1      36.684 -24.023 -15.125  0.00  0.00    +0.016 C 
ATOM     12  C   UNL     1      34.679 -24.385 -13.206  0.00  0.00    -0.003 C 
ATOM     13  C   UNL     1      35.419 -23.467 -15.317  0.00  0.00    +0.051 C 
ATOM     14  C   UNL     1      34.418 -23.651 -14.363  0.00  0.00    +0.014 C 
BRANCH   7  15
ATOM     15  C   UNL     1      39.212 -25.606 -14.853  0.00  0.00    +0.040 C 
ATOM     16  C   UNL     1      39.627 -24.246 -15.384  0.00  0.00    +0.006 C 
ATOM     17  C   UNL     1      40.402 -26.419 -14.376  0.00  0.00    +0.006 C 
ENDBRANCH   7  15
ENDBRANCH   2  13
BRANCH   3  18
ATOM     18  C   UNL     1      34.297 -22.108 -18.672  0.00  0.00    +0.054 C 
ATOM     19  C   UNL     1      35.413 -20.625 -20.200  0.00  0.00    +0.000 C 
ATOM     20  C   UNL     1      34.155 -20.245 -20.724  0.00  0.00    +0.000 C 
ATOM     21  C   UNL     1      35.469 -21.570 -19.163  0.00  0.00    +0.005 C 
ATOM     22  C   UNL     1      33.061 -21.756 -19.163  0.00  0.00    +0.005 C 
ATOM     23  C   UNL     1      32.987 -20.819 -20.195  0.00  0.00    +0.000 C 
ATOM     24  C   UNL     1      34.100 -19.299 -21.762  0.00  0.00    +0.003 C 
ATOM     25  C   UNL     1      36.579 -20.049 -20.731  0.00  0.00    +0.000 C 
ATOM     26  C   UNL     1      35.270 -18.738 -22.276  0.00  0.00    +0.031 C 
ATOM     27  C   UNL     1      36.507 -19.112 -21.761  0.00  0.00    +0.003 C 
BRANCH  26  30
ATOM     28  N   UNL     1      34.525 -18.041 -24.540  0.00  0.00    -0.343 N 
ATOM     29  N   UNL     1      35.777 -16.583 -23.210  0.00  0.00    -0.285 NA
ATOM     30  C   UNL     1      35.196 -17.762 -23.351  0.00  0.00    +0.117 C 
ATOM     31  H   UNL     1      34.488 -17.364 -25.254  0.00  0.00    +0.144 HD
ATOM     32  H   UNL     1      34.088 -18.914 -24.665  0.00  0.00    +0.144 HD
ATOM     33  H   UNL     1      35.730 -15.920 -23.937  0.00  0.00    +0.188 HD
ENDBRANCH  26  30
ENDBRANCH   3  18
TORSDOF 4
ENDMDL
MODEL 6
REMARK VINA RESULT:     -10.8      7.304     11.990
REMARK  Name = 447735
REMARK  4 active torsions:
REMARK  status: ('A' for Active; 'I' for Inactive)
REMARK    1  A    between atoms: N_2  and  C_13
REMARK    2  A    between atoms: C_3  and  C_18
REMARK    3  A    between atoms: C_7  and  C_15
REMARK    4  A    between atoms: C_26  and  C_30
REMARK                            x       y       z     vdW  Elec       q    Type
REMARK                         _______ _______ _______ _____ _____    ______ ____
ROOT
ATOM      1  O   UNL     1      31.017 -10.158 -22.087  0.00  0.00    -0.270 OA
ATOM      2  N   UNL     1      32.961  -9.093 -22.872  0.00  0.00    -0.280 N 
ATOM      3  C   UNL     1      32.173 -10.189 -22.497  0.00  0.00    +0.249 C 
ATOM      4  H   UNL     1      33.872  -9.303 -23.180  0.00  0.00    +0.155 HD
ENDROOT
BRANCH   2  13
ATOM      5  N   UNL     1      32.050  -3.585 -25.301  0.00  0.00    -0.274 NA
ATOM      6  C   UNL     1      32.448  -5.619 -24.000  0.00  0.00    +0.010 C 
ATOM      7  C   UNL     1      32.641  -4.727 -25.172  0.00  0.00    +0.053 C 
ATOM      8  C   UNL     1      31.900  -5.040 -22.849  0.00  0.00    -0.019 C 
ATOM      9  C   UNL     1      31.563  -3.579 -22.867  0.00  0.00    +0.053 C 
ATOM     10  C   UNL     1      31.092  -3.189 -24.263  0.00  0.00    +0.130 C 
ATOM     11  C   UNL     1      32.800  -6.971 -24.014  0.00  0.00    +0.016 C 
ATOM     12  C   UNL     1      31.730  -5.817 -21.699  0.00  0.00    -0.003 C 
ATOM     13  C   UNL     1      32.612  -7.743 -22.866  0.00  0.00    +0.051 C 
ATOM     14  C   UNL     1      32.082  -7.167 -21.712  0.00  0.00    +0.014 C 
BRANCH   7  15
ATOM     15  C   UNL     1      33.579  -5.163 -26.271  0.00  0.00    +0.040 C 
ATOM     16  C   UNL     1      33.477  -4.172 -27.417  0.00  0.00    +0.006 C 
ATOM     17  C   UNL     1      34.990  -5.250 -25.718  0.00  0.00    +0.006 C 
ENDBRANCH   7  15
ENDBRANCH   2  13
BRANCH   3  18
ATOM     18  C   UNL     1      32.839 -11.515 -22.588  0.00  0.00    +0.054 C 
ATOM     19  C   UNL     1      33.334 -13.654 -21.608  0.00  0.00    +0.000 C 
ATOM     20  C   UNL     1      34.082 -13.990 -22.761  0.00  0.00    +0.000 C 
ATOM     21  C   UNL     1      32.710 -12.398 -21.537  0.00  0.00    +0.005 C 
ATOM     22  C   UNL     1      33.561 -11.816 -23.720  0.00  0.00    +0.005 C 
ATOM     23  C   UNL     1      34.187 -13.060 -23.809  0.00  0.00    +0.000 C 
ATOM     24  C   UNL     1      34.706 -15.247 -22.833  0.00  0.00    +0.003 C 
ATOM     25  C   UNL     1      33.230 -14.585 -20.562  0.00  0.00    +0.000 C 
ATOM     26  C   UNL     1      34.592 -16.159 -21.783  0.00  0.00    +0.031 C 
ATOM     27  C   UNL     1      33.856 -15.828 -20.649  0.00  0.00    +0.003 C 
BRANCH  26  30
ATOM     28  N   UNL     1      35.391 -18.272 -20.753  0.00  0.00    -0.343 N 
ATOM     29  N   UNL     1      35.712 -17.878 -23.034  0.00  0.00    -0.285 NA
ATOM     30  C   UNL     1      35.243 -17.456 -21.873  0.00  0.00    +0.117 C 
ATOM     31  H   UNL     1      35.835 -19.147 -20.837  0.00  0.00    +0.144 HD
ATOM     32  H   UNL     1      35.051 -17.975 -19.878  0.00  0.00    +0.144 HD
ATOM     33  H   UNL     1      36.154 -18.756 -23.097  0.00  0.00    +0.188 HD
ENDBRANCH  26  30
ENDBRANCH   3  18
TORSDOF 4
ENDMDL
MODEL 7
REMARK VINA RESULT:     -10.7      6.831     11.524
REMARK  Name = 447735
REMARK  4 active torsions:
REMARK  status: ('A' for Active; 'I' for Inactive)
REMARK    1  A    between atoms: N_2  and  C_13
REMARK    2  A    between atoms: C_3  and  C_18
REMARK    3  A    between atoms: C_7  and  C_15
REMARK    4  A    between atoms: C_26  and  C_30
REMARK                            x       y       z     vdW  Elec       q    Type
REMARK                         _______ _______ _______ _____ _____    ______ ____
ROOT
ATOM      1  O   UNL     1      30.385 -10.598 -21.846  0.00  0.00    -0.270 OA
ATOM      2  N   UNL     1      32.505  -9.581 -21.820  0.00  0.00    -0.280 N 
ATOM      3  C   UNL     1      31.608 -10.657 -21.780  0.00  0.00    +0.249 C 
ATOM      4  H   UNL     1      33.459  -9.813 -21.754  0.00  0.00    +0.155 HD
ENDROOT
BRANCH   2  13
ATOM      5  N   UNL     1      32.001  -4.255 -24.725  0.00  0.00    -0.274 NA
ATOM      6  C   UNL     1      32.218  -6.192 -23.246  0.00  0.00    +0.010 C 
ATOM      7  C   UNL     1      32.534  -5.403 -24.463  0.00  0.00    +0.053 C 
ATOM      8  C   UNL     1      31.609  -5.505 -22.188  0.00  0.00    -0.019 C 
ATOM      9  C   UNL     1      31.334  -4.039 -22.344  0.00  0.00    +0.053 C 
ATOM     10  C   UNL     1      30.985  -3.745 -23.797  0.00  0.00    +0.130 C 
ATOM     11  C   UNL     1      32.516  -7.552 -23.129  0.00  0.00    +0.016 C 
ATOM     12  C   UNL     1      31.323  -6.183 -20.999  0.00  0.00    -0.003 C 
ATOM     13  C   UNL     1      32.211  -8.223 -21.944  0.00  0.00    +0.051 C 
ATOM     14  C   UNL     1      31.620  -7.540 -20.881  0.00  0.00    +0.014 C 
BRANCH   7  15
ATOM     15  C   UNL     1      33.534  -5.956 -25.450  0.00  0.00    +0.040 C 
ATOM     16  C   UNL     1      33.457  -5.139 -26.727  0.00  0.00    +0.006 C 
ATOM     17  C   UNL     1      34.920  -5.917 -24.831  0.00  0.00    +0.006 C 
ENDBRANCH   7  15
ENDBRANCH   2  13
BRANCH   3  18
ATOM     18  C   UNL     1      32.228 -11.998 -21.613  0.00  0.00    +0.054 C 
ATOM     19  C   UNL     1      33.611 -13.762 -22.484  0.00  0.00    +0.000 C 
ATOM     20  C   UNL     1      33.386 -14.501 -21.299  0.00  0.00    +0.000 C 
ATOM     21  C   UNL     1      33.018 -12.496 -22.627  0.00  0.00    +0.005 C 
ATOM     22  C   UNL     1      31.993 -12.696 -20.451  0.00  0.00    +0.005 C 
ATOM     23  C   UNL     1      32.575 -13.954 -20.290  0.00  0.00    +0.000 C 
ATOM     24  C   UNL     1      33.979 -15.766 -21.156  0.00  0.00    +0.003 C 
ATOM     25  C   UNL     1      34.422 -14.309 -23.491  0.00  0.00    +0.000 C 
ATOM     26  C   UNL     1      34.782 -16.295 -22.167  0.00  0.00    +0.031 C 
ATOM     27  C   UNL     1      35.003 -15.567 -23.333  0.00  0.00    +0.003 C 
BRANCH  26  30
ATOM     28  N   UNL     1      35.565 -18.171 -20.742  0.00  0.00    -0.343 N 
ATOM     29  N   UNL     1      35.791 -18.282 -23.066  0.00  0.00    -0.285 NA
ATOM     30  C   UNL     1      35.390 -17.606 -22.003  0.00  0.00    +0.117 C 
ATOM     31  H   UNL     1      35.979 -19.061 -20.655  0.00  0.00    +0.144 HD
ATOM     32  H   UNL     1      35.276 -17.682 -19.938  0.00  0.00    +0.144 HD
ATOM     33  H   UNL     1      36.203 -19.170 -22.957  0.00  0.00    +0.188 HD
ENDBRANCH  26  30
ENDBRANCH   3  18
TORSDOF 4
ENDMDL
MODEL 8
REMARK VINA RESULT:     -10.7      7.707     15.449
REMARK  Name = 447735
REMARK  4 active torsions:
REMARK  status: ('A' for Active; 'I' for Inactive)
REMARK    1  A    between atoms: N_2  and  C_13
REMARK    2  A    between atoms: C_3  and  C_18
REMARK    3  A    between atoms: C_7  and  C_15
REMARK    4  A    between atoms: C_26  and  C_30
REMARK                            x       y       z     vdW  Elec       q    Type
REMARK                         _______ _______ _______ _____ _____    ______ ____
ROOT
ATOM      1  O   UNL     1      32.746  -8.513 -20.379  0.00  0.00    -0.270 OA
ATOM      2  N   UNL     1      32.327  -9.907 -22.226  0.00  0.00    -0.280 N 
ATOM      3  C   UNL     1      32.531  -8.683 -21.574  0.00  0.00    +0.249 C 
ATOM      4  H   UNL     1      32.168  -9.858 -23.195  0.00  0.00    +0.155 HD
ENDROOT
BRANCH   2  13
ATOM      5  N   UNL     1      34.025 -15.729 -21.686  0.00  0.00    -0.274 NA
ATOM      6  C   UNL     1      33.035 -13.491 -21.720  0.00  0.00    +0.010 C 
ATOM      7  C   UNL     1      33.751 -14.641 -22.328  0.00  0.00    +0.053 C 
ATOM      8  C   UNL     1      32.324 -13.743 -20.539  0.00  0.00    -0.019 C 
ATOM      9  C   UNL     1      32.320 -15.135 -19.983  0.00  0.00    +0.053 C 
ATOM     10  C   UNL     1      33.664 -15.794 -20.265  0.00  0.00    +0.130 C 
ATOM     11  C   UNL     1      33.042 -12.213 -22.283  0.00  0.00    +0.016 C 
ATOM     12  C   UNL     1      31.596 -12.710 -19.939  0.00  0.00    -0.003 C 
ATOM     13  C   UNL     1      32.325 -11.186 -21.668  0.00  0.00    +0.051 C 
ATOM     14  C   UNL     1      31.602 -11.435 -20.502  0.00  0.00    +0.014 C 
BRANCH   7  15
ATOM     15  C   UNL     1      34.179 -14.550 -23.772  0.00  0.00    +0.040 C 
ATOM     16  C   UNL     1      35.064 -15.741 -24.092  0.00  0.00    +0.006 C 
ATOM     17  C   UNL     1      32.945 -14.503 -24.656  0.00  0.00    +0.006 C 
ENDBRANCH   7  15
ENDBRANCH   2  13
BRANCH   3  18
ATOM     18  C   UNL     1      32.447  -7.478 -22.440  0.00  0.00    +0.054 C 
ATOM     19  C   UNL     1      33.355  -6.143 -24.223  0.00  0.00    +0.000 C 
ATOM     20  C   UNL     1      32.288  -5.229 -24.059  0.00  0.00    +0.000 C 
ATOM     21  C   UNL     1      33.421  -7.277 -23.397  0.00  0.00    +0.005 C 
ATOM     22  C   UNL     1      31.400  -6.605 -22.260  0.00  0.00    +0.005 C 
ATOM     23  C   UNL     1      31.317  -5.473 -23.072  0.00  0.00    +0.000 C 
ATOM     24  C   UNL     1      32.222  -4.095 -24.885  0.00  0.00    +0.003 C 
ATOM     25  C   UNL     1      34.324  -5.898 -25.209  0.00  0.00    +0.000 C 
ATOM     26  C   UNL     1      33.194  -3.867 -25.860  0.00  0.00    +0.031 C 
ATOM     27  C   UNL     1      34.243  -4.767 -26.021  0.00  0.00    +0.003 C 
BRANCH  26  30
ATOM     28  N   UNL     1      31.994  -2.445 -27.504  0.00  0.00    -0.343 N 
ATOM     29  N   UNL     1      34.113  -1.826 -26.736  0.00  0.00    -0.285 NA
ATOM     30  C   UNL     1      33.111  -2.689 -26.708  0.00  0.00    +0.117 C 
ATOM     31  H   UNL     1      31.959  -1.641 -28.071  0.00  0.00    +0.144 HD
ATOM     32  H   UNL     1      31.239  -3.077 -27.499  0.00  0.00    +0.144 HD
ATOM     33  H   UNL     1      34.059  -1.028 -27.311  0.00  0.00    +0.188 HD
ENDBRANCH  26  30
ENDBRANCH   3  18
TORSDOF 4
ENDMDL
MODEL 9
REMARK VINA RESULT:     -10.3      1.762      2.590
REMARK  Name = 447735
REMARK  4 active torsions:
REMARK  status: ('A' for Active; 'I' for Inactive)
REMARK    1  A    between atoms: N_2  and  C_13
REMARK    2  A    between atoms: C_3  and  C_18
REMARK    3  A    between atoms: C_7  and  C_15
REMARK    4  A    between atoms: C_26  and  C_30
REMARK                            x       y       z     vdW  Elec       q    Type
REMARK                         _______ _______ _______ _____ _____    ______ ____
ROOT
ATOM      1  O   UNL     1      34.936 -20.152 -22.398  0.00  0.00    -0.270 OA
ATOM      2  N   UNL     1      34.650 -18.332 -20.937  0.00  0.00    -0.280 N 
ATOM      3  C   UNL     1      34.827 -19.682 -21.271  0.00  0.00    +0.249 C 
ATOM      4  H   UNL     1      34.582 -18.132 -19.975  0.00  0.00    +0.155 HD
ENDROOT
BRANCH   2  13
ATOM      5  N   UNL     1      33.161 -12.660 -22.570  0.00  0.00    -0.274 NA
ATOM      6  C   UNL     1      33.763 -15.014 -22.279  0.00  0.00    +0.010 C 
ATOM      7  C   UNL     1      33.002 -13.782 -21.949  0.00  0.00    +0.053 C 
ATOM      8  C   UNL     1      34.397 -15.050 -23.528  0.00  0.00    -0.019 C 
ATOM      9  C   UNL     1      34.256 -13.869 -24.441  0.00  0.00    +0.053 C 
ATOM     10  C   UNL     1      34.194 -12.594 -23.610  0.00  0.00    +0.130 C 
ATOM     11  C   UNL     1      33.848 -16.104 -21.410  0.00  0.00    +0.016 C 
ATOM     12  C   UNL     1      35.095 -16.198 -23.914  0.00  0.00    -0.003 C 
ATOM     13  C   UNL     1      34.561 -17.239 -21.799  0.00  0.00    +0.051 C 
ATOM     14  C   UNL     1      35.180 -17.287 -23.048  0.00  0.00    +0.014 C 
BRANCH   7  15
ATOM     15  C   UNL     1      31.982 -13.833 -20.837  0.00  0.00    +0.040 C 
ATOM     16  C   UNL     1      32.562 -14.631 -19.684  0.00  0.00    +0.006 C 
ATOM     17  C   UNL     1      31.622 -12.417 -20.425  0.00  0.00    +0.006 C 
ENDBRANCH   7  15
ENDBRANCH   2  13
BRANCH   3  18
ATOM     18  C   UNL     1      34.856 -20.625 -20.122  0.00  0.00    +0.054 C 
ATOM     19  C   UNL     1      36.078 -21.670 -18.333  0.00  0.00    +0.000 C 
ATOM     20  C   UNL     1      34.910 -22.384 -17.976  0.00  0.00    +0.000 C 
ATOM     21  C   UNL     1      36.034 -20.783 -19.421  0.00  0.00    +0.005 C 
ATOM     22  C   UNL     1      33.707 -21.307 -19.796  0.00  0.00    +0.005 C 
ATOM     23  C   UNL     1      33.732 -22.192 -18.717  0.00  0.00    +0.000 C 
ATOM     24  C   UNL     1      34.953 -23.271 -16.888  0.00  0.00    +0.003 C 
ATOM     25  C   UNL     1      37.254 -21.863 -17.592  0.00  0.00    +0.000 C 
ATOM     26  C   UNL     1      36.132 -23.451 -16.162  0.00  0.00    +0.031 C 
ATOM     27  C   UNL     1      37.280 -22.748 -16.514  0.00  0.00    +0.003 C 
BRANCH  26  30
ATOM     28  N   UNL     1      37.026 -25.464 -15.017  0.00  0.00    -0.343 N 
ATOM     29  N   UNL     1      35.350 -24.182 -14.010  0.00  0.00    -0.285 NA
ATOM     30  C   UNL     1      36.160 -24.372 -15.038  0.00  0.00    +0.117 C 
ATOM     31  H   UNL     1      37.028 -26.075 -14.245  0.00  0.00    +0.144 HD
ATOM     32  H   UNL     1      37.634 -25.624 -15.773  0.00  0.00    +0.144 HD
ATOM     33  H   UNL     1      35.367 -24.806 -13.248  0.00  0.00    +0.188 HD
ENDBRANCH  26  30
ENDBRANCH   3  18
TORSDOF 4
ENDMDL
