MODEL 1
REMARK VINA RESULT:     -11.2      0.000      0.000
REMARK  Name = 66571548
REMARK  8 active torsions:
REMARK  status: ('A' for Active; 'I' for Inactive)
REMARK    1  A    between atoms: C_2  and  C_10
REMARK    2  A    between atoms: C_2  and  C_22
REMARK    3  A    between atoms: N_3  and  C_15
REMARK    4  A    between atoms: C_15  and  C_18
REMARK    5  A    between atoms: C_18  and  O_19
REMARK    6  A    between atoms: C_25  and  N_28
REMARK    7  A    between atoms: C_29  and  C_31
REMARK    8  A    between atoms: C_31  and  C_34
REMARK                            x       y       z     vdW  Elec       q    Type
REMARK                         _______ _______ _______ _____ _____    ______ ____
ROOT
ATOM      1  O   UNL     1      33.649 -24.221 -19.127  0.00  0.00    -0.286 OA
ATOM      2  C   UNL     1      34.043 -23.507 -18.179  0.00  0.00    +0.199 C 
ENDROOT
BRANCH   2  10
ATOM      3  N   UNL     1      32.169 -23.843 -15.113  0.00  0.00    -0.261 N 
ATOM      4  N   UNL     1      33.684 -24.554 -13.377  0.00  0.00    -0.322 NA
ATOM      5  N   UNL     1      35.970 -24.830 -14.166  0.00  0.00    -0.170 NA
ATOM      6  N   UNL     1      35.393 -25.235 -11.934  0.00  0.00    -0.293 N 
ATOM      7  C   UNL     1      33.405 -24.201 -14.644  0.00  0.00    +0.201 C 
ATOM      8  C   UNL     1      32.254 -23.550 -16.450  0.00  0.00    +0.071 C 
ATOM      9  C   UNL     1      34.301 -24.135 -15.704  0.00  0.00    +0.069 C 
ATOM     10  C   UNL     1      33.565 -23.722 -16.843  0.00  0.00    +0.059 C 
ATOM     11  C   UNL     1      35.626 -24.466 -15.423  0.00  0.00    +0.116 C 
ATOM     12  C   UNL     1      34.991 -24.851 -13.234  0.00  0.00    +0.143 C 
ATOM     13  H   UNL     1      34.732 -25.273 -11.206  0.00  0.00    +0.155 HD
ATOM     14  H   UNL     1      36.333 -25.466 -11.758  0.00  0.00    +0.155 HD
BRANCH   3  15
ATOM     15  C   UNL     1      30.875 -23.773 -14.279  0.00  0.00    +0.091 C 
ATOM     16  C   UNL     1      31.014 -22.931 -12.988  0.00  0.00    +0.023 C 
ATOM     17  C   UNL     1      29.763 -23.115 -15.128  0.00  0.00    +0.023 C 
BRANCH  15  18
ATOM     18  C   UNL     1      30.416 -25.199 -13.879  0.00  0.00    +0.155 C 
BRANCH  18  19
ATOM     19  O   UNL     1      30.810 -25.498 -12.543  0.00  0.00    -0.380 OA
ATOM     20  H   UNL     1      30.039 -25.805 -12.041  0.00  0.00    +0.211 HD
ENDBRANCH  18  19
ENDBRANCH  15  18
ENDBRANCH   3  15
ENDBRANCH   2  10
BRANCH   2  22
ATOM     21  N   UNL     1      37.113 -21.298 -18.052  0.00  0.00    -0.241 NA
ATOM     22  C   UNL     1      35.031 -22.429 -18.534  0.00  0.00    +0.059 C 
ATOM     23  C   UNL     1      34.814 -21.584 -19.617  0.00  0.00    +0.021 C 
ATOM     24  C   UNL     1      36.185 -22.246 -17.789  0.00  0.00    +0.102 C 
ATOM     25  C   UNL     1      35.746 -20.597 -19.919  0.00  0.00    +0.070 C 
ATOM     26  C   UNL     1      36.869 -20.496 -19.113  0.00  0.00    +0.113 C 
BRANCH  25  28
ATOM     27  O   UNL     1      37.719 -18.921 -21.441  0.00  0.00    -0.274 OA
ATOM     28  N   UNL     1      35.555 -19.735 -20.997  0.00  0.00    -0.282 N 
ATOM     29  C   UNL     1      36.515 -18.969 -21.680  0.00  0.00    +0.232 C 
ATOM     30  H   UNL     1      34.630 -19.653 -21.321  0.00  0.00    +0.155 HD
BRANCH  29  31
ATOM     31  C   UNL     1      35.878 -18.163 -22.802  0.00  0.00    +0.131 C 
BRANCH  31  34
ATOM     32 CL   UNL     1      32.806 -13.500 -20.753  0.00  0.00    -0.081 Cl
ATOM     33  N   UNL     1      34.823 -16.926 -20.992  0.00  0.00    -0.247 NA
ATOM     34  C   UNL     1      35.099 -16.970 -22.314  0.00  0.00    +0.068 C 
ATOM     35  C   UNL     1      34.710 -15.996 -23.220  0.00  0.00    +0.016 C 
ATOM     36  C   UNL     1      33.992 -14.908 -22.738  0.00  0.00    +0.014 C 
ATOM     37  C   UNL     1      34.124 -15.853 -20.559  0.00  0.00    +0.110 C 
ATOM     38  C   UNL     1      33.689 -14.827 -21.383  0.00  0.00    +0.077 C 
ENDBRANCH  31  34
ENDBRANCH  29  31
ENDBRANCH  25  28
ENDBRANCH   2  22
TORSDOF 8
ENDMDL
MODEL 2
REMARK VINA RESULT:     -11.2      1.292      2.795
REMARK  Name = 66571548
REMARK  8 active torsions:
REMARK  status: ('A' for Active; 'I' for Inactive)
REMARK    1  A    between atoms: C_2  and  C_10
REMARK    2  A    between atoms: C_2  and  C_22
REMARK    3  A    between atoms: N_3  and  C_15
REMARK    4  A    between atoms: C_15  and  C_18
REMARK    5  A    between atoms: C_18  and  O_19
REMARK    6  A    between atoms: C_25  and  N_28
REMARK    7  A    between atoms: C_29  and  C_31
REMARK    8  A    between atoms: C_31  and  C_34
REMARK                            x       y       z     vdW  Elec       q    Type
REMARK                         _______ _______ _______ _____ _____    ______ ____
ROOT
ATOM      1  O   UNL     1      32.455 -22.807 -18.487  0.00  0.00    -0.286 OA
ATOM      2  C   UNL     1      33.533 -22.773 -17.855  0.00  0.00    +0.199 C 
ENDROOT
BRANCH   2  10
ATOM      3  N   UNL     1      34.545 -24.077 -14.646  0.00  0.00    -0.261 N 
ATOM      4  N   UNL     1      32.571 -24.817 -13.475  0.00  0.00    -0.322 NA
ATOM      5  N   UNL     1      30.527 -24.484 -14.756  0.00  0.00    -0.170 NA
ATOM      6  N   UNL     1      30.485 -25.433 -12.616  0.00  0.00    -0.293 N 
ATOM      7  C   UNL     1      33.195 -24.278 -14.537  0.00  0.00    +0.201 C 
ATOM      8  C   UNL     1      34.827 -23.507 -15.860  0.00  0.00    +0.071 C 
ATOM      9  C   UNL     1      32.600 -23.827 -15.709  0.00  0.00    +0.069 C 
ATOM     10  C   UNL     1      33.639 -23.341 -16.542  0.00  0.00    +0.059 C 
ATOM     11  C   UNL     1      31.213 -23.949 -15.793  0.00  0.00    +0.116 C 
ATOM     12  C   UNL     1      31.240 -24.879 -13.676  0.00  0.00    +0.143 C 
ATOM     13  H   UNL     1      30.939 -25.741 -11.799  0.00  0.00    +0.155 HD
ATOM     14  H   UNL     1      29.507 -25.508 -12.695  0.00  0.00    +0.155 HD
BRANCH   3  15
ATOM     15  C   UNL     1      35.597 -24.434 -13.577  0.00  0.00    +0.091 C 
ATOM     16  C   UNL     1      36.111 -25.890 -13.675  0.00  0.00    +0.023 C 
ATOM     17  C   UNL     1      36.825 -23.510 -13.751  0.00  0.00    +0.023 C 
BRANCH  15  18
ATOM     18  C   UNL     1      35.013 -24.221 -12.157  0.00  0.00    +0.155 C 
BRANCH  18  19
ATOM     19  O   UNL     1      34.723 -25.471 -11.540  0.00  0.00    -0.380 OA
ATOM     20  H   UNL     1      33.764 -25.558 -11.423  0.00  0.00    +0.211 HD
ENDBRANCH  18  19
ENDBRANCH  15  18
ENDBRANCH   3  15
ENDBRANCH   2  10
BRANCH   2  22
ATOM     21  N   UNL     1      37.075 -21.799 -18.767  0.00  0.00    -0.241 NA
ATOM     22  C   UNL     1      34.686 -22.106 -18.556  0.00  0.00    +0.059 C 
ATOM     23  C   UNL     1      34.471 -21.210 -19.598  0.00  0.00    +0.021 C 
ATOM     24  C   UNL     1      35.995 -22.363 -18.181  0.00  0.00    +0.102 C 
ATOM     25  C   UNL     1      35.557 -20.609 -20.225  0.00  0.00    +0.070 C 
ATOM     26  C   UNL     1      36.827 -20.934 -19.777  0.00  0.00    +0.113 C 
BRANCH  25  28
ATOM     27  O   UNL     1      37.535 -18.862 -21.657  0.00  0.00    -0.274 OA
ATOM     28  N   UNL     1      35.373 -19.707 -21.271  0.00  0.00    -0.282 N 
ATOM     29  C   UNL     1      36.335 -18.908 -21.912  0.00  0.00    +0.232 C 
ATOM     30  H   UNL     1      34.451 -19.618 -21.603  0.00  0.00    +0.155 HD
BRANCH  29  31
ATOM     31  C   UNL     1      35.706 -18.063 -23.009  0.00  0.00    +0.131 C 
BRANCH  31  34
ATOM     32 CL   UNL     1      32.809 -13.347 -20.828  0.00  0.00    -0.081 Cl
ATOM     33  N   UNL     1      34.746 -16.812 -21.155  0.00  0.00    -0.247 NA
ATOM     34  C   UNL     1      34.970 -16.856 -22.488  0.00  0.00    +0.068 C 
ATOM     35  C   UNL     1      34.566 -15.872 -23.375  0.00  0.00    +0.016 C 
ATOM     36  C   UNL     1      33.889 -14.771 -22.862  0.00  0.00    +0.014 C 
ATOM     37  C   UNL     1      34.086 -15.727 -20.693  0.00  0.00    +0.110 C 
ATOM     38  C   UNL     1      33.640 -14.690 -21.496  0.00  0.00    +0.077 C 
ENDBRANCH  31  34
ENDBRANCH  29  31
ENDBRANCH  25  28
ENDBRANCH   2  22
TORSDOF 8
ENDMDL
MODEL 3
REMARK VINA RESULT:     -11.1      4.041     10.468
REMARK  Name = 66571548
REMARK  8 active torsions:
REMARK  status: ('A' for Active; 'I' for Inactive)
REMARK    1  A    between atoms: C_2  and  C_10
REMARK    2  A    between atoms: C_2  and  C_22
REMARK    3  A    between atoms: N_3  and  C_15
REMARK    4  A    between atoms: C_15  and  C_18
REMARK    5  A    between atoms: C_18  and  O_19
REMARK    6  A    between atoms: C_25  and  N_28
REMARK    7  A    between atoms: C_29  and  C_31
REMARK    8  A    between atoms: C_31  and  C_34
REMARK                            x       y       z     vdW  Elec       q    Type
REMARK                         _______ _______ _______ _____ _____    ______ ____
ROOT
ATOM      1  O   UNL     1      37.156 -19.093 -22.053  0.00  0.00    -0.286 OA
ATOM      2  C   UNL     1      36.005 -18.877 -21.615  0.00  0.00    +0.199 C 
ENDROOT
BRANCH   2  10
ATOM      3  N   UNL     1      34.260 -15.719 -21.693  0.00  0.00    -0.261 N 
ATOM      4  N   UNL     1      33.719 -15.212 -23.987  0.00  0.00    -0.322 NA
ATOM      5  N   UNL     1      34.478 -16.924 -25.543  0.00  0.00    -0.170 NA
ATOM      6  N   UNL     1      33.345 -15.016 -26.287  0.00  0.00    -0.293 N 
ATOM      7  C   UNL     1      34.257 -15.993 -23.035  0.00  0.00    +0.201 C 
ATOM      8  C   UNL     1      34.895 -16.731 -21.020  0.00  0.00    +0.071 C 
ATOM      9  C   UNL     1      34.902 -17.209 -23.224  0.00  0.00    +0.069 C 
ATOM     10  C   UNL     1      35.304 -17.669 -21.945  0.00  0.00    +0.059 C 
ATOM     11  C   UNL     1      35.000 -17.666 -24.538  0.00  0.00    +0.116 C 
ATOM     12  C   UNL     1      33.878 -15.759 -25.209  0.00  0.00    +0.143 C 
ATOM     13  H   UNL     1      32.895 -14.157 -26.117  0.00  0.00    +0.155 HD
ATOM     14  H   UNL     1      33.426 -15.356 -27.207  0.00  0.00    +0.155 HD
BRANCH   3  15
ATOM     15  C   UNL     1      33.648 -14.470 -21.028  0.00  0.00    +0.091 C 
ATOM     16  C   UNL     1      32.426 -14.782 -20.131  0.00  0.00    +0.023 C 
ATOM     17  C   UNL     1      34.714 -13.808 -20.124  0.00  0.00    +0.023 C 
BRANCH  15  18
ATOM     18  C   UNL     1      33.208 -13.448 -22.107  0.00  0.00    +0.155 C 
BRANCH  18  19
ATOM     19  O   UNL     1      31.793 -13.458 -22.262  0.00  0.00    -0.380 OA
ATOM     20  H   UNL     1      31.383 -13.818 -21.460  0.00  0.00    +0.211 HD
ENDBRANCH  18  19
ENDBRANCH  15  18
ENDBRANCH   3  15
ENDBRANCH   2  10
BRANCH   2  22
ATOM     21  N   UNL     1      33.484 -21.205 -20.020  0.00  0.00    -0.241 NA
ATOM     22  C   UNL     1      35.422 -19.950 -20.737  0.00  0.00    +0.059 C 
ATOM     23  C   UNL     1      36.222 -20.667 -19.852  0.00  0.00    +0.021 C 
ATOM     24  C   UNL     1      34.071 -20.254 -20.781  0.00  0.00    +0.102 C 
ATOM     25  C   UNL     1      35.654 -21.652 -19.052  0.00  0.00    +0.070 C 
ATOM     26  C   UNL     1      34.293 -21.881 -19.173  0.00  0.00    +0.113 C 
BRANCH  25  28
ATOM     27  O   UNL     1      37.212 -20.759 -16.646  0.00  0.00    -0.274 OA
ATOM     28  N   UNL     1      36.430 -22.385 -18.157  0.00  0.00    -0.282 N 
ATOM     29  C   UNL     1      37.143 -21.921 -17.038  0.00  0.00    +0.232 C 
ATOM     30  H   UNL     1      36.485 -23.352 -18.330  0.00  0.00    +0.155 HD
BRANCH  29  31
ATOM     31  C   UNL     1      37.860 -23.060 -16.331  0.00  0.00    +0.131 C 
BRANCH  31  34
ATOM     32 CL   UNL     1      35.204 -24.873 -11.326  0.00  0.00    -0.081 Cl
ATOM     33  N   UNL     1      37.877 -23.492 -13.937  0.00  0.00    -0.247 NA
ATOM     34  C   UNL     1      37.159 -23.525 -15.082  0.00  0.00    +0.068 C 
ATOM     35  C   UNL     1      35.844 -23.956 -15.160  0.00  0.00    +0.016 C 
ATOM     36  C   UNL     1      35.227 -24.379 -13.988  0.00  0.00    +0.014 C 
ATOM     37  C   UNL     1      37.244 -23.910 -12.818  0.00  0.00    +0.110 C 
ATOM     38  C   UNL     1      35.933 -24.359 -12.791  0.00  0.00    +0.077 C 
ENDBRANCH  31  34
ENDBRANCH  29  31
ENDBRANCH  25  28
ENDBRANCH   2  22
TORSDOF 8
ENDMDL
MODEL 4
REMARK VINA RESULT:     -10.9      1.961      2.334
REMARK  Name = 66571548
REMARK  8 active torsions:
REMARK  status: ('A' for Active; 'I' for Inactive)
REMARK    1  A    between atoms: C_2  and  C_10
REMARK    2  A    between atoms: C_2  and  C_22
REMARK    3  A    between atoms: N_3  and  C_15
REMARK    4  A    between atoms: C_15  and  C_18
REMARK    5  A    between atoms: C_18  and  O_19
REMARK    6  A    between atoms: C_25  and  N_28
REMARK    7  A    between atoms: C_29  and  C_31
REMARK    8  A    between atoms: C_31  and  C_34
REMARK                            x       y       z     vdW  Elec       q    Type
REMARK                         _______ _______ _______ _____ _____    ______ ____
ROOT
ATOM      1  O   UNL     1      36.862 -22.492 -17.784  0.00  0.00    -0.286 OA
ATOM      2  C   UNL     1      35.621 -22.509 -17.638  0.00  0.00    +0.199 C 
ENDROOT
BRANCH   2  10
ATOM      3  N   UNL     1      33.455 -23.854 -15.084  0.00  0.00    -0.261 N 
ATOM      4  N   UNL     1      34.829 -24.927 -13.418  0.00  0.00    -0.322 NA
ATOM      5  N   UNL     1      37.208 -24.797 -13.921  0.00  0.00    -0.170 NA
ATOM      6  N   UNL     1      36.425 -25.872 -11.994  0.00  0.00    -0.293 N 
ATOM      7  C   UNL     1      34.661 -24.244 -14.563  0.00  0.00    +0.201 C 
ATOM      8  C   UNL     1      33.661 -23.181 -16.260  0.00  0.00    +0.071 C 
ATOM      9  C   UNL     1      35.660 -23.808 -15.425  0.00  0.00    +0.069 C 
ATOM     10  C   UNL     1      35.019 -23.136 -16.496  0.00  0.00    +0.059 C 
ATOM     11  C   UNL     1      36.972 -24.110 -15.063  0.00  0.00    +0.116 C 
ATOM     12  C   UNL     1      36.136 -25.158 -13.180  0.00  0.00    +0.143 C 
ATOM     13  H   UNL     1      35.693 -26.167 -11.406  0.00  0.00    +0.155 HD
ATOM     14  H   UNL     1      37.359 -26.076 -11.758  0.00  0.00    +0.155 HD
BRANCH   3  15
ATOM     15  C   UNL     1      32.074 -24.123 -14.455  0.00  0.00    +0.091 C 
ATOM     16  C   UNL     1      31.772 -23.238 -13.222  0.00  0.00    +0.023 C 
ATOM     17  C   UNL     1      30.977 -23.825 -15.503  0.00  0.00    +0.023 C 
BRANCH  15  18
ATOM     18  C   UNL     1      31.960 -25.607 -14.024  0.00  0.00    +0.155 C 
BRANCH  18  19
ATOM     19  O   UNL     1      32.165 -25.742 -12.622  0.00  0.00    -0.380 OA
ATOM     20  H   UNL     1      31.321 -25.946 -12.190  0.00  0.00    +0.211 HD
ENDBRANCH  18  19
ENDBRANCH  15  18
ENDBRANCH   3  15
ENDBRANCH   2  10
BRANCH   2  22
ATOM     21  N   UNL     1      32.684 -21.499 -19.800  0.00  0.00    -0.241 NA
ATOM     22  C   UNL     1      34.822 -21.841 -18.723  0.00  0.00    +0.059 C 
ATOM     23  C   UNL     1      35.426 -20.979 -19.633  0.00  0.00    +0.021 C 
ATOM     24  C   UNL     1      33.460 -22.066 -18.849  0.00  0.00    +0.102 C 
ATOM     25  C   UNL     1      34.661 -20.377 -20.626  0.00  0.00    +0.070 C 
ATOM     26  C   UNL     1      33.306 -20.667 -20.666  0.00  0.00    +0.113 C 
BRANCH  25  28
ATOM     27  O   UNL     1      34.887 -17.384 -20.607  0.00  0.00    -0.274 OA
ATOM     28  N   UNL     1      35.238 -19.511 -21.551  0.00  0.00    -0.282 N 
ATOM     29  C   UNL     1      35.321 -18.109 -21.498  0.00  0.00    +0.232 C 
ATOM     30  H   UNL     1      35.639 -19.935 -22.343  0.00  0.00    +0.155 HD
BRANCH  29  31
ATOM     31  C   UNL     1      36.037 -17.554 -22.720  0.00  0.00    +0.131 C 
BRANCH  31  34
ATOM     32 CL   UNL     1      32.637 -13.926 -25.986  0.00  0.00    -0.081 Cl
ATOM     33  N   UNL     1      35.021 -15.385 -23.148  0.00  0.00    -0.247 NA
ATOM     34  C   UNL     1      35.170 -16.661 -23.569  0.00  0.00    +0.068 C 
ATOM     35  C   UNL     1      34.580 -17.174 -24.712  0.00  0.00    +0.016 C 
ATOM     36  C   UNL     1      33.786 -16.324 -25.473  0.00  0.00    +0.014 C 
ATOM     37  C   UNL     1      34.243 -14.587 -23.913  0.00  0.00    +0.110 C 
ATOM     38  C   UNL     1      33.608 -15.004 -25.073  0.00  0.00    +0.077 C 
ENDBRANCH  31  34
ENDBRANCH  29  31
ENDBRANCH  25  28
ENDBRANCH   2  22
TORSDOF 8
ENDMDL
MODEL 5
REMARK VINA RESULT:     -10.9      2.175      3.787
REMARK  Name = 66571548
REMARK  8 active torsions:
REMARK  status: ('A' for Active; 'I' for Inactive)
REMARK    1  A    between atoms: C_2  and  C_10
REMARK    2  A    between atoms: C_2  and  C_22
REMARK    3  A    between atoms: N_3  and  C_15
REMARK    4  A    between atoms: C_15  and  C_18
REMARK    5  A    between atoms: C_18  and  O_19
REMARK    6  A    between atoms: C_25  and  N_28
REMARK    7  A    between atoms: C_29  and  C_31
REMARK    8  A    between atoms: C_31  and  C_34
REMARK                            x       y       z     vdW  Elec       q    Type
REMARK                         _______ _______ _______ _____ _____    ______ ____
ROOT
ATOM      1  O   UNL     1      37.863 -21.469 -16.881  0.00  0.00    -0.286 OA
ATOM      2  C   UNL     1      36.865 -22.221 -16.834  0.00  0.00    +0.199 C 
ENDROOT
BRANCH   2  10
ATOM      3  N   UNL     1      37.198 -24.616 -14.155  0.00  0.00    -0.261 N 
ATOM      4  N   UNL     1      34.992 -25.159 -13.349  0.00  0.00    -0.322 NA
ATOM      5  N   UNL     1      33.228 -23.975 -14.539  0.00  0.00    -0.170 NA
ATOM      6  N   UNL     1      32.739 -25.469 -12.805  0.00  0.00    -0.293 N 
ATOM      7  C   UNL     1      35.833 -24.503 -14.165  0.00  0.00    +0.201 C 
ATOM      8  C   UNL     1      37.733 -23.802 -15.119  0.00  0.00    +0.071 C 
ATOM      9  C   UNL     1      35.488 -23.597 -15.161  0.00  0.00    +0.069 C 
ATOM     10  C   UNL     1      36.695 -23.158 -15.760  0.00  0.00    +0.059 C 
ATOM     11  C   UNL     1      34.127 -23.345 -15.330  0.00  0.00    +0.116 C 
ATOM     12  C   UNL     1      33.710 -24.831 -13.610  0.00  0.00    +0.143 C 
ATOM     13  H   UNL     1      33.019 -26.106 -12.108  0.00  0.00    +0.155 HD
ATOM     14  H   UNL     1      31.783 -25.277 -12.940  0.00  0.00    +0.155 HD
BRANCH   3  15
ATOM     15  C   UNL     1      38.019 -25.517 -13.211  0.00  0.00    +0.091 C 
ATOM     16  C   UNL     1      39.447 -25.818 -13.727  0.00  0.00    +0.023 C 
ATOM     17  C   UNL     1      38.174 -24.806 -11.846  0.00  0.00    +0.023 C 
BRANCH  15  18
ATOM     18  C   UNL     1      37.291 -26.866 -12.987  0.00  0.00    +0.155 C 
BRANCH  18  19
ATOM     19  O   UNL     1      36.815 -26.966 -11.649  0.00  0.00    -0.380 OA
ATOM     20  H   UNL     1      37.279 -27.686 -11.194  0.00  0.00    +0.211 HD
ENDBRANCH  18  19
ENDBRANCH  15  18
ENDBRANCH   3  15
ENDBRANCH   2  10
BRANCH   2  22
ATOM     21  N   UNL     1      33.816 -22.789 -19.003  0.00  0.00    -0.241 NA
ATOM     22  C   UNL     1      35.878 -22.076 -17.960  0.00  0.00    +0.059 C 
ATOM     23  C   UNL     1      36.080 -21.147 -18.976  0.00  0.00    +0.021 C 
ATOM     24  C   UNL     1      34.742 -22.867 -18.020  0.00  0.00    +0.102 C 
ATOM     25  C   UNL     1      35.150 -21.038 -20.004  0.00  0.00    +0.070 C 
ATOM     26  C   UNL     1      34.045 -21.874 -19.972  0.00  0.00    +0.113 C 
BRANCH  25  28
ATOM     27  O   UNL     1      37.328 -19.023 -20.461  0.00  0.00    -0.274 OA
ATOM     28  N   UNL     1      35.325 -20.118 -21.035  0.00  0.00    -0.282 N 
ATOM     29  C   UNL     1      36.367 -19.190 -21.207  0.00  0.00    +0.232 C 
ATOM     30  H   UNL     1      34.630 -20.117 -21.731  0.00  0.00    +0.155 HD
BRANCH  29  31
ATOM     31  C   UNL     1      36.171 -18.373 -22.475  0.00  0.00    +0.131 C 
BRANCH  31  34
ATOM     32 CL   UNL     1      32.694 -13.631 -21.572  0.00  0.00    -0.081 Cl
ATOM     33  N   UNL     1      34.883 -16.913 -21.016  0.00  0.00    -0.247 NA
ATOM     34  C   UNL     1      35.292 -17.165 -22.279  0.00  0.00    +0.068 C 
ATOM     35  C   UNL     1      34.952 -16.388 -23.375  0.00  0.00    +0.016 C 
ATOM     36  C   UNL     1      34.139 -15.281 -23.160  0.00  0.00    +0.014 C 
ATOM     37  C   UNL     1      34.094 -15.828 -20.846  0.00  0.00    +0.110 C 
ATOM     38  C   UNL     1      33.697 -14.988 -21.875  0.00  0.00    +0.077 C 
ENDBRANCH  31  34
ENDBRANCH  29  31
ENDBRANCH  25  28
ENDBRANCH   2  22
TORSDOF 8
ENDMDL
MODEL 6
REMARK VINA RESULT:     -10.8      2.851      4.250
REMARK  Name = 66571548
REMARK  8 active torsions:
REMARK  status: ('A' for Active; 'I' for Inactive)
REMARK    1  A    between atoms: C_2  and  C_10
REMARK    2  A    between atoms: C_2  and  C_22
REMARK    3  A    between atoms: N_3  and  C_15
REMARK    4  A    between atoms: C_15  and  C_18
REMARK    5  A    between atoms: C_18  and  O_19
REMARK    6  A    between atoms: C_25  and  N_28
REMARK    7  A    between atoms: C_29  and  C_31
REMARK    8  A    between atoms: C_31  and  C_34
REMARK                            x       y       z     vdW  Elec       q    Type
REMARK                         _______ _______ _______ _____ _____    ______ ____
ROOT
ATOM      1  O   UNL     1      38.149 -21.510 -16.476  0.00  0.00    -0.286 OA
ATOM      2  C   UNL     1      37.303 -22.396 -16.228  0.00  0.00    +0.199 C 
ENDROOT
BRANCH   2  10
ATOM      3  N   UNL     1      37.128 -24.423 -13.247  0.00  0.00    -0.261 N 
ATOM      4  N   UNL     1      39.055 -25.871 -13.204  0.00  0.00    -0.322 NA
ATOM      5  N   UNL     1      40.521 -25.558 -15.123  0.00  0.00    -0.170 NA
ATOM      6  N   UNL     1      41.012 -27.126 -13.456  0.00  0.00    -0.293 N 
ATOM      7  C   UNL     1      38.299 -24.910 -13.763  0.00  0.00    +0.201 C 
ATOM      8  C   UNL     1      36.628 -23.455 -14.080  0.00  0.00    +0.071 C 
ATOM      9  C   UNL     1      38.555 -24.238 -14.952  0.00  0.00    +0.069 C 
ATOM     10  C   UNL     1      37.493 -23.319 -15.146  0.00  0.00    +0.059 C 
ATOM     11  C   UNL     1      39.717 -24.596 -15.634  0.00  0.00    +0.116 C 
ATOM     12  C   UNL     1      40.144 -26.127 -13.956  0.00  0.00    +0.143 C 
ATOM     13  H   UNL     1      40.800 -27.583 -12.610  0.00  0.00    +0.155 HD
ATOM     14  H   UNL     1      41.827 -27.364 -13.953  0.00  0.00    +0.155 HD
BRANCH   3  15
ATOM     15  C   UNL     1      36.463 -24.881 -11.934  0.00  0.00    +0.091 C 
ATOM     16  C   UNL     1      34.916 -24.842 -11.976  0.00  0.00    +0.023 C 
ATOM     17  C   UNL     1      36.869 -26.346 -11.649  0.00  0.00    +0.023 C 
BRANCH  15  18
ATOM     18  C   UNL     1      36.938 -23.996 -10.754  0.00  0.00    +0.155 C 
BRANCH  18  19
ATOM     19  O   UNL     1      36.285 -24.374  -9.547  0.00  0.00    -0.380 OA
ATOM     20  H   UNL     1      36.622 -23.835  -8.814  0.00  0.00    +0.211 HD
ENDBRANCH  18  19
ENDBRANCH  15  18
ENDBRANCH   3  15
ENDBRANCH   2  10
BRANCH   2  22
ATOM     21  N   UNL     1      33.851 -23.214 -17.545  0.00  0.00    -0.241 NA
ATOM     22  C   UNL     1      36.098 -22.425 -17.129  0.00  0.00    +0.059 C 
ATOM     23  C   UNL     1      36.086 -21.731 -18.334  0.00  0.00    +0.021 C 
ATOM     24  C   UNL     1      34.966 -23.146 -16.784  0.00  0.00    +0.102 C 
ATOM     25  C   UNL     1      34.957 -21.778 -19.145  0.00  0.00    +0.070 C 
ATOM     26  C   UNL     1      33.875 -22.526 -18.709  0.00  0.00    +0.113 C 
BRANCH  25  28
ATOM     27  O   UNL     1      36.793 -19.677 -20.255  0.00  0.00    -0.274 OA
ATOM     28  N   UNL     1      34.916 -21.093 -20.358  0.00  0.00    -0.282 N 
ATOM     29  C   UNL     1      35.803 -20.114 -20.836  0.00  0.00    +0.232 C 
ATOM     30  H   UNL     1      34.170 -21.325 -20.956  0.00  0.00    +0.155 HD
BRANCH  29  31
ATOM     31  C   UNL     1      35.390 -19.624 -22.215  0.00  0.00    +0.131 C 
BRANCH  31  34
ATOM     32 CL   UNL     1      34.358 -13.776 -22.567  0.00  0.00    -0.081 Cl
ATOM     33  N   UNL     1      35.155 -17.567 -23.494  0.00  0.00    -0.247 NA
ATOM     34  C   UNL     1      35.125 -18.142 -22.271  0.00  0.00    +0.068 C 
ATOM     35  C   UNL     1      34.869 -17.453 -21.096  0.00  0.00    +0.016 C 
ATOM     36  C   UNL     1      34.628 -16.087 -21.182  0.00  0.00    +0.014 C 
ATOM     37  C   UNL     1      34.916 -16.237 -23.538  0.00  0.00    +0.110 C 
ATOM     38  C   UNL     1      34.651 -15.459 -22.422  0.00  0.00    +0.077 C 
ENDBRANCH  31  34
ENDBRANCH  29  31
ENDBRANCH  25  28
ENDBRANCH   2  22
TORSDOF 8
ENDMDL
MODEL 7
REMARK VINA RESULT:     -10.6      5.541     12.471
REMARK  Name = 66571548
REMARK  8 active torsions:
REMARK  status: ('A' for Active; 'I' for Inactive)
REMARK    1  A    between atoms: C_2  and  C_10
REMARK    2  A    between atoms: C_2  and  C_22
REMARK    3  A    between atoms: N_3  and  C_15
REMARK    4  A    between atoms: C_15  and  C_18
REMARK    5  A    between atoms: C_18  and  O_19
REMARK    6  A    between atoms: C_25  and  N_28
REMARK    7  A    between atoms: C_29  and  C_31
REMARK    8  A    between atoms: C_31  and  C_34
REMARK                            x       y       z     vdW  Elec       q    Type
REMARK                         _______ _______ _______ _____ _____    ______ ____
ROOT
ATOM      1  O   UNL     1      34.924 -11.289 -25.181  0.00  0.00    -0.286 OA
ATOM      2  C   UNL     1      34.132 -11.794 -24.356  0.00  0.00    +0.199 C 
ENDROOT
BRANCH   2  10
ATOM      3  N   UNL     1      32.631  -9.157 -22.402  0.00  0.00    -0.261 N 
ATOM      4  N   UNL     1      31.382 -10.168 -20.603  0.00  0.00    -0.322 NA
ATOM      5  N   UNL     1      31.493 -12.600 -20.621  0.00  0.00    -0.170 NA
ATOM      6  N   UNL     1      30.277 -11.446 -18.987  0.00  0.00    -0.293 N 
ATOM      7  C   UNL     1      32.166 -10.234 -21.694  0.00  0.00    +0.201 C 
ATOM      8  C   UNL     1      33.396  -9.596 -23.451  0.00  0.00    +0.071 C 
ATOM      9  C   UNL     1      32.647 -11.386 -22.302  0.00  0.00    +0.069 C 
ATOM     10  C   UNL     1      33.425 -10.974 -23.414  0.00  0.00    +0.059 C 
ATOM     11  C   UNL     1      32.281 -12.599 -21.721  0.00  0.00    +0.116 C 
ATOM     12  C   UNL     1      31.098 -11.400 -20.138  0.00  0.00    +0.143 C 
ATOM     13  H   UNL     1      29.952 -10.610 -18.582  0.00  0.00    +0.155 HD
ATOM     14  H   UNL     1      30.029 -12.313 -18.593  0.00  0.00    +0.155 HD
BRANCH   3  15
ATOM     15  C   UNL     1      32.345  -7.677 -22.080  0.00  0.00    +0.091 C 
ATOM     16  C   UNL     1      33.452  -6.712 -22.569  0.00  0.00    +0.023 C 
ATOM     17  C   UNL     1      31.035  -7.253 -22.784  0.00  0.00    +0.023 C 
BRANCH  15  18
ATOM     18  C   UNL     1      32.173  -7.483 -20.553  0.00  0.00    +0.155 C 
BRANCH  18  19
ATOM     19  O   UNL     1      33.395  -7.744 -19.871  0.00  0.00    -0.380 OA
ATOM     20  H   UNL     1      33.401  -7.269 -19.025  0.00  0.00    +0.211 HD
ENDBRANCH  18  19
ENDBRANCH  15  18
ENDBRANCH   3  15
ENDBRANCH   2  10
BRANCH   2  22
ATOM     21  N   UNL     1      32.971 -15.215 -25.482  0.00  0.00    -0.241 NA
ATOM     22  C   UNL     1      33.977 -13.289 -24.422  0.00  0.00    +0.059 C 
ATOM     23  C   UNL     1      34.651 -14.120 -23.533  0.00  0.00    +0.021 C 
ATOM     24  C   UNL     1      33.156 -13.880 -25.368  0.00  0.00    +0.102 C 
ATOM     25  C   UNL     1      34.486 -15.498 -23.618  0.00  0.00    +0.070 C 
ATOM     26  C   UNL     1      33.643 -15.991 -24.601  0.00  0.00    +0.113 C 
BRANCH  25  28
ATOM     27  O   UNL     1      34.786 -18.485 -23.677  0.00  0.00    -0.274 OA
ATOM     28  N   UNL     1      35.147 -16.355 -22.742  0.00  0.00    -0.282 N 
ATOM     29  C   UNL     1      35.261 -17.755 -22.812  0.00  0.00    +0.232 C 
ATOM     30  H   UNL     1      35.590 -15.926 -21.975  0.00  0.00    +0.155 HD
BRANCH  29  31
ATOM     31  C   UNL     1      36.073 -18.299 -21.646  0.00  0.00    +0.131 C 
BRANCH  31  34
ATOM     32 CL   UNL     1      33.513 -22.811 -18.735  0.00  0.00    -0.081 Cl
ATOM     33  N   UNL     1      36.197 -20.288 -20.251  0.00  0.00    -0.247 NA
ATOM     34  C   UNL     1      35.394 -19.431 -20.920  0.00  0.00    +0.068 C 
ATOM     35  C   UNL     1      34.014 -19.539 -20.969  0.00  0.00    +0.016 C 
ATOM     36  C   UNL     1      33.419 -20.594 -20.287  0.00  0.00    +0.014 C 
ATOM     37  C   UNL     1      35.583 -21.302 -19.600  0.00  0.00    +0.110 C 
ATOM     38  C   UNL     1      34.211 -21.498 -19.588  0.00  0.00    +0.077 C 
ENDBRANCH  31  34
ENDBRANCH  29  31
ENDBRANCH  25  28
ENDBRANCH   2  22
TORSDOF 8
ENDMDL
MODEL 8
REMARK VINA RESULT:     -10.5      3.568     10.518
REMARK  Name = 66571548
REMARK  8 active torsions:
REMARK  status: ('A' for Active; 'I' for Inactive)
REMARK    1  A    between atoms: C_2  and  C_10
REMARK    2  A    between atoms: C_2  and  C_22
REMARK    3  A    between atoms: N_3  and  C_15
REMARK    4  A    between atoms: C_15  and  C_18
REMARK    5  A    between atoms: C_18  and  O_19
REMARK    6  A    between atoms: C_25  and  N_28
REMARK    7  A    between atoms: C_29  and  C_31
REMARK    8  A    between atoms: C_31  and  C_34
REMARK                            x       y       z     vdW  Elec       q    Type
REMARK                         _______ _______ _______ _____ _____    ______ ____
ROOT
ATOM      1  O   UNL     1      34.952 -19.417 -23.990  0.00  0.00    -0.286 OA
ATOM      2  C   UNL     1      35.056 -18.701 -22.971  0.00  0.00    +0.199 C 
ENDROOT
BRANCH   2  10
ATOM      3  N   UNL     1      33.926 -15.358 -22.215  0.00  0.00    -0.261 N 
ATOM      4  N   UNL     1      33.486 -14.220 -24.295  0.00  0.00    -0.322 NA
ATOM      5  N   UNL     1      33.914 -15.612 -26.247  0.00  0.00    -0.170 NA
ATOM      6  N   UNL     1      33.153 -13.409 -26.462  0.00  0.00    -0.293 N 
ATOM      7  C   UNL     1      33.871 -15.293 -23.582  0.00  0.00    +0.201 C 
ATOM      8  C   UNL     1      34.363 -16.599 -21.832  0.00  0.00    +0.071 C 
ATOM      9  C   UNL     1      34.280 -16.522 -24.085  0.00  0.00    +0.069 C 
ATOM     10  C   UNL     1      34.590 -17.343 -22.972  0.00  0.00    +0.059 C 
ATOM     11  C   UNL     1      34.290 -16.656 -25.473  0.00  0.00    +0.116 C 
ATOM     12  C   UNL     1      33.540 -14.474 -25.618  0.00  0.00    +0.143 C 
ATOM     13  H   UNL     1      32.870 -12.550 -26.072  0.00  0.00    +0.155 HD
ATOM     14  H   UNL     1      33.169 -13.524 -27.439  0.00  0.00    +0.155 HD
BRANCH   3  15
ATOM     15  C   UNL     1      33.557 -14.219 -21.244  0.00  0.00    +0.091 C 
ATOM     16  C   UNL     1      32.495 -14.621 -20.193  0.00  0.00    +0.023 C 
ATOM     17  C   UNL     1      34.822 -13.791 -20.465  0.00  0.00    +0.023 C 
BRANCH  15  18
ATOM     18  C   UNL     1      33.021 -12.995 -22.030  0.00  0.00    +0.155 C 
BRANCH  18  19
ATOM     19  O   UNL     1      31.598 -13.017 -22.086  0.00  0.00    -0.380 OA
ATOM     20  H   UNL     1      31.290 -13.936 -22.113  0.00  0.00    +0.211 HD
ENDBRANCH  18  19
ENDBRANCH  15  18
ENDBRANCH   3  15
ENDBRANCH   2  10
BRANCH   2  22
ATOM     21  N   UNL     1      37.564 -19.490 -20.250  0.00  0.00    -0.241 NA
ATOM     22  C   UNL     1      35.690 -19.350 -21.772  0.00  0.00    +0.059 C 
ATOM     23  C   UNL     1      35.046 -20.374 -21.085  0.00  0.00    +0.021 C 
ATOM     24  C   UNL     1      36.937 -18.949 -21.319  0.00  0.00    +0.102 C 
ATOM     25  C   UNL     1      35.660 -20.955 -19.981  0.00  0.00    +0.070 C 
ATOM     26  C   UNL     1      36.907 -20.481 -19.607  0.00  0.00    +0.113 C 
BRANCH  25  28
ATOM     27  O   UNL     1      32.826 -21.221 -19.023  0.00  0.00    -0.274 OA
ATOM     28  N   UNL     1      35.039 -21.983 -19.273  0.00  0.00    -0.282 N 
ATOM     29  C   UNL     1      33.702 -22.062 -18.845  0.00  0.00    +0.232 C 
ATOM     30  H   UNL     1      35.610 -22.750 -19.043  0.00  0.00    +0.155 HD
BRANCH  29  31
ATOM     31  C   UNL     1      33.440 -23.363 -18.102  0.00  0.00    +0.131 C 
BRANCH  31  34
ATOM     32 CL   UNL     1      36.165 -23.563 -12.818  0.00  0.00    -0.081 Cl
ATOM     33  N   UNL     1      35.405 -23.072 -16.697  0.00  0.00    -0.247 NA
ATOM     34  C   UNL     1      34.101 -23.424 -16.749  0.00  0.00    +0.068 C 
ATOM     35  C   UNL     1      33.362 -23.828 -15.650  0.00  0.00    +0.016 C 
ATOM     36  C   UNL     1      34.002 -23.873 -14.416  0.00  0.00    +0.014 C 
ATOM     37  C   UNL     1      35.994 -23.128 -15.481  0.00  0.00    +0.110 C 
ATOM     38  C   UNL     1      35.343 -23.519 -14.322  0.00  0.00    +0.077 C 
ENDBRANCH  31  34
ENDBRANCH  29  31
ENDBRANCH  25  28
ENDBRANCH   2  22
TORSDOF 8
ENDMDL
MODEL 9
REMARK VINA RESULT:     -10.2      5.489     12.110
REMARK  Name = 66571548
REMARK  8 active torsions:
REMARK  status: ('A' for Active; 'I' for Inactive)
REMARK    1  A    between atoms: C_2  and  C_10
REMARK    2  A    between atoms: C_2  and  C_22
REMARK    3  A    between atoms: N_3  and  C_15
REMARK    4  A    between atoms: C_15  and  C_18
REMARK    5  A    between atoms: C_18  and  O_19
REMARK    6  A    between atoms: C_25  and  N_28
REMARK    7  A    between atoms: C_29  and  C_31
REMARK    8  A    between atoms: C_31  and  C_34
REMARK                            x       y       z     vdW  Elec       q    Type
REMARK                         _______ _______ _______ _____ _____    ______ ____
ROOT
ATOM      1  O   UNL     1      34.683 -11.743 -25.324  0.00  0.00    -0.286 OA
ATOM      2  C   UNL     1      34.036 -12.399 -24.479  0.00  0.00    +0.199 C 
ENDROOT
BRANCH   2  10
ATOM      3  N   UNL     1      32.316 -11.485 -21.441  0.00  0.00    -0.261 N 
ATOM      4  N   UNL     1      32.334  -9.081 -21.257  0.00  0.00    -0.322 NA
ATOM      5  N   UNL     1      33.470  -7.995 -23.117  0.00  0.00    -0.170 NA
ATOM      6  N   UNL     1      32.522  -6.753 -21.374  0.00  0.00    -0.293 N 
ATOM      7  C   UNL     1      32.639 -10.230 -21.885  0.00  0.00    +0.201 C 
ATOM      8  C   UNL     1      32.785 -12.419 -22.328  0.00  0.00    +0.071 C 
ATOM      9  C   UNL     1      33.328 -10.364 -23.083  0.00  0.00    +0.069 C 
ATOM     10  C   UNL     1      33.417 -11.753 -23.357  0.00  0.00    +0.059 C 
ATOM     11  C   UNL     1      33.746  -9.185 -23.699  0.00  0.00    +0.116 C 
ATOM     12  C   UNL     1      32.791  -8.017 -21.948  0.00  0.00    +0.143 C 
ATOM     13  H   UNL     1      32.032  -6.694 -20.523  0.00  0.00    +0.155 HD
ATOM     14  H   UNL     1      32.827  -5.933 -21.825  0.00  0.00    +0.155 HD
BRANCH   3  15
ATOM     15  C   UNL     1      31.544 -11.811 -20.148  0.00  0.00    +0.091 C 
ATOM     16  C   UNL     1      30.015 -11.608 -20.271  0.00  0.00    +0.023 C 
ATOM     17  C   UNL     1      31.774 -13.297 -19.785  0.00  0.00    +0.023 C 
BRANCH  15  18
ATOM     18  C   UNL     1      32.056 -10.930 -18.979  0.00  0.00    +0.155 C 
BRANCH  18  19
ATOM     19  O   UNL     1      31.185  -9.825 -18.763  0.00  0.00    -0.380 OA
ATOM     20  H   UNL     1      31.167  -9.268 -19.557  0.00  0.00    +0.211 HD
ENDBRANCH  18  19
ENDBRANCH  15  18
ENDBRANCH   3  15
ENDBRANCH   2  10
BRANCH   2  22
ATOM     21  N   UNL     1      33.023 -15.722 -25.981  0.00  0.00    -0.241 NA
ATOM     22  C   UNL     1      33.955 -13.882 -24.718  0.00  0.00    +0.059 C 
ATOM     23  C   UNL     1      34.691 -14.775 -23.947  0.00  0.00    +0.021 C 
ATOM     24  C   UNL     1      33.142 -14.402 -25.713  0.00  0.00    +0.102 C 
ATOM     25  C   UNL     1      34.594 -16.141 -24.191  0.00  0.00    +0.070 C 
ATOM     26  C   UNL     1      33.754 -16.559 -25.211  0.00  0.00    +0.113 C 
BRANCH  25  28
ATOM     27  O   UNL     1      34.551 -16.691 -21.240  0.00  0.00    -0.274 OA
ATOM     28  N   UNL     1      35.319 -17.059 -23.434  0.00  0.00    -0.282 N 
ATOM     29  C   UNL     1      35.263 -17.281 -22.047  0.00  0.00    +0.232 C 
ATOM     30  H   UNL     1      35.950 -17.623 -23.935  0.00  0.00    +0.155 HD
BRANCH  29  31
ATOM     31  C   UNL     1      36.226 -18.382 -21.629  0.00  0.00    +0.131 C 
BRANCH  31  34
ATOM     32 CL   UNL     1      33.718 -22.868 -18.633  0.00  0.00    -0.081 Cl
ATOM     33  N   UNL     1      36.368 -20.313 -20.156  0.00  0.00    -0.247 NA
ATOM     34  C   UNL     1      35.560 -19.508 -20.882  0.00  0.00    +0.068 C 
ATOM     35  C   UNL     1      34.187 -19.664 -20.971  0.00  0.00    +0.016 C 
ATOM     36  C   UNL     1      33.604 -20.714 -20.269  0.00  0.00    +0.014 C 
ATOM     37  C   UNL     1      35.767 -21.322 -19.487  0.00  0.00    +0.110 C 
ATOM     38  C   UNL     1      34.402 -21.564 -19.511  0.00  0.00    +0.077 C 
ENDBRANCH  31  34
ENDBRANCH  29  31
ENDBRANCH  25  28
ENDBRANCH   2  22
TORSDOF 8
ENDMDL
