MODEL 1
REMARK VINA RESULT:     -11.8      0.000      0.000
REMARK  Name = 11234049
REMARK  5 active torsions:
REMARK  status: ('A' for Active; 'I' for Inactive)
REMARK    1  A    between atoms: C_2  and  N_10
REMARK    2  A    between atoms: C_5  and  C_18
REMARK    3  A    between atoms: C_11  and  C_14
REMARK    4  A    between atoms: C_14  and  O_15
REMARK    5  A    between atoms: C_22  and  C_27
REMARK                            x       y       z     vdW  Elec       q    Type
REMARK                         _______ _______ _______ _____ _____    ______ ____
ROOT
ATOM      1  F   UNL     1      33.943 -24.122 -16.764  0.00  0.00    -0.204 F 
ATOM      2  C   UNL     1      35.841 -24.993 -13.783  0.00  0.00    +0.059 C 
ATOM      3  C   UNL     1      35.526 -24.725 -15.119  0.00  0.00    +0.045 C 
ATOM      4  C   UNL     1      34.842 -24.907 -12.809  0.00  0.00    +0.015 C 
ATOM      5  C   UNL     1      33.232 -24.291 -14.501  0.00  0.00    +0.029 C 
ATOM      6  C   UNL     1      34.225 -24.375 -15.478  0.00  0.00    +0.141 C 
ATOM      7  C   UNL     1      33.541 -24.556 -13.167  0.00  0.00    +0.004 C 
ENDROOT
BRANCH   2  10
ATOM      8  O   UNL     1      38.940 -26.280 -12.369  0.00  0.00    -0.434 OA
ATOM      9  O   UNL     1      36.882 -26.811 -11.578  0.00  0.00    -0.226 OA
ATOM     10  N   UNL     1      37.170 -25.351 -13.418  0.00  0.00    -0.221 N 
ATOM     11  C   UNL     1      39.461 -25.646 -13.544  0.00  0.00    +0.220 C 
ATOM     12  C   UNL     1      38.332 -24.762 -14.027  0.00  0.00    +0.148 C 
ATOM     13  C   UNL     1      37.565 -26.206 -12.391  0.00  0.00    +0.409 C 
BRANCH  11  14
ATOM     14  C   UNL     1      39.855 -26.720 -14.550  0.00  0.00    +0.183 C 
BRANCH  14  15
ATOM     15  O   UNL     1      40.325 -26.088 -15.728  0.00  0.00    -0.378 OA
ATOM     16  H   UNL     1      39.811 -25.281 -15.888  0.00  0.00    +0.211 HD
ENDBRANCH  14  15
ENDBRANCH  11  14
ENDBRANCH   2  10
BRANCH   5  18
ATOM     17  N   UNL     1      30.384 -22.853 -16.431  0.00  0.00    -0.234 NA
ATOM     18  C   UNL     1      31.879 -23.928 -14.868  0.00  0.00    +0.021 C 
ATOM     19  C   UNL     1      30.803 -24.278 -14.063  0.00  0.00    +0.004 C 
ATOM     20  C   UNL     1      31.622 -23.222 -16.030  0.00  0.00    +0.100 C 
ATOM     21  C   UNL     1      29.515 -23.916 -14.442  0.00  0.00    +0.029 C 
ATOM     22  C   UNL     1      29.361 -23.210 -15.624  0.00  0.00    +0.146 C 
BRANCH  22  27
ATOM     23  N   UNL     1      27.788 -22.413 -17.309  0.00  0.00    -0.105 NA
ATOM     24  N   UNL     1      26.477 -22.165 -17.180  0.00  0.00    -0.113 N 
ATOM     25  N   UNL     1      26.976 -22.801 -15.231  0.00  0.00    -0.085 NA
ATOM     26  N   UNL     1      25.954 -22.381 -15.965  0.00  0.00    -0.018 NA
ATOM     27  C   UNL     1      28.055 -22.809 -16.063  0.00  0.00    +0.092 C 
ATOM     28  C   UNL     1      25.678 -21.692 -18.280  0.00  0.00    +0.163 C 
ENDBRANCH  22  27
ENDBRANCH   5  18
TORSDOF 5
ENDMDL
MODEL 2
REMARK VINA RESULT:     -11.1      5.575      6.850
REMARK  Name = 11234049
REMARK  5 active torsions:
REMARK  status: ('A' for Active; 'I' for Inactive)
REMARK    1  A    between atoms: C_2  and  N_10
REMARK    2  A    between atoms: C_5  and  C_18
REMARK    3  A    between atoms: C_11  and  C_14
REMARK    4  A    between atoms: C_14  and  O_15
REMARK    5  A    between atoms: C_22  and  C_27
REMARK                            x       y       z     vdW  Elec       q    Type
REMARK                         _______ _______ _______ _____ _____    ______ ____
ROOT
ATOM      1  F   UNL     1      33.430 -23.124 -17.737  0.00  0.00    -0.204 F 
ATOM      2  C   UNL     1      36.128 -23.754 -15.377  0.00  0.00    +0.059 C 
ATOM      3  C   UNL     1      34.875 -23.802 -15.998  0.00  0.00    +0.045 C 
ATOM      4  C   UNL     1      37.140 -22.963 -15.929  0.00  0.00    +0.015 C 
ATOM      5  C   UNL     1      35.652 -22.277 -17.703  0.00  0.00    +0.029 C 
ATOM      6  C   UNL     1      34.637 -23.065 -17.158  0.00  0.00    +0.141 C 
ATOM      7  C   UNL     1      36.903 -22.227 -17.089  0.00  0.00    +0.004 C 
ENDROOT
BRANCH   2  10
ATOM      8  O   UNL     1      36.830 -26.198 -12.771  0.00  0.00    -0.434 OA
ATOM      9  O   UNL     1      36.786 -26.697 -14.982  0.00  0.00    -0.226 OA
ATOM     10  N   UNL     1      36.370 -24.506 -14.192  0.00  0.00    -0.221 N 
ATOM     11  C   UNL     1      36.852 -24.999 -11.984  0.00  0.00    +0.220 C 
ATOM     12  C   UNL     1      36.215 -23.954 -12.873  0.00  0.00    +0.148 C 
ATOM     13  C   UNL     1      36.677 -25.861 -14.097  0.00  0.00    +0.409 C 
BRANCH  11  14
ATOM     14  C   UNL     1      38.295 -24.677 -11.618  0.00  0.00    +0.183 C 
BRANCH  14  15
ATOM     15  O   UNL     1      38.373 -23.313 -11.241  0.00  0.00    -0.378 OA
ATOM     16  H   UNL     1      38.034 -22.759 -11.961  0.00  0.00    +0.211 HD
ENDBRANCH  14  15
ENDBRANCH  11  14
ENDBRANCH   2  10
BRANCH   5  18
ATOM     17  N   UNL     1      36.291 -20.144 -20.693  0.00  0.00    -0.234 NA
ATOM     18  C   UNL     1      35.410 -21.510 -18.907  0.00  0.00    +0.021 C 
ATOM     19  C   UNL     1      34.131 -21.393 -19.434  0.00  0.00    +0.004 C 
ATOM     20  C   UNL     1      36.448 -20.874 -19.565  0.00  0.00    +0.100 C 
ATOM     21  C   UNL     1      33.929 -20.650 -20.592  0.00  0.00    +0.029 C 
ATOM     22  C   UNL     1      35.033 -20.050 -21.177  0.00  0.00    +0.146 C 
BRANCH  22  27
ATOM     23  N   UNL     1      35.136 -17.962 -22.433  0.00  0.00    -0.105 NA
ATOM     24  N   UNL     1      34.846 -17.746 -23.724  0.00  0.00    -0.113 N 
ATOM     25  N   UNL     1      34.467 -19.814 -23.551  0.00  0.00    -0.085 NA
ATOM     26  N   UNL     1      34.446 -18.816 -24.425  0.00  0.00    -0.018 NA
ATOM     27  C   UNL     1      34.883 -19.271 -22.373  0.00  0.00    +0.092 C 
ATOM     28  C   UNL     1      34.957 -16.441 -24.323  0.00  0.00    +0.163 C 
ENDBRANCH  22  27
ENDBRANCH   5  18
TORSDOF 5
ENDMDL
MODEL 3
REMARK VINA RESULT:     -11.0      5.483      6.900
REMARK  Name = 11234049
REMARK  5 active torsions:
REMARK  status: ('A' for Active; 'I' for Inactive)
REMARK    1  A    between atoms: C_2  and  N_10
REMARK    2  A    between atoms: C_5  and  C_18
REMARK    3  A    between atoms: C_11  and  C_14
REMARK    4  A    between atoms: C_14  and  O_15
REMARK    5  A    between atoms: C_22  and  C_27
REMARK                            x       y       z     vdW  Elec       q    Type
REMARK                         _______ _______ _______ _____ _____    ______ ____
ROOT
ATOM      1  F   UNL     1      37.580 -21.530 -17.250  0.00  0.00    -0.204 F 
ATOM      2  C   UNL     1      35.726 -23.887 -15.189  0.00  0.00    +0.059 C 
ATOM      3  C   UNL     1      36.753 -23.059 -15.653  0.00  0.00    +0.045 C 
ATOM      4  C   UNL     1      34.528 -23.966 -15.905  0.00  0.00    +0.015 C 
ATOM      5  C   UNL     1      35.385 -22.401 -17.532  0.00  0.00    +0.029 C 
ATOM      6  C   UNL     1      36.584 -22.318 -16.821  0.00  0.00    +0.141 C 
ATOM      7  C   UNL     1      34.358 -23.224 -17.073  0.00  0.00    +0.004 C 
ENDROOT
BRANCH   2  10
ATOM      8  O   UNL     1      36.640 -26.157 -12.492  0.00  0.00    -0.434 OA
ATOM      9  O   UNL     1      37.599 -26.196 -14.547  0.00  0.00    -0.226 OA
ATOM     10  N   UNL     1      35.900 -24.645 -13.995  0.00  0.00    -0.221 N 
ATOM     11  C   UNL     1      35.791 -25.257 -11.767  0.00  0.00    +0.220 C 
ATOM     12  C   UNL     1      35.056 -24.486 -12.841  0.00  0.00    +0.148 C 
ATOM     13  C   UNL     1      36.795 -25.690 -13.779  0.00  0.00    +0.409 C 
BRANCH  11  14
ATOM     14  C   UNL     1      36.654 -24.373 -10.878  0.00  0.00    +0.183 C 
BRANCH  14  15
ATOM     15  O   UNL     1      36.214 -24.509  -9.538  0.00  0.00    -0.378 OA
ATOM     16  H   UNL     1      36.884 -24.144  -8.940  0.00  0.00    +0.211 HD
ENDBRANCH  14  15
ENDBRANCH  11  14
ENDBRANCH   2  10
BRANCH   5  18
ATOM     17  N   UNL     1      36.186 -20.332 -20.529  0.00  0.00    -0.234 NA
ATOM     18  C   UNL     1      35.204 -21.633 -18.747  0.00  0.00    +0.021 C 
ATOM     19  C   UNL     1      33.942 -21.454 -19.296  0.00  0.00    +0.004 C 
ATOM     20  C   UNL     1      36.285 -21.059 -19.392  0.00  0.00    +0.100 C 
ATOM     21  C   UNL     1      33.799 -20.711 -20.463  0.00  0.00    +0.029 C 
ATOM     22  C   UNL     1      34.942 -20.176 -21.035  0.00  0.00    +0.146 C 
BRANCH  22  27
ATOM     23  N   UNL     1      35.099 -18.090 -22.289  0.00  0.00    -0.105 NA
ATOM     24  N   UNL     1      34.881 -17.879 -23.594  0.00  0.00    -0.113 N 
ATOM     25  N   UNL     1      34.508 -19.950 -23.437  0.00  0.00    -0.085 NA
ATOM     26  N   UNL     1      34.528 -18.955 -24.313  0.00  0.00    -0.018 NA
ATOM     27  C   UNL     1      34.854 -19.401 -22.239  0.00  0.00    +0.092 C 
ATOM     28  C   UNL     1      35.015 -16.576 -24.189  0.00  0.00    +0.163 C 
ENDBRANCH  22  27
ENDBRANCH   5  18
TORSDOF 5
ENDMDL
MODEL 4
REMARK VINA RESULT:     -10.6      5.682      6.866
REMARK  Name = 11234049
REMARK  5 active torsions:
REMARK  status: ('A' for Active; 'I' for Inactive)
REMARK    1  A    between atoms: C_2  and  N_10
REMARK    2  A    between atoms: C_5  and  C_18
REMARK    3  A    between atoms: C_11  and  C_14
REMARK    4  A    between atoms: C_14  and  O_15
REMARK    5  A    between atoms: C_22  and  C_27
REMARK                            x       y       z     vdW  Elec       q    Type
REMARK                         _______ _______ _______ _____ _____    ______ ____
ROOT
ATOM      1  F   UNL     1      33.481 -23.112 -17.960  0.00  0.00    -0.204 F 
ATOM      2  C   UNL     1      36.172 -23.630 -15.566  0.00  0.00    +0.059 C 
ATOM      3  C   UNL     1      34.932 -23.732 -16.204  0.00  0.00    +0.045 C 
ATOM      4  C   UNL     1      37.155 -22.792 -16.100  0.00  0.00    +0.015 C 
ATOM      5  C   UNL     1      35.662 -22.166 -17.892  0.00  0.00    +0.029 C 
ATOM      6  C   UNL     1      34.677 -23.002 -17.364  0.00  0.00    +0.141 C 
ATOM      7  C   UNL     1      36.901 -22.062 -17.261  0.00  0.00    +0.004 C 
ENDROOT
BRANCH   2  10
ATOM      8  O   UNL     1      36.198 -25.380 -12.372  0.00  0.00    -0.434 OA
ATOM      9  O   UNL     1      34.400 -24.255 -13.174  0.00  0.00    -0.226 OA
ATOM     10  N   UNL     1      36.432 -24.375 -14.380  0.00  0.00    -0.221 N 
ATOM     11  C   UNL     1      37.451 -25.835 -12.902  0.00  0.00    +0.220 C 
ATOM     12  C   UNL     1      37.732 -24.900 -14.058  0.00  0.00    +0.148 C 
ATOM     13  C   UNL     1      35.555 -24.625 -13.328  0.00  0.00    +0.409 C 
BRANCH  11  14
ATOM     14  C   UNL     1      37.306 -27.289 -13.328  0.00  0.00    +0.183 C 
BRANCH  14  15
ATOM     15  O   UNL     1      38.117 -27.511 -14.469  0.00  0.00    -0.378 OA
ATOM     16  H   UNL     1      38.952 -27.028 -14.369  0.00  0.00    +0.211 HD
ENDBRANCH  14  15
ENDBRANCH  11  14
ENDBRANCH   2  10
BRANCH   5  18
ATOM     17  N   UNL     1      36.264 -20.098 -20.935  0.00  0.00    -0.234 NA
ATOM     18  C   UNL     1      35.403 -21.406 -19.097  0.00  0.00    +0.021 C 
ATOM     19  C   UNL     1      34.109 -21.247 -19.575  0.00  0.00    +0.004 C 
ATOM     20  C   UNL     1      36.437 -20.819 -19.804  0.00  0.00    +0.100 C 
ATOM     21  C   UNL     1      33.890 -20.511 -20.735  0.00  0.00    +0.029 C 
ATOM     22  C   UNL     1      34.992 -19.962 -21.372  0.00  0.00    +0.146 C 
BRANCH  22  27
ATOM     23  N   UNL     1      35.138 -17.899 -22.664  0.00  0.00    -0.105 NA
ATOM     24  N   UNL     1      34.800 -17.687 -23.944  0.00  0.00    -0.113 N 
ATOM     25  N   UNL     1      34.329 -19.732 -23.720  0.00  0.00    -0.085 NA
ATOM     26  N   UNL     1      34.316 -18.746 -24.608  0.00  0.00    -0.018 NA
ATOM     27  C   UNL     1      34.825 -19.193 -22.572  0.00  0.00    +0.092 C 
ATOM     28  C   UNL     1      34.946 -16.398 -24.568  0.00  0.00    +0.163 C 
ENDBRANCH  22  27
ENDBRANCH   5  18
TORSDOF 5
ENDMDL
MODEL 5
REMARK VINA RESULT:     -10.0     13.052     14.498
REMARK  Name = 11234049
REMARK  5 active torsions:
REMARK  status: ('A' for Active; 'I' for Inactive)
REMARK    1  A    between atoms: C_2  and  N_10
REMARK    2  A    between atoms: C_5  and  C_18
REMARK    3  A    between atoms: C_11  and  C_14
REMARK    4  A    between atoms: C_14  and  O_15
REMARK    5  A    between atoms: C_22  and  C_27
REMARK                            x       y       z     vdW  Elec       q    Type
REMARK                         _______ _______ _______ _____ _____    ______ ____
ROOT
ATOM      1  F   UNL     1      33.747 -13.245 -24.921  0.00  0.00    -0.204 F 
ATOM      2  C   UNL     1      34.395 -15.823 -22.436  0.00  0.00    +0.059 C 
ATOM      3  C   UNL     1      34.280 -15.174 -23.670  0.00  0.00    +0.045 C 
ATOM      4  C   UNL     1      34.080 -15.131 -21.262  0.00  0.00    +0.015 C 
ATOM      5  C   UNL     1      33.539 -13.163 -22.554  0.00  0.00    +0.029 C 
ATOM      6  C   UNL     1      33.853 -13.848 -23.729  0.00  0.00    +0.141 C 
ATOM      7  C   UNL     1      33.655 -13.805 -21.321  0.00  0.00    +0.004 C 
ENDROOT
BRANCH   2  10
ATOM      8  O   UNL     1      35.413 -19.280 -22.952  0.00  0.00    -0.434 OA
ATOM      9  O   UNL     1      34.746 -17.904 -24.626  0.00  0.00    -0.226 OA
ATOM     10  N   UNL     1      34.831 -17.177 -22.376  0.00  0.00    -0.221 N 
ATOM     11  C   UNL     1      35.789 -19.125 -21.576  0.00  0.00    +0.220 C 
ATOM     12  C   UNL     1      35.088 -17.859 -21.136  0.00  0.00    +0.148 C 
ATOM     13  C   UNL     1      34.974 -18.068 -23.436  0.00  0.00    +0.409 C 
BRANCH  11  14
ATOM     14  C   UNL     1      37.306 -19.033 -21.488  0.00  0.00    +0.183 C 
BRANCH  14  15
ATOM     15  O   UNL     1      37.679 -18.976 -20.122  0.00  0.00    -0.378 OA
ATOM     16  H   UNL     1      37.033 -19.468 -19.591  0.00  0.00    +0.211 HD
ENDBRANCH  14  15
ENDBRANCH  11  14
ENDBRANCH   2  10
BRANCH   5  18
ATOM     17  N   UNL     1      31.505 -10.103 -21.924  0.00  0.00    -0.234 NA
ATOM     18  C   UNL     1      33.095 -11.786 -22.610  0.00  0.00    +0.021 C 
ATOM     19  C   UNL     1      33.786 -10.844 -23.361  0.00  0.00    +0.004 C 
ATOM     20  C   UNL     1      31.972 -11.372 -21.915  0.00  0.00    +0.100 C 
ATOM     21  C   UNL     1      33.336  -9.529 -23.396  0.00  0.00    +0.029 C 
ATOM     22  C   UNL     1      32.201  -9.213 -22.666  0.00  0.00    +0.146 C 
BRANCH  22  27
ATOM     23  N   UNL     1      31.073  -7.320 -21.620  0.00  0.00    -0.105 NA
ATOM     24  N   UNL     1      30.814  -6.111 -22.135  0.00  0.00    -0.113 N 
ATOM     25  N   UNL     1      31.800  -7.049 -23.747  0.00  0.00    -0.085 NA
ATOM     26  N   UNL     1      31.227  -5.906 -23.394  0.00  0.00    -0.018 NA
ATOM     27  C   UNL     1      31.691  -7.871 -22.666  0.00  0.00    +0.092 C 
ATOM     28  C   UNL     1      30.131  -5.091 -21.383  0.00  0.00    +0.163 C 
ENDBRANCH  22  27
ENDBRANCH   5  18
TORSDOF 5
ENDMDL
MODEL 6
REMARK VINA RESULT:     -10.0     13.974     16.547
REMARK  Name = 11234049
REMARK  5 active torsions:
REMARK  status: ('A' for Active; 'I' for Inactive)
REMARK    1  A    between atoms: C_2  and  N_10
REMARK    2  A    between atoms: C_5  and  C_18
REMARK    3  A    between atoms: C_11  and  C_14
REMARK    4  A    between atoms: C_14  and  O_15
REMARK    5  A    between atoms: C_22  and  C_27
REMARK                            x       y       z     vdW  Elec       q    Type
REMARK                         _______ _______ _______ _____ _____    ______ ____
ROOT
ATOM      1  F   UNL     1      31.389 -12.752 -20.793  0.00  0.00    -0.204 F 
ATOM      2  C   UNL     1      32.130  -9.577 -22.408  0.00  0.00    +0.059 C 
ATOM      3  C   UNL     1      31.515 -10.537 -21.598  0.00  0.00    +0.045 C 
ATOM      4  C   UNL     1      33.228  -9.940 -23.194  0.00  0.00    +0.015 C 
ATOM      5  C   UNL     1      33.089 -12.203 -22.362  0.00  0.00    +0.029 C 
ATOM      6  C   UNL     1      31.993 -11.847 -21.575  0.00  0.00    +0.141 C 
ATOM      7  C   UNL     1      33.707 -11.249 -23.170  0.00  0.00    +0.004 C 
ENDROOT
BRANCH   2  10
ATOM      8  O   UNL     1      31.005  -6.166 -21.805  0.00  0.00    -0.434 OA
ATOM      9  O   UNL     1      31.800  -7.533 -20.180  0.00  0.00    -0.226 OA
ATOM     10  N   UNL     1      31.641  -8.239 -22.432  0.00  0.00    -0.221 N 
ATOM     11  C   UNL     1      30.982  -6.174 -23.239  0.00  0.00    +0.220 C 
ATOM     12  C   UNL     1      31.073  -7.638 -23.609  0.00  0.00    +0.148 C 
ATOM     13  C   UNL     1      31.530  -7.359 -21.359  0.00  0.00    +0.409 C 
BRANCH  11  14
ATOM     14  C   UNL     1      32.154  -5.350 -23.755  0.00  0.00    +0.183 C 
BRANCH  14  15
ATOM     15  O   UNL     1      32.649  -5.957 -24.936  0.00  0.00    -0.378 OA
ATOM     16  H   UNL     1      33.614  -6.037 -24.877  0.00  0.00    +0.211 HD
ENDBRANCH  14  15
ENDBRANCH  11  14
ENDBRANCH   2  10
BRANCH   5  18
ATOM     17  N   UNL     1      34.415 -15.435 -21.062  0.00  0.00    -0.234 NA
ATOM     18  C   UNL     1      33.589 -13.562 -22.342  0.00  0.00    +0.021 C 
ATOM     19  C   UNL     1      33.725 -14.289 -23.516  0.00  0.00    +0.004 C 
ATOM     20  C   UNL     1      33.943 -14.171 -21.151  0.00  0.00    +0.100 C 
ATOM     21  C   UNL     1      34.208 -15.592 -23.465  0.00  0.00    +0.029 C 
ATOM     22  C   UNL     1      34.536 -16.114 -22.224  0.00  0.00    +0.146 C 
BRANCH  22  27
ATOM     23  N   UNL     1      35.326 -18.036 -20.946  0.00  0.00    -0.105 NA
ATOM     24  N   UNL     1      35.742 -19.227 -21.396  0.00  0.00    -0.113 N 
ATOM     25  N   UNL     1      35.268 -18.240 -23.200  0.00  0.00    -0.085 NA
ATOM     26  N   UNL     1      35.724 -19.393 -22.727  0.00  0.00    -0.018 NA
ATOM     27  C   UNL     1      35.040 -17.453 -22.112  0.00  0.00    +0.092 C 
ATOM     28  C   UNL     1      36.183 -20.268 -20.505  0.00  0.00    +0.163 C 
ENDBRANCH  22  27
ENDBRANCH   5  18
TORSDOF 5
ENDMDL
MODEL 7
REMARK VINA RESULT:     -10.0      7.664     10.793
REMARK  Name = 11234049
REMARK  5 active torsions:
REMARK  status: ('A' for Active; 'I' for Inactive)
REMARK    1  A    between atoms: C_2  and  N_10
REMARK    2  A    between atoms: C_5  and  C_18
REMARK    3  A    between atoms: C_11  and  C_14
REMARK    4  A    between atoms: C_14  and  O_15
REMARK    5  A    between atoms: C_22  and  C_27
REMARK                            x       y       z     vdW  Elec       q    Type
REMARK                         _______ _______ _______ _____ _____    ______ ____
ROOT
ATOM      1  F   UNL     1      33.117 -21.129 -19.807  0.00  0.00    -0.204 F 
ATOM      2  C   UNL     1      35.152 -19.112 -22.049  0.00  0.00    +0.059 C 
ATOM      3  C   UNL     1      34.039 -19.724 -21.464  0.00  0.00    +0.045 C 
ATOM      4  C   UNL     1      36.423 -19.334 -21.511  0.00  0.00    +0.015 C 
ATOM      5  C   UNL     1      35.467 -20.769 -19.820  0.00  0.00    +0.029 C 
ATOM      6  C   UNL     1      34.196 -20.551 -20.352  0.00  0.00    +0.141 C 
ATOM      7  C   UNL     1      36.580 -20.160 -20.399  0.00  0.00    +0.004 C 
ENDROOT
BRANCH   2  10
ATOM      8  O   UNL     1      34.439 -17.492 -25.232  0.00  0.00    -0.434 OA
ATOM      9  O   UNL     1      33.872 -19.636 -24.758  0.00  0.00    -0.226 OA
ATOM     10  N   UNL     1      34.991 -18.268 -23.186  0.00  0.00    -0.221 N 
ATOM     11  C   UNL     1      34.893 -16.356 -24.484  0.00  0.00    +0.220 C 
ATOM     12  C   UNL     1      35.565 -16.952 -23.266  0.00  0.00    +0.148 C 
ATOM     13  C   UNL     1      34.379 -18.585 -24.396  0.00  0.00    +0.409 C 
BRANCH  11  14
ATOM     14  C   UNL     1      33.695 -15.481 -24.141  0.00  0.00    +0.183 C 
BRANCH  14  15
ATOM     15  O   UNL     1      32.952 -15.246 -25.325  0.00  0.00    -0.378 OA
ATOM     16  H   UNL     1      32.551 -16.077 -25.624  0.00  0.00    +0.211 HD
ENDBRANCH  14  15
ENDBRANCH  11  14
ENDBRANCH   2  10
BRANCH   5  18
ATOM     17  N   UNL     1      37.058 -22.441 -16.892  0.00  0.00    -0.234 NA
ATOM     18  C   UNL     1      35.636 -21.627 -18.665  0.00  0.00    +0.021 C 
ATOM     19  C   UNL     1      34.597 -22.433 -18.218  0.00  0.00    +0.004 C 
ATOM     20  C   UNL     1      36.835 -21.665 -17.977  0.00  0.00    +0.100 C 
ATOM     21  C   UNL     1      34.788 -23.246 -17.106  0.00  0.00    +0.029 C 
ATOM     22  C   UNL     1      36.026 -23.214 -16.485  0.00  0.00    +0.146 C 
BRANCH  22  27
ATOM     23  N   UNL     1      37.487 -24.171 -14.782  0.00  0.00    -0.105 NA
ATOM     24  N   UNL     1      37.173 -25.007 -13.783  0.00  0.00    -0.113 N 
ATOM     25  N   UNL     1      35.296 -24.740 -14.711  0.00  0.00    -0.085 NA
ATOM     26  N   UNL     1      35.885 -25.371 -13.703  0.00  0.00    -0.018 NA
ATOM     27  C   UNL     1      36.280 -24.033 -15.334  0.00  0.00    +0.092 C 
ATOM     28  C   UNL     1      38.159 -25.489 -12.852  0.00  0.00    +0.163 C 
ENDBRANCH  22  27
ENDBRANCH   5  18
TORSDOF 5
ENDMDL
MODEL 8
REMARK VINA RESULT:     -10.0      4.260      9.957
REMARK  Name = 11234049
REMARK  5 active torsions:
REMARK  status: ('A' for Active; 'I' for Inactive)
REMARK    1  A    between atoms: C_2  and  N_10
REMARK    2  A    between atoms: C_5  and  C_18
REMARK    3  A    between atoms: C_11  and  C_14
REMARK    4  A    between atoms: C_14  and  O_15
REMARK    5  A    between atoms: C_22  and  C_27
REMARK                            x       y       z     vdW  Elec       q    Type
REMARK                         _______ _______ _______ _____ _____    ______ ____
ROOT
ATOM      1  F   UNL     1      32.807 -25.315 -13.064  0.00  0.00    -0.204 F 
ATOM      2  C   UNL     1      30.607 -23.669 -15.450  0.00  0.00    +0.059 C 
ATOM      3  C   UNL     1      31.048 -24.371 -14.324  0.00  0.00    +0.045 C 
ATOM      4  C   UNL     1      31.538 -23.237 -16.401  0.00  0.00    +0.015 C 
ATOM      5  C   UNL     1      33.329 -24.206 -15.102  0.00  0.00    +0.029 C 
ATOM      6  C   UNL     1      32.405 -24.639 -14.150  0.00  0.00    +0.141 C 
ATOM      7  C   UNL     1      32.895 -23.504 -16.226  0.00  0.00    +0.004 C 
ENDROOT
BRANCH   2  10
ATOM      8  O   UNL     1      27.145 -22.543 -15.388  0.00  0.00    -0.434 OA
ATOM      9  O   UNL     1      28.738 -21.787 -13.962  0.00  0.00    -0.226 OA
ATOM     10  N   UNL     1      29.221 -23.396 -15.628  0.00  0.00    -0.221 N 
ATOM     11  C   UNL     1      27.126 -23.302 -16.604  0.00  0.00    +0.220 C 
ATOM     12  C   UNL     1      28.396 -24.121 -16.557  0.00  0.00    +0.148 C 
ATOM     13  C   UNL     1      28.434 -22.504 -14.903  0.00  0.00    +0.409 C 
BRANCH  11  14
ATOM     14  C   UNL     1      27.076 -22.340 -17.784  0.00  0.00    +0.183 C 
BRANCH  14  15
ATOM     15  O   UNL     1      26.363 -21.179 -17.393  0.00  0.00    -0.378 OA
ATOM     16  H   UNL     1      25.430 -21.406 -17.254  0.00  0.00    +0.211 HD
ENDBRANCH  14  15
ENDBRANCH  11  14
ENDBRANCH   2  10
BRANCH   5  18
ATOM     17  N   UNL     1      36.501 -26.107 -14.629  0.00  0.00    -0.234 NA
ATOM     18  C   UNL     1      34.740 -24.482 -14.926  0.00  0.00    +0.021 C 
ATOM     19  C   UNL     1      35.669 -23.451 -14.885  0.00  0.00    +0.004 C 
ATOM     20  C   UNL     1      35.199 -25.781 -14.795  0.00  0.00    +0.100 C 
ATOM     21  C   UNL     1      37.017 -23.747 -14.715  0.00  0.00    +0.029 C 
ATOM     22  C   UNL     1      37.378 -25.079 -14.593  0.00  0.00    +0.146 C 
BRANCH  22  27
ATOM     23  N   UNL     1      39.145 -26.579 -13.833  0.00  0.00    -0.105 NA
ATOM     24  N   UNL     1      40.473 -26.420 -13.922  0.00  0.00    -0.113 N 
ATOM     25  N   UNL     1      39.779 -24.646 -14.829  0.00  0.00    -0.085 NA
ATOM     26  N   UNL     1      40.894 -25.289 -14.506  0.00  0.00    -0.018 NA
ATOM     27  C   UNL     1      38.754 -25.442 -14.415  0.00  0.00    +0.092 C 
ATOM     28  C   UNL     1      41.394 -27.406 -13.420  0.00  0.00    +0.163 C 
ENDBRANCH  22  27
ENDBRANCH   5  18
TORSDOF 5
ENDMDL
MODEL 9
REMARK VINA RESULT:      -9.6      1.617      2.139
REMARK  Name = 11234049
REMARK  5 active torsions:
REMARK  status: ('A' for Active; 'I' for Inactive)
REMARK    1  A    between atoms: C_2  and  N_10
REMARK    2  A    between atoms: C_5  and  C_18
REMARK    3  A    between atoms: C_11  and  C_14
REMARK    4  A    between atoms: C_14  and  O_15
REMARK    5  A    between atoms: C_22  and  C_27
REMARK                            x       y       z     vdW  Elec       q    Type
REMARK                         _______ _______ _______ _____ _____    ______ ____
ROOT
ATOM      1  F   UNL     1      33.575 -25.732 -13.569  0.00  0.00    -0.204 F 
ATOM      2  C   UNL     1      36.900 -24.529 -14.428  0.00  0.00    +0.059 C 
ATOM      3  C   UNL     1      35.874 -25.263 -13.824  0.00  0.00    +0.045 C 
ATOM      4  C   UNL     1      36.581 -23.548 -15.372  0.00  0.00    +0.015 C 
ATOM      5  C   UNL     1      34.231 -24.037 -15.102  0.00  0.00    +0.029 C 
ATOM      6  C   UNL     1      34.543 -25.018 -14.160  0.00  0.00    +0.141 C 
ATOM      7  C   UNL     1      35.251 -23.303 -15.709  0.00  0.00    +0.004 C 
ENDROOT
BRANCH   2  10
ATOM      8  O   UNL     1      40.160 -25.104 -12.911  0.00  0.00    -0.434 OA
ATOM      9  O   UNL     1      38.274 -24.696 -11.720  0.00  0.00    -0.226 OA
ATOM     10  N   UNL     1      38.259 -24.779 -14.085  0.00  0.00    -0.221 N 
ATOM     11  C   UNL     1      40.469 -25.438 -14.271  0.00  0.00    +0.220 C 
ATOM     12  C   UNL     1      39.304 -24.892 -15.067  0.00  0.00    +0.148 C 
ATOM     13  C   UNL     1      38.810 -24.849 -12.807  0.00  0.00    +0.409 C 
BRANCH  11  14
ATOM     14  C   UNL     1      40.618 -26.949 -14.386  0.00  0.00    +0.183 C 
BRANCH  14  15
ATOM     15  O   UNL     1      41.589 -27.382 -13.449  0.00  0.00    -0.378 OA
ATOM     16  H   UNL     1      41.836 -26.640 -12.874  0.00  0.00    +0.211 HD
ENDBRANCH  14  15
ENDBRANCH  11  14
ENDBRANCH   2  10
BRANCH   5  18
ATOM     17  N   UNL     1      30.510 -23.958 -14.888  0.00  0.00    -0.234 NA
ATOM     18  C   UNL     1      32.851 -23.778 -15.454  0.00  0.00    +0.021 C 
ATOM     19  C   UNL     1      32.526 -23.129 -16.638  0.00  0.00    +0.004 C 
ATOM     20  C   UNL     1      31.819 -24.170 -14.620  0.00  0.00    +0.100 C 
ATOM     21  C   UNL     1      31.191 -22.894 -16.949  0.00  0.00    +0.029 C 
ATOM     22  C   UNL     1      30.230 -23.325 -16.049  0.00  0.00    +0.146 C 
BRANCH  22  27
ATOM     23  N   UNL     1      28.017 -22.470 -15.484  0.00  0.00    -0.105 NA
ATOM     24  N   UNL     1      26.883 -22.549 -16.194  0.00  0.00    -0.113 N 
ATOM     25  N   UNL     1      28.240 -23.550 -17.462  0.00  0.00    -0.085 NA
ATOM     26  N   UNL     1      26.969 -23.181 -17.373  0.00  0.00    -0.018 NA
ATOM     27  C   UNL     1      28.837 -23.111 -16.320  0.00  0.00    +0.092 C 
ATOM     28  C   UNL     1      25.645 -21.990 -15.718  0.00  0.00    +0.163 C 
ENDBRANCH  22  27
ENDBRANCH   5  18
TORSDOF 5
ENDMDL
