MODEL 1
REMARK VINA RESULT:     -12.3      0.000      0.000
REMARK  Name = 216239
REMARK  6 active torsions:
REMARK  status: ('A' for Active; 'I' for Inactive)
REMARK    1  A    between atoms: C_1  and  N_9
REMARK    2  A    between atoms: C_2  and  O_24
REMARK    3  A    between atoms: N_8  and  C_14
REMARK    4  A    between atoms: C_15  and  C_23
REMARK    5  A    between atoms: O_24  and  C_26
REMARK    6  A    between atoms: C_28  and  C_33
REMARK                            x       y       z     vdW  Elec       q    Type
REMARK                         _______ _______ _______ _____ _____    ______ ____
ROOT
ATOM      1  C   UNL     1      35.098 -22.161 -18.393  0.00  0.00    +0.052 C 
ATOM      2  C   UNL     1      34.260 -23.754 -16.287  0.00  0.00    +0.145 C 
ATOM      3  C   UNL     1      35.922 -22.315 -17.292  0.00  0.00    +0.018 C 
ATOM      4  C   UNL     1      33.864 -22.785 -18.465  0.00  0.00    +0.018 C 
ATOM      5  C   UNL     1      35.500 -23.118 -16.231  0.00  0.00    +0.039 C 
ATOM      6  C   UNL     1      33.441 -23.586 -17.404  0.00  0.00    +0.039 C 
ENDROOT
BRANCH   1   9
ATOM      7  O   UNL     1      33.540 -20.320 -20.154  0.00  0.00    -0.252 OA
ATOM      8  N   UNL     1      35.566 -19.859 -21.235  0.00  0.00    -0.268 N 
ATOM      9  N   UNL     1      35.526 -21.347 -19.468  0.00  0.00    -0.268 N 
ATOM     10  C   UNL     1      34.748 -20.494 -20.269  0.00  0.00    +0.308 C 
ATOM     11  H   UNL     1      36.522 -20.097 -21.209  0.00  0.00    +0.156 HD
ATOM     12  H   UNL     1      36.486 -21.382 -19.681  0.00  0.00    +0.156 HD
BRANCH   8  14
ATOM     13 CL   UNL     1      34.017 -16.008 -25.443  0.00  0.00    -0.082 Cl
ATOM     14  C   UNL     1      35.199 -18.943 -22.221  0.00  0.00    +0.052 C 
ATOM     15  C   UNL     1      34.630 -16.688 -22.876  0.00  0.00    +0.083 C 
ATOM     16  C   UNL     1      34.996 -17.604 -21.889  0.00  0.00    +0.019 C 
ATOM     17  C   UNL     1      35.036 -19.367 -23.540  0.00  0.00    +0.016 C 
ATOM     18  C   UNL     1      34.466 -17.112 -24.195  0.00  0.00    +0.062 C 
ATOM     19  C   UNL     1      34.670 -18.452 -24.526  0.00  0.00    +0.013 C 
BRANCH  15  23
ATOM     20  F   UNL     1      35.059 -14.373 -23.296  0.00  0.00    -0.166 F 
ATOM     21  F   UNL     1      33.113 -14.880 -22.484  0.00  0.00    -0.166 F 
ATOM     22  F   UNL     1      34.881 -14.998 -21.222  0.00  0.00    -0.166 F 
ATOM     23  C   UNL     1      34.423 -15.262 -22.480  0.00  0.00    +0.419 C 
ENDBRANCH  15  23
ENDBRANCH   8  14
ENDBRANCH   1   9
BRANCH   2  24
ATOM     24  O   UNL     1      33.848 -24.535 -15.252  0.00  0.00    -0.453 OA
BRANCH  24  26
ATOM     25  N   UNL     1      36.650 -25.524 -12.346  0.00  0.00    -0.239 NA
ATOM     26  C   UNL     1      34.782 -24.865 -14.284  0.00  0.00    +0.149 C 
ATOM     27  C   UNL     1      35.934 -25.525 -14.656  0.00  0.00    +0.061 C 
ATOM     28  C   UNL     1      36.836 -25.831 -13.650  0.00  0.00    +0.137 C 
ATOM     29  C   UNL     1      34.538 -24.526 -12.970  0.00  0.00    +0.058 C 
ATOM     30  C   UNL     1      35.503 -24.878 -12.040  0.00  0.00    +0.102 C 
BRANCH  28  33
ATOM     31  O   UNL     1      38.051 -27.665 -14.460  0.00  0.00    -0.268 OA
ATOM     32  N   UNL     1      39.269 -25.844 -13.701  0.00  0.00    -0.298 N 
ATOM     33  C   UNL     1      38.074 -26.525 -13.963  0.00  0.00    +0.264 C 
ATOM     34  C   UNL     1      40.578 -26.392 -13.979  0.00  0.00    +0.111 C 
ATOM     35  H   UNL     1      39.216 -24.944 -13.306  0.00  0.00    +0.150 HD
ENDBRANCH  28  33
ENDBRANCH  24  26
ENDBRANCH   2  24
TORSDOF 6
ENDMDL
MODEL 2
REMARK VINA RESULT:     -12.0      2.878      4.568
REMARK  Name = 216239
REMARK  6 active torsions:
REMARK  status: ('A' for Active; 'I' for Inactive)
REMARK    1  A    between atoms: C_1  and  N_9
REMARK    2  A    between atoms: C_2  and  O_24
REMARK    3  A    between atoms: N_8  and  C_14
REMARK    4  A    between atoms: C_15  and  C_23
REMARK    5  A    between atoms: O_24  and  C_26
REMARK    6  A    between atoms: C_28  and  C_33
REMARK                            x       y       z     vdW  Elec       q    Type
REMARK                         _______ _______ _______ _____ _____    ______ ____
ROOT
ATOM      1  C   UNL     1      35.319 -21.791 -18.904  0.00  0.00    +0.052 C 
ATOM      2  C   UNL     1      34.630 -23.491 -16.829  0.00  0.00    +0.145 C 
ATOM      3  C   UNL     1      34.125 -22.489 -18.969  0.00  0.00    +0.018 C 
ATOM      4  C   UNL     1      36.177 -21.925 -17.825  0.00  0.00    +0.018 C 
ATOM      5  C   UNL     1      33.778 -23.345 -17.923  0.00  0.00    +0.039 C 
ATOM      6  C   UNL     1      35.830 -22.782 -16.780  0.00  0.00    +0.039 C 
ENDROOT
BRANCH   1   9
ATOM      7  O   UNL     1      33.643 -19.865 -20.454  0.00  0.00    -0.252 OA
ATOM      8  N   UNL     1      35.587 -19.347 -21.652  0.00  0.00    -0.268 N 
ATOM      9  N   UNL     1      35.671 -20.923 -19.964  0.00  0.00    -0.268 N 
ATOM     10  C   UNL     1      34.839 -20.031 -20.663  0.00  0.00    +0.308 C 
ATOM     11  H   UNL     1      36.542 -19.585 -21.707  0.00  0.00    +0.156 HD
ATOM     12  H   UNL     1      36.612 -20.946 -20.248  0.00  0.00    +0.156 HD
BRANCH   8  14
ATOM     13 CL   UNL     1      33.751 -15.289 -25.536  0.00  0.00    -0.082 Cl
ATOM     14  C   UNL     1      35.153 -18.382 -22.561  0.00  0.00    +0.052 C 
ATOM     15  C   UNL     1      34.495 -16.109 -23.046  0.00  0.00    +0.083 C 
ATOM     16  C   UNL     1      34.929 -17.073 -22.136  0.00  0.00    +0.019 C 
ATOM     17  C   UNL     1      34.943 -18.728 -23.896  0.00  0.00    +0.016 C 
ATOM     18  C   UNL     1      34.285 -16.454 -24.381  0.00  0.00    +0.062 C 
ATOM     19  C   UNL     1      34.510 -17.764 -24.806  0.00  0.00    +0.013 C 
BRANCH  15  23
ATOM     20  F   UNL     1      34.881 -13.763 -23.311  0.00  0.00    -0.166 F 
ATOM     21  F   UNL     1      32.952 -14.359 -22.518  0.00  0.00    -0.166 F 
ATOM     22  F   UNL     1      34.733 -14.532 -21.283  0.00  0.00    -0.166 F 
ATOM     23  C   UNL     1      34.269 -14.716 -22.551  0.00  0.00    +0.419 C 
ENDBRANCH  15  23
ENDBRANCH   8  14
ENDBRANCH   1   9
BRANCH   2  24
ATOM     24  O   UNL     1      34.292 -24.328 -15.811  0.00  0.00    -0.453 OA
BRANCH  24  26
ATOM     25  N   UNL     1      30.823 -23.483 -13.683  0.00  0.00    -0.239 NA
ATOM     26  C   UNL     1      33.136 -24.046 -15.102  0.00  0.00    +0.149 C 
ATOM     27  C   UNL     1      31.995 -23.688 -15.788  0.00  0.00    +0.061 C 
ATOM     28  C   UNL     1      30.866 -23.417 -15.033  0.00  0.00    +0.137 C 
ATOM     29  C   UNL     1      33.152 -24.130 -13.726  0.00  0.00    +0.058 C 
ATOM     30  C   UNL     1      31.971 -23.838 -13.063  0.00  0.00    +0.102 C 
BRANCH  28  33
ATOM     31  O   UNL     1      29.609 -22.740 -16.893  0.00  0.00    -0.268 OA
ATOM     32  N   UNL     1      28.466 -23.035 -14.898  0.00  0.00    -0.298 N 
ATOM     33  C   UNL     1      29.624 -23.033 -15.684  0.00  0.00    +0.264 C 
ATOM     34  C   UNL     1      27.154 -22.701 -15.405  0.00  0.00    +0.111 C 
ATOM     35  H   UNL     1      28.549 -23.277 -13.947  0.00  0.00    +0.150 HD
ENDBRANCH  28  33
ENDBRANCH  24  26
ENDBRANCH   2  24
TORSDOF 6
ENDMDL
MODEL 3
REMARK VINA RESULT:     -12.0      5.909     11.772
REMARK  Name = 216239
REMARK  6 active torsions:
REMARK  status: ('A' for Active; 'I' for Inactive)
REMARK    1  A    between atoms: C_1  and  N_9
REMARK    2  A    between atoms: C_2  and  O_24
REMARK    3  A    between atoms: N_8  and  C_14
REMARK    4  A    between atoms: C_15  and  C_23
REMARK    5  A    between atoms: O_24  and  C_26
REMARK    6  A    between atoms: C_28  and  C_33
REMARK                            x       y       z     vdW  Elec       q    Type
REMARK                         _______ _______ _______ _____ _____    ______ ____
ROOT
ATOM      1  C   UNL     1      35.165 -21.633 -19.316  0.00  0.00    +0.052 C 
ATOM      2  C   UNL     1      35.507 -19.694 -21.264  0.00  0.00    +0.145 C 
ATOM      3  C   UNL     1      36.444 -21.213 -19.636  0.00  0.00    +0.018 C 
ATOM      4  C   UNL     1      34.052 -21.104 -19.948  0.00  0.00    +0.018 C 
ATOM      5  C   UNL     1      36.617 -20.236 -20.617  0.00  0.00    +0.039 C 
ATOM      6  C   UNL     1      34.224 -20.128 -20.930  0.00  0.00    +0.039 C 
ENDROOT
BRANCH   1   9
ATOM      7  O   UNL     1      36.141 -21.722 -16.495  0.00  0.00    -0.252 OA
ATOM      8  N   UNL     1      35.075 -23.801 -16.335  0.00  0.00    -0.268 N 
ATOM      9  N   UNL     1      34.991 -22.623 -18.321  0.00  0.00    -0.268 N 
ATOM     10  C   UNL     1      35.473 -22.616 -17.001  0.00  0.00    +0.308 C 
ATOM     11  H   UNL     1      34.540 -24.433 -16.869  0.00  0.00    +0.156 HD
ATOM     12  H   UNL     1      34.468 -23.414 -18.584  0.00  0.00    +0.156 HD
BRANCH   8  14
ATOM     13 CL   UNL     1      36.152 -25.456 -10.764  0.00  0.00    -0.082 Cl
ATOM     14  C   UNL     1      35.339 -24.194 -15.023  0.00  0.00    +0.052 C 
ATOM     15  C   UNL     1      36.900 -24.926 -13.331  0.00  0.00    +0.083 C 
ATOM     16  C   UNL     1      36.637 -24.535 -14.643  0.00  0.00    +0.019 C 
ATOM     17  C   UNL     1      34.303 -24.245 -14.089  0.00  0.00    +0.016 C 
ATOM     18  C   UNL     1      35.865 -24.978 -12.397  0.00  0.00    +0.062 C 
ATOM     19  C   UNL     1      34.567 -24.637 -12.777  0.00  0.00    +0.013 C 
BRANCH  15  23
ATOM     20  F   UNL     1      39.186 -25.151 -13.997  0.00  0.00    -0.166 F 
ATOM     21  F   UNL     1      38.814 -24.515 -11.957  0.00  0.00    -0.166 F 
ATOM     22  F   UNL     1      38.422 -26.573 -12.540  0.00  0.00    -0.166 F 
ATOM     23  C   UNL     1      38.305 -25.282 -12.964  0.00  0.00    +0.419 C 
ENDBRANCH  15  23
ENDBRANCH   8  14
ENDBRANCH   1   9
BRANCH   2  24
ATOM     24  O   UNL     1      35.675 -18.742 -22.222  0.00  0.00    -0.453 OA
BRANCH  24  26
ATOM     25  N   UNL     1      34.125 -14.959 -21.477  0.00  0.00    -0.239 NA
ATOM     26  C   UNL     1      35.159 -17.481 -21.974  0.00  0.00    +0.149 C 
ATOM     27  C   UNL     1      34.932 -16.626 -23.031  0.00  0.00    +0.061 C 
ATOM     28  C   UNL     1      34.414 -15.377 -22.730  0.00  0.00    +0.137 C 
ATOM     29  C   UNL     1      34.884 -17.110 -20.675  0.00  0.00    +0.058 C 
ATOM     30  C   UNL     1      34.369 -15.838 -20.480  0.00  0.00    +0.102 C 
BRANCH  28  33
ATOM     31  O   UNL     1      33.780 -14.807 -24.914  0.00  0.00    -0.268 OA
ATOM     32  N   UNL     1      34.299 -13.063 -23.477  0.00  0.00    -0.298 N 
ATOM     33  C   UNL     1      34.147 -14.420 -23.790  0.00  0.00    +0.264 C 
ATOM     34  C   UNL     1      34.048 -11.993 -24.416  0.00  0.00    +0.111 C 
ATOM     35  H   UNL     1      34.593 -12.825 -22.568  0.00  0.00    +0.150 HD
ENDBRANCH  28  33
ENDBRANCH  24  26
ENDBRANCH   2  24
TORSDOF 6
ENDMDL
MODEL 4
REMARK VINA RESULT:     -11.8      3.203      5.210
REMARK  Name = 216239
REMARK  6 active torsions:
REMARK  status: ('A' for Active; 'I' for Inactive)
REMARK    1  A    between atoms: C_1  and  N_9
REMARK    2  A    between atoms: C_2  and  O_24
REMARK    3  A    between atoms: N_8  and  C_14
REMARK    4  A    between atoms: C_15  and  C_23
REMARK    5  A    between atoms: O_24  and  C_26
REMARK    6  A    between atoms: C_28  and  C_33
REMARK                            x       y       z     vdW  Elec       q    Type
REMARK                         _______ _______ _______ _____ _____    ______ ____
ROOT
ATOM      1  C   UNL     1      35.353 -18.602 -21.406  0.00  0.00    +0.052 C 
ATOM      2  C   UNL     1      36.282 -20.810 -20.014  0.00  0.00    +0.145 C 
ATOM      3  C   UNL     1      34.465 -19.604 -21.054  0.00  0.00    +0.018 C 
ATOM      4  C   UNL     1      36.697 -18.680 -21.078  0.00  0.00    +0.018 C 
ATOM      5  C   UNL     1      34.933 -20.716 -20.353  0.00  0.00    +0.039 C 
ATOM      6  C   UNL     1      37.165 -19.793 -20.378  0.00  0.00    +0.039 C 
ENDROOT
BRANCH   1   9
ATOM      7  O   UNL     1      34.513 -15.914 -20.414  0.00  0.00    -0.252 OA
ATOM      8  N   UNL     1      34.081 -15.374 -22.652  0.00  0.00    -0.268 N 
ATOM      9  N   UNL     1      34.879 -17.475 -22.117  0.00  0.00    -0.268 N 
ATOM     10  C   UNL     1      34.495 -16.226 -21.600  0.00  0.00    +0.308 C 
ATOM     11  H   UNL     1      34.118 -15.763 -23.557  0.00  0.00    +0.156 HD
ATOM     12  H   UNL     1      34.808 -17.577 -23.093  0.00  0.00    +0.156 HD
BRANCH   8  14
ATOM     13 CL   UNL     1      32.172  -9.787 -22.380  0.00  0.00    -0.082 Cl
ATOM     14  C   UNL     1      33.624 -14.058 -22.579  0.00  0.00    +0.052 C 
ATOM     15  C   UNL     1      32.359 -12.341 -21.445  0.00  0.00    +0.083 C 
ATOM     16  C   UNL     1      32.814 -13.657 -21.518  0.00  0.00    +0.019 C 
ATOM     17  C   UNL     1      33.979 -13.142 -23.571  0.00  0.00    +0.016 C 
ATOM     18  C   UNL     1      32.714 -11.424 -22.436  0.00  0.00    +0.062 C 
ATOM     19  C   UNL     1      33.524 -11.826 -23.498  0.00  0.00    +0.013 C 
BRANCH  15  23
ATOM     20  F   UNL     1      31.882 -10.788 -19.690  0.00  0.00    -0.166 F 
ATOM     21  F   UNL     1      30.186 -11.762 -20.629  0.00  0.00    -0.166 F 
ATOM     22  F   UNL     1      31.488 -12.891 -19.302  0.00  0.00    -0.166 F 
ATOM     23  C   UNL     1      31.495 -11.950 -20.290  0.00  0.00    +0.419 C 
ENDBRANCH  15  23
ENDBRANCH   8  14
ENDBRANCH   1   9
BRANCH   2  24
ATOM     24  O   UNL     1      36.739 -21.895 -19.332  0.00  0.00    -0.453 OA
BRANCH  24  26
ATOM     25  N   UNL     1      34.480 -23.239 -16.112  0.00  0.00    -0.239 NA
ATOM     26  C   UNL     1      35.987 -22.344 -18.259  0.00  0.00    +0.149 C 
ATOM     27  C   UNL     1      36.590 -22.494 -17.029  0.00  0.00    +0.061 C 
ATOM     28  C   UNL     1      35.794 -22.944 -15.988  0.00  0.00    +0.137 C 
ATOM     29  C   UNL     1      34.651 -22.629 -18.446  0.00  0.00    +0.058 C 
ATOM     30  C   UNL     1      33.942 -23.074 -17.341  0.00  0.00    +0.102 C 
BRANCH  28  33
ATOM     31  O   UNL     1      37.559 -22.883 -14.445  0.00  0.00    -0.268 OA
ATOM     32  N   UNL     1      35.488 -23.559 -13.654  0.00  0.00    -0.298 N 
ATOM     33  C   UNL     1      36.358 -23.126 -14.661  0.00  0.00    +0.264 C 
ATOM     34  C   UNL     1      35.893 -23.765 -12.281  0.00  0.00    +0.111 C 
ATOM     35  H   UNL     1      34.549 -23.734 -13.893  0.00  0.00    +0.150 HD
ENDBRANCH  28  33
ENDBRANCH  24  26
ENDBRANCH   2  24
TORSDOF 6
ENDMDL
MODEL 5
REMARK VINA RESULT:     -11.8      3.656      5.584
REMARK  Name = 216239
REMARK  6 active torsions:
REMARK  status: ('A' for Active; 'I' for Inactive)
REMARK    1  A    between atoms: C_1  and  N_9
REMARK    2  A    between atoms: C_2  and  O_24
REMARK    3  A    between atoms: N_8  and  C_14
REMARK    4  A    between atoms: C_15  and  C_23
REMARK    5  A    between atoms: O_24  and  C_26
REMARK    6  A    between atoms: C_28  and  C_33
REMARK                            x       y       z     vdW  Elec       q    Type
REMARK                         _______ _______ _______ _____ _____    ______ ____
ROOT
ATOM      1  C   UNL     1      35.412 -18.770 -21.358  0.00  0.00    +0.052 C 
ATOM      2  C   UNL     1      36.334 -20.962 -19.938  0.00  0.00    +0.145 C 
ATOM      3  C   UNL     1      34.533 -19.792 -21.044  0.00  0.00    +0.018 C 
ATOM      4  C   UNL     1      36.743 -18.819 -20.977  0.00  0.00    +0.018 C 
ATOM      5  C   UNL     1      34.997 -20.896 -20.328  0.00  0.00    +0.039 C 
ATOM      6  C   UNL     1      37.208 -19.924 -20.263  0.00  0.00    +0.039 C 
ENDROOT
BRANCH   1   9
ATOM      7  O   UNL     1      34.574 -16.068 -20.400  0.00  0.00    -0.252 OA
ATOM      8  N   UNL     1      34.147 -15.555 -22.646  0.00  0.00    -0.268 N 
ATOM      9  N   UNL     1      34.940 -17.651 -22.083  0.00  0.00    -0.268 N 
ATOM     10  C   UNL     1      34.558 -16.395 -21.582  0.00  0.00    +0.308 C 
ATOM     11  H   UNL     1      34.185 -15.955 -23.545  0.00  0.00    +0.156 HD
ATOM     12  H   UNL     1      34.872 -17.765 -23.058  0.00  0.00    +0.156 HD
BRANCH   8  14
ATOM     13 CL   UNL     1      32.246  -9.962 -22.445  0.00  0.00    -0.082 Cl
ATOM     14  C   UNL     1      33.692 -14.237 -22.590  0.00  0.00    +0.052 C 
ATOM     15  C   UNL     1      32.450 -12.498 -21.466  0.00  0.00    +0.083 C 
ATOM     16  C   UNL     1      32.903 -13.816 -21.521  0.00  0.00    +0.019 C 
ATOM     17  C   UNL     1      34.029 -13.341 -23.605  0.00  0.00    +0.016 C 
ATOM     18  C   UNL     1      32.786 -11.601 -22.480  0.00  0.00    +0.062 C 
ATOM     19  C   UNL     1      33.577 -12.023 -23.549  0.00  0.00    +0.013 C 
BRANCH  15  23
ATOM     20  F   UNL     1      32.019 -10.922 -19.718  0.00  0.00    -0.166 F 
ATOM     21  F   UNL     1      30.297 -11.881 -20.624  0.00  0.00    -0.166 F 
ATOM     22  F   UNL     1      31.602 -13.015 -19.305  0.00  0.00    -0.166 F 
ATOM     23  C   UNL     1      31.607 -12.084 -20.302  0.00  0.00    +0.419 C 
ENDBRANCH  15  23
ENDBRANCH   8  14
ENDBRANCH   1   9
BRANCH   2  24
ATOM     24  O   UNL     1      36.788 -22.040 -19.241  0.00  0.00    -0.453 OA
BRANCH  24  26
ATOM     25  N   UNL     1      34.903 -22.957 -15.653  0.00  0.00    -0.239 NA
ATOM     26  C   UNL     1      36.159 -22.345 -18.046  0.00  0.00    +0.149 C 
ATOM     27  C   UNL     1      34.812 -22.638 -18.048  0.00  0.00    +0.061 C 
ATOM     28  C   UNL     1      34.231 -22.938 -16.827  0.00  0.00    +0.137 C 
ATOM     29  C   UNL     1      36.895 -22.348 -16.880  0.00  0.00    +0.058 C 
ATOM     30  C   UNL     1      36.220 -22.660 -15.710  0.00  0.00    +0.102 C 
BRANCH  28  33
ATOM     31  O   UNL     1      32.041 -22.928 -17.663  0.00  0.00    -0.268 OA
ATOM     32  N   UNL     1      32.386 -23.967 -15.619  0.00  0.00    -0.298 N 
ATOM     33  C   UNL     1      32.816 -23.259 -16.748  0.00  0.00    +0.264 C 
ATOM     34  C   UNL     1      31.016 -24.378 -15.408  0.00  0.00    +0.111 C 
ATOM     35  H   UNL     1      33.052 -24.197 -14.931  0.00  0.00    +0.150 HD
ENDBRANCH  28  33
ENDBRANCH  24  26
ENDBRANCH   2  24
TORSDOF 6
ENDMDL
MODEL 6
REMARK VINA RESULT:     -11.8      5.874     11.878
REMARK  Name = 216239
REMARK  6 active torsions:
REMARK  status: ('A' for Active; 'I' for Inactive)
REMARK    1  A    between atoms: C_1  and  N_9
REMARK    2  A    between atoms: C_2  and  O_24
REMARK    3  A    between atoms: N_8  and  C_14
REMARK    4  A    between atoms: C_15  and  C_23
REMARK    5  A    between atoms: O_24  and  C_26
REMARK    6  A    between atoms: C_28  and  C_33
REMARK                            x       y       z     vdW  Elec       q    Type
REMARK                         _______ _______ _______ _____ _____    ______ ____
ROOT
ATOM      1  C   UNL     1      35.695 -21.042 -19.693  0.00  0.00    +0.052 C 
ATOM      2  C   UNL     1      35.734 -19.085 -21.653  0.00  0.00    +0.145 C 
ATOM      3  C   UNL     1      34.525 -20.735 -20.366  0.00  0.00    +0.018 C 
ATOM      4  C   UNL     1      36.885 -20.392 -19.977  0.00  0.00    +0.018 C 
ATOM      5  C   UNL     1      34.545 -19.749 -21.354  0.00  0.00    +0.039 C 
ATOM      6  C   UNL     1      36.904 -19.405 -20.964  0.00  0.00    +0.039 C 
ENDROOT
BRANCH   1   9
ATOM      7  O   UNL     1      37.118 -21.171 -17.071  0.00  0.00    -0.252 OA
ATOM      8  N   UNL     1      36.069 -23.242 -16.757  0.00  0.00    -0.268 N 
ATOM      9  N   UNL     1      35.675 -22.041 -18.692  0.00  0.00    -0.268 N 
ATOM     10  C   UNL     1      36.367 -22.054 -17.469  0.00  0.00    +0.308 C 
ATOM     11  H   UNL     1      35.448 -23.862 -17.203  0.00  0.00    +0.156 HD
ATOM     12  H   UNL     1      35.107 -22.824 -18.874  0.00  0.00    +0.156 HD
BRANCH   8  14
ATOM     13 CL   UNL     1      38.106 -24.984 -11.490  0.00  0.00    -0.082 Cl
ATOM     14  C   UNL     1      36.540 -23.651 -15.510  0.00  0.00    +0.052 C 
ATOM     15  C   UNL     1      36.132 -24.179 -13.188  0.00  0.00    +0.083 C 
ATOM     16  C   UNL     1      35.660 -23.769 -14.435  0.00  0.00    +0.019 C 
ATOM     17  C   UNL     1      37.894 -23.943 -15.339  0.00  0.00    +0.016 C 
ATOM     18  C   UNL     1      37.485 -24.471 -13.016  0.00  0.00    +0.062 C 
ATOM     19  C   UNL     1      38.366 -24.354 -14.092  0.00  0.00    +0.013 C 
BRANCH  15  23
ATOM     20  F   UNL     1      35.094 -25.546 -11.523  0.00  0.00    -0.166 F 
ATOM     21  F   UNL     1      35.433 -23.465 -11.015  0.00  0.00    -0.166 F 
ATOM     22  F   UNL     1      33.881 -23.995 -12.444  0.00  0.00    -0.166 F 
ATOM     23  C   UNL     1      35.156 -24.295 -12.062  0.00  0.00    +0.419 C 
ENDBRANCH  15  23
ENDBRANCH   8  14
ENDBRANCH   1   9
BRANCH   2  24
ATOM     24  O   UNL     1      35.752 -18.122 -22.614  0.00  0.00    -0.453 OA
BRANCH  24  26
ATOM     25  N   UNL     1      33.885 -14.508 -21.761  0.00  0.00    -0.239 NA
ATOM     26  C   UNL     1      35.131 -16.917 -22.330  0.00  0.00    +0.149 C 
ATOM     27  C   UNL     1      34.870 -16.035 -23.357  0.00  0.00    +0.061 C 
ATOM     28  C   UNL     1      34.245 -14.845 -23.020  0.00  0.00    +0.137 C 
ATOM     29  C   UNL     1      34.786 -16.628 -21.027  0.00  0.00    +0.058 C 
ATOM     30  C   UNL     1      34.166 -15.410 -20.795  0.00  0.00    +0.102 C 
BRANCH  28  33
ATOM     31  O   UNL     1      34.090 -12.649 -23.828  0.00  0.00    -0.268 OA
ATOM     32  N   UNL     1      33.488 -14.353 -25.280  0.00  0.00    -0.298 N 
ATOM     33  C   UNL     1      33.936 -13.864 -24.047  0.00  0.00    +0.264 C 
ATOM     34  C   UNL     1      33.163 -13.506 -26.405  0.00  0.00    +0.111 C 
ATOM     35  H   UNL     1      33.388 -15.327 -25.387  0.00  0.00    +0.150 HD
ENDBRANCH  28  33
ENDBRANCH  24  26
ENDBRANCH   2  24
TORSDOF 6
ENDMDL
MODEL 7
REMARK VINA RESULT:     -11.6      4.166      7.217
REMARK  Name = 216239
REMARK  6 active torsions:
REMARK  status: ('A' for Active; 'I' for Inactive)
REMARK    1  A    between atoms: C_1  and  N_9
REMARK    2  A    between atoms: C_2  and  O_24
REMARK    3  A    between atoms: N_8  and  C_14
REMARK    4  A    between atoms: C_15  and  C_23
REMARK    5  A    between atoms: O_24  and  C_26
REMARK    6  A    between atoms: C_28  and  C_33
REMARK                            x       y       z     vdW  Elec       q    Type
REMARK                         _______ _______ _______ _____ _____    ______ ____
ROOT
ATOM      1  C   UNL     1      34.915 -16.688 -22.907  0.00  0.00    +0.052 C 
ATOM      2  C   UNL     1      35.481 -19.131 -21.731  0.00  0.00    +0.145 C 
ATOM      3  C   UNL     1      35.172 -16.742 -21.548  0.00  0.00    +0.018 C 
ATOM      4  C   UNL     1      34.935 -17.829 -23.692  0.00  0.00    +0.018 C 
ATOM      5  C   UNL     1      35.457 -17.973 -20.956  0.00  0.00    +0.039 C 
ATOM      6  C   UNL     1      35.219 -19.060 -23.099  0.00  0.00    +0.039 C 
ENDROOT
BRANCH   1   9
ATOM      7  O   UNL     1      34.636 -13.979 -21.681  0.00  0.00    -0.252 OA
ATOM      8  N   UNL     1      34.209 -13.193 -23.846  0.00  0.00    -0.268 N 
ATOM      9  N   UNL     1      34.626 -15.440 -23.508  0.00  0.00    -0.268 N 
ATOM     10  C   UNL     1      34.506 -14.188 -22.882  0.00  0.00    +0.308 C 
ATOM     11  H   UNL     1      34.132 -13.509 -24.776  0.00  0.00    +0.156 HD
ATOM     12  H   UNL     1      34.493 -15.450 -24.482  0.00  0.00    +0.156 HD
BRANCH   8  14
ATOM     13 CL   UNL     1      33.403  -7.393 -23.051  0.00  0.00    -0.082 Cl
ATOM     14  C   UNL     1      34.009 -11.826 -23.654  0.00  0.00    +0.052 C 
ATOM     15  C   UNL     1      32.686 -10.007 -22.773  0.00  0.00    +0.083 C 
ATOM     16  C   UNL     1      32.884 -11.374 -22.965  0.00  0.00    +0.019 C 
ATOM     17  C   UNL     1      34.937 -10.910 -24.152  0.00  0.00    +0.016 C 
ATOM     18  C   UNL     1      33.613  -9.091 -23.271  0.00  0.00    +0.062 C 
ATOM     19  C   UNL     1      34.738  -9.543 -23.960  0.00  0.00    +0.013 C 
BRANCH  15  23
ATOM     20  F   UNL     1      30.605 -10.581 -21.741  0.00  0.00    -0.166 F 
ATOM     21  F   UNL     1      31.749  -8.981 -20.826  0.00  0.00    -0.166 F 
ATOM     22  F   UNL     1      30.738  -8.645 -22.721  0.00  0.00    -0.166 F 
ATOM     23  C   UNL     1      31.468  -9.564 -22.027  0.00  0.00    +0.419 C 
ENDBRANCH  15  23
ENDBRANCH   8  14
ENDBRANCH   1   9
BRANCH   2  24
ATOM     24  O   UNL     1      35.757 -20.332 -21.152  0.00  0.00    -0.453 OA
BRANCH  24  26
ATOM     25  N   UNL     1      32.912 -21.933 -18.581  0.00  0.00    -0.239 NA
ATOM     26  C   UNL     1      34.810 -20.866 -20.296  0.00  0.00    +0.149 C 
ATOM     27  C   UNL     1      35.220 -21.667 -19.252  0.00  0.00    +0.061 C 
ATOM     28  C   UNL     1      34.233 -22.176 -18.423  0.00  0.00    +0.137 C 
ATOM     29  C   UNL     1      33.476 -20.584 -20.506  0.00  0.00    +0.058 C 
ATOM     30  C   UNL     1      32.568 -21.142 -19.621  0.00  0.00    +0.102 C 
BRANCH  28  33
ATOM     31  O   UNL     1      33.772 -23.855 -16.852  0.00  0.00    -0.268 OA
ATOM     32  N   UNL     1      35.878 -22.887 -16.776  0.00  0.00    -0.298 N 
ATOM     33  C   UNL     1      34.587 -23.028 -17.300  0.00  0.00    +0.264 C 
ATOM     34  C   UNL     1      36.385 -23.678 -15.677  0.00  0.00    +0.111 C 
ATOM     35  H   UNL     1      36.473 -22.213 -17.177  0.00  0.00    +0.150 HD
ENDBRANCH  28  33
ENDBRANCH  24  26
ENDBRANCH   2  24
TORSDOF 6
ENDMDL
MODEL 8
REMARK VINA RESULT:     -11.5      5.232     11.122
REMARK  Name = 216239
REMARK  6 active torsions:
REMARK  status: ('A' for Active; 'I' for Inactive)
REMARK    1  A    between atoms: C_1  and  N_9
REMARK    2  A    between atoms: C_2  and  O_24
REMARK    3  A    between atoms: N_8  and  C_14
REMARK    4  A    between atoms: C_15  and  C_23
REMARK    5  A    between atoms: O_24  and  C_26
REMARK    6  A    between atoms: C_28  and  C_33
REMARK                            x       y       z     vdW  Elec       q    Type
REMARK                         _______ _______ _______ _____ _____    ______ ____
ROOT
ATOM      1  C   UNL     1      35.767 -20.552 -20.375  0.00  0.00    +0.052 C 
ATOM      2  C   UNL     1      35.751 -18.943 -22.630  0.00  0.00    +0.145 C 
ATOM      3  C   UNL     1      36.883 -19.789 -20.670  0.00  0.00    +0.018 C 
ATOM      4  C   UNL     1      34.642 -20.528 -21.183  0.00  0.00    +0.018 C 
ATOM      5  C   UNL     1      36.875 -18.978 -21.806  0.00  0.00    +0.039 C 
ATOM      6  C   UNL     1      34.634 -19.719 -22.319  0.00  0.00    +0.039 C 
ENDROOT
BRANCH   1   9
ATOM      7  O   UNL     1      33.496 -21.652 -18.777  0.00  0.00    -0.252 OA
ATOM      8  N   UNL     1      35.118 -22.652 -17.415  0.00  0.00    -0.268 N 
ATOM      9  N   UNL     1      35.775 -21.373 -19.224  0.00  0.00    -0.268 N 
ATOM     10  C   UNL     1      34.673 -21.866 -18.506  0.00  0.00    +0.308 C 
ATOM     11  H   UNL     1      36.095 -22.736 -17.320  0.00  0.00    +0.156 HD
ATOM     12  H   UNL     1      36.661 -21.631 -18.883  0.00  0.00    +0.156 HD
BRANCH   8  14
ATOM     13 CL   UNL     1      31.937 -25.513 -13.338  0.00  0.00    -0.082 Cl
ATOM     14  C   UNL     1      34.359 -23.323 -16.456  0.00  0.00    +0.052 C 
ATOM     15  C   UNL     1      32.210 -23.880 -15.503  0.00  0.00    +0.083 C 
ATOM     16  C   UNL     1      32.969 -23.209 -16.461  0.00  0.00    +0.019 C 
ATOM     17  C   UNL     1      34.991 -24.108 -15.492  0.00  0.00    +0.016 C 
ATOM     18  C   UNL     1      32.842 -24.666 -14.538  0.00  0.00    +0.062 C 
ATOM     19  C   UNL     1      34.232 -24.780 -14.533  0.00  0.00    +0.013 C 
BRANCH  15  23
ATOM     20  F   UNL     1      30.196 -23.214 -14.398  0.00  0.00    -0.166 F 
ATOM     21  F   UNL     1      30.284 -22.918 -16.545  0.00  0.00    -0.166 F 
ATOM     22  F   UNL     1      30.087 -24.926 -15.734  0.00  0.00    -0.166 F 
ATOM     23  C   UNL     1      30.723 -23.734 -15.544  0.00  0.00    +0.419 C 
ENDBRANCH  15  23
ENDBRANCH   8  14
ENDBRANCH   1   9
BRANCH   2  24
ATOM     24  O   UNL     1      35.744 -18.154 -23.739  0.00  0.00    -0.453 OA
BRANCH  24  26
ATOM     25  N   UNL     1      33.388 -14.731 -23.661  0.00  0.00    -0.239 NA
ATOM     26  C   UNL     1      34.958 -17.014 -23.712  0.00  0.00    +0.149 C 
ATOM     27  C   UNL     1      34.745 -16.369 -22.512  0.00  0.00    +0.061 C 
ATOM     28  C   UNL     1      33.954 -15.233 -22.540  0.00  0.00    +0.137 C 
ATOM     29  C   UNL     1      34.408 -16.548 -24.887  0.00  0.00    +0.058 C 
ATOM     30  C   UNL     1      33.630 -15.403 -24.808  0.00  0.00    +0.102 C 
BRANCH  28  33
ATOM     31  O   UNL     1      34.528 -14.460 -20.402  0.00  0.00    -0.268 OA
ATOM     32  N   UNL     1      32.456 -13.831 -21.231  0.00  0.00    -0.298 N 
ATOM     33  C   UNL     1      33.683 -14.499 -21.315  0.00  0.00    +0.264 C 
ATOM     34  C   UNL     1      32.052 -13.041 -20.089  0.00  0.00    +0.111 C 
ATOM     35  H   UNL     1      31.833 -13.904 -21.990  0.00  0.00    +0.150 HD
ENDBRANCH  28  33
ENDBRANCH  24  26
ENDBRANCH   2  24
TORSDOF 6
ENDMDL
MODEL 9
REMARK VINA RESULT:     -11.4      5.685     11.548
REMARK  Name = 216239
REMARK  6 active torsions:
REMARK  status: ('A' for Active; 'I' for Inactive)
REMARK    1  A    between atoms: C_1  and  N_9
REMARK    2  A    between atoms: C_2  and  O_24
REMARK    3  A    between atoms: N_8  and  C_14
REMARK    4  A    between atoms: C_15  and  C_23
REMARK    5  A    between atoms: O_24  and  C_26
REMARK    6  A    between atoms: C_28  and  C_33
REMARK                            x       y       z     vdW  Elec       q    Type
REMARK                         _______ _______ _______ _____ _____    ______ ____
ROOT
ATOM      1  C   UNL     1      35.194 -21.124 -19.769  0.00  0.00    +0.052 C 
ATOM      2  C   UNL     1      35.897 -19.339 -21.767  0.00  0.00    +0.145 C 
ATOM      3  C   UNL     1      34.223 -20.674 -20.646  0.00  0.00    +0.018 C 
ATOM      4  C   UNL     1      36.509 -20.702 -19.867  0.00  0.00    +0.018 C 
ATOM      5  C   UNL     1      34.577 -19.775 -21.653  0.00  0.00    +0.039 C 
ATOM      6  C   UNL     1      36.863 -19.802 -20.873  0.00  0.00    +0.039 C 
ENDROOT
BRANCH   1   9
ATOM      7  O   UNL     1      36.544 -21.745 -17.178  0.00  0.00    -0.252 OA
ATOM      8  N   UNL     1      34.813 -23.278 -16.800  0.00  0.00    -0.268 N 
ATOM      9  N   UNL     1      34.835 -22.036 -18.748  0.00  0.00    -0.268 N 
ATOM     10  C   UNL     1      35.508 -22.291 -17.542  0.00  0.00    +0.308 C 
ATOM     11  H   UNL     1      33.994 -23.629 -17.219  0.00  0.00    +0.156 HD
ATOM     12  H   UNL     1      34.013 -22.555 -18.901  0.00  0.00    +0.156 HD
BRANCH   8  14
ATOM     13 CL   UNL     1      36.136 -25.566 -11.514  0.00  0.00    -0.082 Cl
ATOM     14  C   UNL     1      35.135 -23.820 -15.556  0.00  0.00    +0.052 C 
ATOM     15  C   UNL     1      36.754 -24.803 -14.056  0.00  0.00    +0.083 C 
ATOM     16  C   UNL     1      36.433 -24.262 -15.301  0.00  0.00    +0.019 C 
ATOM     17  C   UNL     1      34.157 -23.921 -14.566  0.00  0.00    +0.016 C 
ATOM     18  C   UNL     1      35.776 -24.904 -13.066  0.00  0.00    +0.062 C 
ATOM     19  C   UNL     1      34.478 -24.462 -13.321  0.00  0.00    +0.013 C 
BRANCH  15  23
ATOM     20  F   UNL     1      38.271 -26.616 -13.693  0.00  0.00    -0.166 F 
ATOM     21  F   UNL     1      39.015 -24.923 -14.827  0.00  0.00    -0.166 F 
ATOM     22  F   UNL     1      38.694 -24.737 -12.684  0.00  0.00    -0.166 F 
ATOM     23  C   UNL     1      38.157 -25.263 -13.822  0.00  0.00    +0.419 C 
ENDBRANCH  15  23
ENDBRANCH   8  14
ENDBRANCH   1   9
BRANCH   2  24
ATOM     24  O   UNL     1      36.241 -18.461 -22.747  0.00  0.00    -0.453 OA
BRANCH  24  26
ATOM     25  N   UNL     1      33.694 -15.254 -23.454  0.00  0.00    -0.239 NA
ATOM     26  C   UNL     1      35.392 -17.393 -22.982  0.00  0.00    +0.149 C 
ATOM     27  C   UNL     1      35.048 -16.563 -21.937  0.00  0.00    +0.061 C 
ATOM     28  C   UNL     1      34.197 -15.508 -22.225  0.00  0.00    +0.137 C 
ATOM     29  C   UNL     1      34.910 -17.183 -24.257  0.00  0.00    +0.058 C 
ATOM     30  C   UNL     1      34.064 -16.101 -24.440  0.00  0.00    +0.102 C 
BRANCH  28  33
ATOM     31  O   UNL     1      34.576 -14.284 -20.261  0.00  0.00    -0.268 OA
ATOM     32  N   UNL     1      32.497 -14.057 -21.262  0.00  0.00    -0.298 N 
ATOM     33  C   UNL     1      33.789 -14.589 -21.175  0.00  0.00    +0.264 C 
ATOM     34  C   UNL     1      31.955 -13.114 -20.309  0.00  0.00    +0.111 C 
ATOM     35  H   UNL     1      31.925 -14.341 -22.012  0.00  0.00    +0.150 HD
ENDBRANCH  28  33
ENDBRANCH  24  26
ENDBRANCH   2  24
TORSDOF 6
ENDMDL
