MODEL 1
REMARK VINA RESULT:     -12.0      0.000      0.000
REMARK  Name = 446399
REMARK  4 active torsions:
REMARK  status: ('A' for Active; 'I' for Inactive)
REMARK    1  A    between atoms: N_3  and  S_21
REMARK    2  A    between atoms: C_4  and  C_10
REMARK    3  A    between atoms: N_9  and  C_16
REMARK    4  A    between atoms: S_21  and  C_25
REMARK                            x       y       z     vdW  Elec       q    Type
REMARK                         _______ _______ _______ _____ _____    ______ ____
ROOT
ATOM      1  O   UNL     1      32.251 -14.015 -19.558  0.00  0.00    -0.275 OA
ATOM      2  N   UNL     1      33.820 -14.843 -21.056  0.00  0.00    -0.277 N 
ATOM      3  N   UNL     1      35.056 -17.200 -22.063  0.00  0.00    -0.152 NA
ATOM      4  C   UNL     1      32.815 -13.965 -20.654  0.00  0.00    +0.225 C 
ATOM      5  C   UNL     1      34.511 -14.812 -22.351  0.00  0.00    +0.113 C 
ATOM      6  C   UNL     1      34.315 -15.863 -20.131  0.00  0.00    +0.113 C 
ATOM      7  C   UNL     1      34.492 -16.189 -23.007  0.00  0.00    +0.117 C 
ATOM      8  C   UNL     1      34.292 -17.243 -20.779  0.00  0.00    +0.117 C 
ENDROOT
BRANCH   4  10
ATOM      9  N   UNL     1      32.406 -10.148 -22.513  0.00  0.00    -0.307 N 
ATOM     10  C   UNL     1      32.415 -12.900 -21.642  0.00  0.00    +0.080 C 
ATOM     11  C   UNL     1      33.667 -12.242 -22.217  0.00  0.00    +0.031 C 
ATOM     12  C   UNL     1      31.541 -11.851 -20.959  0.00  0.00    +0.031 C 
ATOM     13  C   UNL     1      33.313 -11.098 -23.167  0.00  0.00    +0.091 C 
ATOM     14  C   UNL     1      31.189 -10.713 -21.914  0.00  0.00    +0.091 C 
BRANCH   9  16
ATOM     15  N   UNL     1      32.215  -6.167 -23.905  0.00  0.00    -0.242 NA
ATOM     16  C   UNL     1      32.342  -8.827 -22.975  0.00  0.00    +0.051 C 
ATOM     17  C   UNL     1      33.510  -8.108 -23.273  0.00  0.00    +0.035 C 
ATOM     18  C   UNL     1      31.109  -8.182 -23.154  0.00  0.00    +0.035 C 
ATOM     19  C   UNL     1      33.394  -6.804 -23.727  0.00  0.00    +0.100 C 
ATOM     20  C   UNL     1      31.100  -6.874 -23.614  0.00  0.00    +0.100 C 
ENDBRANCH   9  16
ENDBRANCH   4  10
BRANCH   3  21
ATOM     21  S   UNL     1      35.417 -18.726 -22.752  0.00  0.00    +0.063 S 
ATOM     22  O   UNL     1      36.852 -18.884 -22.825  0.00  0.00    -0.153 OA
ATOM     23  O   UNL     1      34.583 -18.922 -23.918  0.00  0.00    -0.153 OA
BRANCH  21  25
ATOM     24 CL   UNL     1      33.738 -23.953 -16.305  0.00  0.00    -0.082 Cl
ATOM     25  C   UNL     1      34.821 -19.788 -21.474  0.00  0.00    +0.122 C 
ATOM     26  C   UNL     1      35.726 -20.383 -20.610  0.00  0.00    +0.020 C 
ATOM     27  C   UNL     1      33.461 -20.007 -21.356  0.00  0.00    +0.020 C 
ATOM     28  C   UNL     1      35.267 -21.231 -19.588  0.00  0.00    +0.001 C 
ATOM     29  C   UNL     1      33.878 -21.465 -19.454  0.00  0.00    +0.001 C 
ATOM     30  C   UNL     1      32.989 -20.846 -20.346  0.00  0.00    +0.001 C 
ATOM     31  C   UNL     1      36.158 -21.849 -18.695  0.00  0.00    +0.001 C 
ATOM     32  C   UNL     1      33.420 -22.312 -18.431  0.00  0.00    +0.011 C 
ATOM     33  C   UNL     1      35.685 -22.688 -17.685  0.00  0.00    +0.011 C 
ATOM     34  C   UNL     1      34.318 -22.919 -17.554  0.00  0.00    +0.058 C 
ENDBRANCH  21  25
ENDBRANCH   3  21
TORSDOF 4
ENDMDL
MODEL 2
REMARK VINA RESULT:     -11.6      4.924     11.848
REMARK  Name = 446399
REMARK  4 active torsions:
REMARK  status: ('A' for Active; 'I' for Inactive)
REMARK    1  A    between atoms: N_3  and  S_21
REMARK    2  A    between atoms: C_4  and  C_10
REMARK    3  A    between atoms: N_9  and  C_16
REMARK    4  A    between atoms: S_21  and  C_25
REMARK                            x       y       z     vdW  Elec       q    Type
REMARK                         _______ _______ _______ _____ _____    ______ ____
ROOT
ATOM      1  O   UNL     1      32.237 -21.943 -17.935  0.00  0.00    -0.275 OA
ATOM      2  N   UNL     1      34.062 -21.865 -19.370  0.00  0.00    -0.277 N 
ATOM      3  N   UNL     1      35.540 -20.226 -21.166  0.00  0.00    -0.152 NA
ATOM      4  C   UNL     1      33.396 -22.265 -18.213  0.00  0.00    +0.225 C 
ATOM      5  C   UNL     1      35.437 -22.229 -19.730  0.00  0.00    +0.113 C 
ATOM      6  C   UNL     1      33.363 -21.069 -20.380  0.00  0.00    +0.113 C 
ATOM      7  C   UNL     1      36.247 -20.987 -20.093  0.00  0.00    +0.117 C 
ATOM      8  C   UNL     1      34.164 -19.824 -20.742  0.00  0.00    +0.117 C 
ENDROOT
BRANCH   4  10
ATOM      9  N   UNL     1      35.241 -23.671 -14.633  0.00  0.00    -0.307 N 
ATOM     10  C   UNL     1      34.167 -23.142 -17.260  0.00  0.00    +0.080 C 
ATOM     11  C   UNL     1      33.264 -23.545 -16.097  0.00  0.00    +0.031 C 
ATOM     12  C   UNL     1      35.392 -22.398 -16.736  0.00  0.00    +0.031 C 
ATOM     13  C   UNL     1      34.023 -24.371 -15.058  0.00  0.00    +0.091 C 
ATOM     14  C   UNL     1      36.148 -23.230 -15.703  0.00  0.00    +0.091 C 
BRANCH   9  16
ATOM     15  N   UNL     1      36.957 -24.581 -10.885  0.00  0.00    -0.242 NA
ATOM     16  C   UNL     1      35.810 -23.973 -13.390  0.00  0.00    +0.051 C 
ATOM     17  C   UNL     1      37.142 -23.635 -13.102  0.00  0.00    +0.035 C 
ATOM     18  C   UNL     1      35.066 -24.623 -12.393  0.00  0.00    +0.035 C 
ATOM     19  C   UNL     1      37.658 -23.956 -11.857  0.00  0.00    +0.100 C 
ATOM     20  C   UNL     1      35.676 -24.899 -11.179  0.00  0.00    +0.100 C 
ENDBRANCH   9  16
ENDBRANCH   4  10
BRANCH   3  21
ATOM     21  S   UNL     1      36.461 -18.996 -21.922  0.00  0.00    +0.063 S 
ATOM     22  O   UNL     1      36.482 -19.231 -23.349  0.00  0.00    -0.153 OA
ATOM     23  O   UNL     1      37.688 -18.806 -21.178  0.00  0.00    -0.153 OA
BRANCH  21  25
ATOM     24 CL   UNL     1      31.536 -12.113 -21.677  0.00  0.00    -0.082 Cl
ATOM     25  C   UNL     1      35.421 -17.602 -21.619  0.00  0.00    +0.122 C 
ATOM     26  C   UNL     1      35.037 -16.799 -22.680  0.00  0.00    +0.020 C 
ATOM     27  C   UNL     1      35.006 -17.337 -20.327  0.00  0.00    +0.020 C 
ATOM     28  C   UNL     1      34.209 -15.687 -22.455  0.00  0.00    +0.001 C 
ATOM     29  C   UNL     1      33.776 -15.402 -21.138  0.00  0.00    +0.001 C 
ATOM     30  C   UNL     1      34.183 -16.237 -20.086  0.00  0.00    +0.001 C 
ATOM     31  C   UNL     1      33.802 -14.852 -23.509  0.00  0.00    +0.001 C 
ATOM     32  C   UNL     1      32.947 -14.290 -20.914  0.00  0.00    +0.011 C 
ATOM     33  C   UNL     1      32.979 -13.751 -23.267  0.00  0.00    +0.011 C 
ATOM     34  C   UNL     1      32.553 -13.471 -21.972  0.00  0.00    +0.058 C 
ENDBRANCH  21  25
ENDBRANCH   3  21
TORSDOF 4
ENDMDL
MODEL 3
REMARK VINA RESULT:     -11.6      4.542      7.466
REMARK  Name = 446399
REMARK  4 active torsions:
REMARK  status: ('A' for Active; 'I' for Inactive)
REMARK    1  A    between atoms: N_3  and  S_21
REMARK    2  A    between atoms: C_4  and  C_10
REMARK    3  A    between atoms: N_9  and  C_16
REMARK    4  A    between atoms: S_21  and  C_25
REMARK                            x       y       z     vdW  Elec       q    Type
REMARK                         _______ _______ _______ _____ _____    ______ ____
ROOT
ATOM      1  O   UNL     1      32.650  -5.446 -20.915  0.00  0.00    -0.275 OA
ATOM      2  N   UNL     1      32.653  -7.690 -21.516  0.00  0.00    -0.277 N 
ATOM      3  N   UNL     1      31.963 -10.321 -20.682  0.00  0.00    -0.152 NA
ATOM      4  C   UNL     1      32.527  -6.326 -21.772  0.00  0.00    +0.225 C 
ATOM      5  C   UNL     1      32.513  -8.760 -22.511  0.00  0.00    +0.113 C 
ATOM      6  C   UNL     1      33.017  -8.153 -20.177  0.00  0.00    +0.113 C 
ATOM      7  C   UNL     1      31.534  -9.825 -22.025  0.00  0.00    +0.117 C 
ATOM      8  C   UNL     1      32.039  -9.213 -19.683  0.00  0.00    +0.117 C 
ENDROOT
BRANCH   4  10
ATOM      9  N   UNL     1      32.659  -4.236 -25.489  0.00  0.00    -0.307 N 
ATOM     10  C   UNL     1      32.220  -5.932 -23.195  0.00  0.00    +0.080 C 
ATOM     11  C   UNL     1      33.486  -6.047 -24.039  0.00  0.00    +0.031 C 
ATOM     12  C   UNL     1      31.690  -4.501 -23.240  0.00  0.00    +0.031 C 
ATOM     13  C   UNL     1      33.247  -5.581 -25.475  0.00  0.00    +0.091 C 
ATOM     14  C   UNL     1      31.449  -4.043 -24.677  0.00  0.00    +0.091 C 
BRANCH   9  16
ATOM     15  N   UNL     1      33.103  -1.814 -28.918  0.00  0.00    -0.242 NA
ATOM     16  C   UNL     1      32.807  -3.432 -26.626  0.00  0.00    +0.051 C 
ATOM     17  C   UNL     1      31.781  -2.568 -27.039  0.00  0.00    +0.035 C 
ATOM     18  C   UNL     1      33.984  -3.468 -27.389  0.00  0.00    +0.035 C 
ATOM     19  C   UNL     1      31.976  -1.793 -28.172  0.00  0.00    +0.100 C 
ATOM     20  C   UNL     1      34.081  -2.653 -28.506  0.00  0.00    +0.100 C 
ENDBRANCH   9  16
ENDBRANCH   4  10
BRANCH   3  21
ATOM     21  S   UNL     1      31.176 -11.743 -20.140  0.00  0.00    +0.063 S 
ATOM     22  O   UNL     1      29.841 -11.784 -20.694  0.00  0.00    -0.153 OA
ATOM     23  O   UNL     1      31.400 -11.888 -18.718  0.00  0.00    -0.153 OA
BRANCH  21  25
ATOM     24 CL   UNL     1      35.951 -18.118 -23.014  0.00  0.00    -0.082 Cl
ATOM     25  C   UNL     1      32.144 -12.964 -20.970  0.00  0.00    +0.122 C 
ATOM     26  C   UNL     1      32.699 -14.001 -20.238  0.00  0.00    +0.020 C 
ATOM     27  C   UNL     1      32.330 -12.866 -22.336  0.00  0.00    +0.020 C 
ATOM     28  C   UNL     1      33.471 -14.981 -20.884  0.00  0.00    +0.001 C 
ATOM     29  C   UNL     1      33.671 -14.895 -22.282  0.00  0.00    +0.001 C 
ATOM     30  C   UNL     1      33.094 -13.831 -22.993  0.00  0.00    +0.001 C 
ATOM     31  C   UNL     1      34.048 -16.045 -20.172  0.00  0.00    +0.001 C 
ATOM     32  C   UNL     1      34.443 -15.875 -22.928  0.00  0.00    +0.011 C 
ATOM     33  C   UNL     1      34.813 -17.010 -20.830  0.00  0.00    +0.011 C 
ATOM     34  C   UNL     1      35.010 -16.925 -22.205  0.00  0.00    +0.058 C 
ENDBRANCH  21  25
ENDBRANCH   3  21
TORSDOF 4
ENDMDL
MODEL 4
REMARK VINA RESULT:     -11.3      0.535      1.521
REMARK  Name = 446399
REMARK  4 active torsions:
REMARK  status: ('A' for Active; 'I' for Inactive)
REMARK    1  A    between atoms: N_3  and  S_21
REMARK    2  A    between atoms: C_4  and  C_10
REMARK    3  A    between atoms: N_9  and  C_16
REMARK    4  A    between atoms: S_21  and  C_25
REMARK                            x       y       z     vdW  Elec       q    Type
REMARK                         _______ _______ _______ _____ _____    ______ ____
ROOT
ATOM      1  O   UNL     1      32.080 -14.401 -19.514  0.00  0.00    -0.275 OA
ATOM      2  N   UNL     1      33.749 -15.146 -20.947  0.00  0.00    -0.277 N 
ATOM      3  N   UNL     1      35.097 -17.441 -21.953  0.00  0.00    -0.152 NA
ATOM      4  C   UNL     1      32.702 -14.304 -20.575  0.00  0.00    +0.225 C 
ATOM      5  C   UNL     1      34.508 -15.058 -22.200  0.00  0.00    +0.113 C 
ATOM      6  C   UNL     1      34.218 -16.182 -20.026  0.00  0.00    +0.113 C 
ATOM      7  C   UNL     1      34.559 -16.415 -22.897  0.00  0.00    +0.117 C 
ATOM      8  C   UNL     1      34.265 -17.541 -20.715  0.00  0.00    +0.117 C 
ENDROOT
BRANCH   4  10
ATOM      9  N   UNL     1      32.405 -10.462 -22.404  0.00  0.00    -0.307 N 
ATOM     10  C   UNL     1      32.329 -13.219 -21.553  0.00  0.00    +0.080 C 
ATOM     11  C   UNL     1      33.598 -12.600 -22.134  0.00  0.00    +0.031 C 
ATOM     12  C   UNL     1      31.497 -12.146 -20.854  0.00  0.00    +0.031 C 
ATOM     13  C   UNL     1      33.275 -11.437 -23.072  0.00  0.00    +0.091 C 
ATOM     14  C   UNL     1      31.175 -10.990 -21.799  0.00  0.00    +0.091 C 
BRANCH   9  16
ATOM     15  N   UNL     1      32.337  -6.467 -23.769  0.00  0.00    -0.242 NA
ATOM     16  C   UNL     1      32.383  -9.136 -22.856  0.00  0.00    +0.051 C 
ATOM     17  C   UNL     1      31.171  -8.493 -23.151  0.00  0.00    +0.035 C 
ATOM     18  C   UNL     1      33.572  -8.411 -23.031  0.00  0.00    +0.035 C 
ATOM     19  C   UNL     1      31.202  -7.180 -23.595  0.00  0.00    +0.100 C 
ATOM     20  C   UNL     1      33.496  -7.103 -23.480  0.00  0.00    +0.100 C 
ENDBRANCH   9  16
ENDBRANCH   4  10
BRANCH   3  21
ATOM     21  S   UNL     1      35.532 -18.937 -22.665  0.00  0.00    +0.063 S 
ATOM     22  O   UNL     1      36.895 -18.853 -23.142  0.00  0.00    -0.153 OA
ATOM     23  O   UNL     1      34.461 -19.370 -23.537  0.00  0.00    -0.153 OA
BRANCH  21  25
ATOM     24 CL   UNL     1      34.271 -23.988 -15.988  0.00  0.00    -0.082 Cl
ATOM     25  C   UNL     1      35.522 -19.972 -21.236  0.00  0.00    +0.122 C 
ATOM     26  C   UNL     1      34.322 -20.501 -20.791  0.00  0.00    +0.020 C 
ATOM     27  C   UNL     1      36.713 -20.238 -20.585  0.00  0.00    +0.020 C 
ATOM     28  C   UNL     1      34.297 -21.327 -19.654  0.00  0.00    +0.001 C 
ATOM     29  C   UNL     1      35.507 -21.609 -18.977  0.00  0.00    +0.001 C 
ATOM     30  C   UNL     1      36.706 -21.057 -19.455  0.00  0.00    +0.001 C 
ATOM     31  C   UNL     1      33.097 -21.880 -19.177  0.00  0.00    +0.001 C 
ATOM     32  C   UNL     1      35.482 -22.436 -17.842  0.00  0.00    +0.011 C 
ATOM     33  C   UNL     1      33.091 -22.698 -18.047  0.00  0.00    +0.011 C 
ATOM     34  C   UNL     1      34.282 -22.975 -17.380  0.00  0.00    +0.058 C 
ENDBRANCH  21  25
ENDBRANCH   3  21
TORSDOF 4
ENDMDL
MODEL 5
REMARK VINA RESULT:     -11.0      3.031      4.635
REMARK  Name = 446399
REMARK  4 active torsions:
REMARK  status: ('A' for Active; 'I' for Inactive)
REMARK    1  A    between atoms: N_3  and  S_21
REMARK    2  A    between atoms: C_4  and  C_10
REMARK    3  A    between atoms: N_9  and  C_16
REMARK    4  A    between atoms: S_21  and  C_25
REMARK                            x       y       z     vdW  Elec       q    Type
REMARK                         _______ _______ _______ _____ _____    ______ ____
ROOT
ATOM      1  O   UNL     1      31.388 -10.747 -21.152  0.00  0.00    -0.275 OA
ATOM      2  N   UNL     1      32.958 -11.562 -22.658  0.00  0.00    -0.277 N 
ATOM      3  N   UNL     1      33.591 -13.697 -24.429  0.00  0.00    -0.152 NA
ATOM      4  C   UNL     1      32.223 -10.551 -22.039  0.00  0.00    +0.225 C 
ATOM      5  C   UNL     1      33.957 -11.364 -23.715  0.00  0.00    +0.113 C 
ATOM      6  C   UNL     1      32.812 -12.949 -22.215  0.00  0.00    +0.113 C 
ATOM      7  C   UNL     1      33.677 -12.282 -24.901  0.00  0.00    +0.117 C 
ATOM      8  C   UNL     1      32.525 -13.870 -23.395  0.00  0.00    +0.117 C 
ENDROOT
BRANCH   4  10
ATOM      9  N   UNL     1      31.725  -6.364 -22.685  0.00  0.00    -0.307 N 
ATOM     10  C   UNL     1      32.487  -9.143 -22.508  0.00  0.00    +0.080 C 
ATOM     11  C   UNL     1      32.578  -8.214 -21.300  0.00  0.00    +0.031 C 
ATOM     12  C   UNL     1      31.368  -8.681 -23.438  0.00  0.00    +0.031 C 
ATOM     13  C   UNL     1      32.764  -6.758 -21.726  0.00  0.00    +0.091 C 
ATOM     14  C   UNL     1      31.563  -7.227 -23.863  0.00  0.00    +0.091 C 
BRANCH   9  16
ATOM     15  N   UNL     1      30.740  -2.282 -23.119  0.00  0.00    -0.242 NA
ATOM     16  C   UNL     1      31.399  -5.010 -22.828  0.00  0.00    +0.051 C 
ATOM     17  C   UNL     1      30.445  -4.403 -21.997  0.00  0.00    +0.035 C 
ATOM     18  C   UNL     1      32.015  -4.218 -23.810  0.00  0.00    +0.035 C 
ATOM     19  C   UNL     1      30.157  -3.060 -22.180  0.00  0.00    +0.100 C 
ATOM     20  C   UNL     1      31.657  -2.883 -23.912  0.00  0.00    +0.100 C 
ENDBRANCH   9  16
ENDBRANCH   4  10
BRANCH   3  21
ATOM     21  S   UNL     1      33.614 -14.885 -25.663  0.00  0.00    +0.063 S 
ATOM     22  O   UNL     1      34.682 -14.582 -26.589  0.00  0.00    -0.153 OA
ATOM     23  O   UNL     1      32.261 -15.103 -26.128  0.00  0.00    -0.153 OA
BRANCH  21  25
ATOM     24 CL   UNL     1      36.200 -20.857 -20.247  0.00  0.00    -0.082 Cl
ATOM     25  C   UNL     1      34.099 -16.296 -24.721  0.00  0.00    +0.122 C 
ATOM     26  C   UNL     1      34.569 -16.121 -23.430  0.00  0.00    +0.020 C 
ATOM     27  C   UNL     1      34.000 -17.553 -25.287  0.00  0.00    +0.020 C 
ATOM     28  C   UNL     1      34.959 -17.234 -22.666  0.00  0.00    +0.001 C 
ATOM     29  C   UNL     1      34.864 -18.528 -23.232  0.00  0.00    +0.001 C 
ATOM     30  C   UNL     1      34.383 -18.670 -24.543  0.00  0.00    +0.001 C 
ATOM     31  C   UNL     1      35.440 -17.091 -21.355  0.00  0.00    +0.001 C 
ATOM     32  C   UNL     1      35.253 -19.641 -22.469  0.00  0.00    +0.011 C 
ATOM     33  C   UNL     1      35.822 -18.208 -20.611  0.00  0.00    +0.011 C 
ATOM     34  C   UNL     1      35.729 -19.481 -21.168  0.00  0.00    +0.058 C 
ENDBRANCH  21  25
ENDBRANCH   3  21
TORSDOF 4
ENDMDL
MODEL 6
REMARK VINA RESULT:     -10.8      3.725      6.160
REMARK  Name = 446399
REMARK  4 active torsions:
REMARK  status: ('A' for Active; 'I' for Inactive)
REMARK    1  A    between atoms: N_3  and  S_21
REMARK    2  A    between atoms: C_4  and  C_10
REMARK    3  A    between atoms: N_9  and  C_16
REMARK    4  A    between atoms: S_21  and  C_25
REMARK                            x       y       z     vdW  Elec       q    Type
REMARK                         _______ _______ _______ _____ _____    ______ ____
ROOT
ATOM      1  O   UNL     1      36.960 -18.515 -20.535  0.00  0.00    -0.275 OA
ATOM      2  N   UNL     1      35.335 -20.174 -20.570  0.00  0.00    -0.277 N 
ATOM      3  N   UNL     1      34.159 -22.309 -19.101  0.00  0.00    -0.152 NA
ATOM      4  C   UNL     1      35.834 -18.904 -20.856  0.00  0.00    +0.225 C 
ATOM      5  C   UNL     1      34.002 -20.668 -20.937  0.00  0.00    +0.113 C 
ATOM      6  C   UNL     1      36.186 -21.163 -19.907  0.00  0.00    +0.113 C 
ATOM      7  C   UNL     1      33.293 -21.262 -19.723  0.00  0.00    +0.117 C 
ATOM      8  C   UNL     1      35.485 -21.755 -18.690  0.00  0.00    +0.117 C 
ENDROOT
BRANCH   4  10
ATOM      9  N   UNL     1      34.468 -15.549 -23.108  0.00  0.00    -0.307 N 
ATOM     10  C   UNL     1      34.916 -17.971 -21.604  0.00  0.00    +0.080 C 
ATOM     11  C   UNL     1      35.401 -17.827 -23.044  0.00  0.00    +0.031 C 
ATOM     12  C   UNL     1      34.887 -16.606 -20.923  0.00  0.00    +0.031 C 
ATOM     13  C   UNL     1      34.549 -16.826 -23.825  0.00  0.00    +0.091 C 
ATOM     14  C   UNL     1      34.031 -15.612 -21.706  0.00  0.00    +0.091 C 
BRANCH   9  16
ATOM     15  N   UNL     1      33.601 -12.017 -25.252  0.00  0.00    -0.242 NA
ATOM     16  C   UNL     1      34.181 -14.377 -23.819  0.00  0.00    +0.051 C 
ATOM     17  C   UNL     1      34.291 -13.117 -23.213  0.00  0.00    +0.035 C 
ATOM     18  C   UNL     1      33.773 -14.428 -25.162  0.00  0.00    +0.035 C 
ATOM     19  C   UNL     1      33.996 -11.987 -23.960  0.00  0.00    +0.100 C 
ATOM     20  C   UNL     1      33.501 -13.240 -25.821  0.00  0.00    +0.100 C 
ENDBRANCH   9  16
ENDBRANCH   4  10
BRANCH   3  21
ATOM     21  S   UNL     1      33.388 -23.303 -17.939  0.00  0.00    +0.063 S 
ATOM     22  O   UNL     1      33.305 -24.652 -18.454  0.00  0.00    -0.153 OA
ATOM     23  O   UNL     1      32.213 -22.619 -17.443  0.00  0.00    -0.153 OA
BRANCH  21  25
ATOM     24 CL   UNL     1      38.377 -23.744 -11.113  0.00  0.00    -0.082 Cl
ATOM     25  C   UNL     1      34.607 -23.285 -16.663  0.00  0.00    +0.122 C 
ATOM     26  C   UNL     1      34.288 -23.794 -15.415  0.00  0.00    +0.020 C 
ATOM     27  C   UNL     1      35.859 -22.764 -16.931  0.00  0.00    +0.020 C 
ATOM     28  C   UNL     1      35.248 -23.787 -14.388  0.00  0.00    +0.001 C 
ATOM     29  C   UNL     1      36.534 -23.258 -14.647  0.00  0.00    +0.001 C 
ATOM     30  C   UNL     1      36.824 -22.750 -15.923  0.00  0.00    +0.001 C 
ATOM     31  C   UNL     1      34.957 -24.295 -13.111  0.00  0.00    +0.001 C 
ATOM     32  C   UNL     1      37.494 -23.252 -13.620  0.00  0.00    +0.011 C 
ATOM     33  C   UNL     1      35.923 -24.281 -12.103  0.00  0.00    +0.011 C 
ATOM     34  C   UNL     1      37.188 -23.759 -12.357  0.00  0.00    +0.058 C 
ENDBRANCH  21  25
ENDBRANCH   3  21
TORSDOF 4
ENDMDL
MODEL 7
REMARK VINA RESULT:     -10.8      6.824     13.281
REMARK  Name = 446399
REMARK  4 active torsions:
REMARK  status: ('A' for Active; 'I' for Inactive)
REMARK    1  A    between atoms: N_3  and  S_21
REMARK    2  A    between atoms: C_4  and  C_10
REMARK    3  A    between atoms: N_9  and  C_16
REMARK    4  A    between atoms: S_21  and  C_25
REMARK                            x       y       z     vdW  Elec       q    Type
REMARK                         _______ _______ _______ _____ _____    ______ ____
ROOT
ATOM      1  O   UNL     1      32.707  -9.157 -20.153  0.00  0.00    -0.275 OA
ATOM      2  N   UNL     1      31.459  -7.940 -21.689  0.00  0.00    -0.277 N 
ATOM      3  N   UNL     1      31.064  -5.374 -22.851  0.00  0.00    -0.152 NA
ATOM      4  C   UNL     1      32.119  -9.082 -21.235  0.00  0.00    +0.225 C 
ATOM      5  C   UNL     1      30.751  -7.817 -22.968  0.00  0.00    +0.113 C 
ATOM      6  C   UNL     1      31.376  -6.755 -20.835  0.00  0.00    +0.113 C 
ATOM      7  C   UNL     1      31.214  -6.576 -23.725  0.00  0.00    +0.117 C 
ATOM      8  C   UNL     1      31.844  -5.512 -21.583  0.00  0.00    +0.117 C 
ENDROOT
BRANCH   4  10
ATOM      9  N   UNL     1      33.198 -12.802 -23.021  0.00  0.00    -0.307 N 
ATOM     10  C   UNL     1      32.096 -10.281 -22.147  0.00  0.00    +0.080 C 
ATOM     11  C   UNL     1      31.938 -11.551 -21.315  0.00  0.00    +0.031 C 
ATOM     12  C   UNL     1      33.386 -10.347 -22.961  0.00  0.00    +0.031 C 
ATOM     13  C   UNL     1      31.990 -12.804 -22.188  0.00  0.00    +0.091 C 
ATOM     14  C   UNL     1      33.429 -11.599 -23.834  0.00  0.00    +0.091 C 
BRANCH   9  16
ATOM     15  N   UNL     1      34.710 -16.459 -24.491  0.00  0.00    -0.242 NA
ATOM     16  C   UNL     1      33.700 -14.015 -23.509  0.00  0.00    +0.051 C 
ATOM     17  C   UNL     1      33.356 -14.478 -24.788  0.00  0.00    +0.035 C 
ATOM     18  C   UNL     1      34.561 -14.806 -22.732  0.00  0.00    +0.035 C 
ATOM     19  C   UNL     1      33.879 -15.685 -25.225  0.00  0.00    +0.100 C 
ATOM     20  C   UNL     1      35.031 -15.998 -23.261  0.00  0.00    +0.100 C 
ENDBRANCH   9  16
ENDBRANCH   4  10
BRANCH   3  21
ATOM     21  S   UNL     1      31.219  -3.864 -23.645  0.00  0.00    +0.063 S 
ATOM     22  O   UNL     1      31.763  -2.896 -22.718  0.00  0.00    -0.153 OA
ATOM     23  O   UNL     1      30.002  -3.593 -24.379  0.00  0.00    -0.153 OA
BRANCH  21  25
ATOM     24 CL   UNL     1      36.704  -4.979 -29.999  0.00  0.00    -0.082 Cl
ATOM     25  C   UNL     1      32.481  -4.261 -24.814  0.00  0.00    +0.122 C 
ATOM     26  C   UNL     1      32.465  -3.657 -26.060  0.00  0.00    +0.020 C 
ATOM     27  C   UNL     1      33.465  -5.167 -24.464  0.00  0.00    +0.020 C 
ATOM     28  C   UNL     1      33.463  -3.962 -27.001  0.00  0.00    +0.001 C 
ATOM     29  C   UNL     1      34.477  -4.888 -26.659  0.00  0.00    +0.001 C 
ATOM     30  C   UNL     1      34.464  -5.482 -25.387  0.00  0.00    +0.001 C 
ATOM     31  C   UNL     1      33.475  -3.368 -28.274  0.00  0.00    +0.001 C 
ATOM     32  C   UNL     1      35.475  -5.193 -27.600  0.00  0.00    +0.011 C 
ATOM     33  C   UNL     1      34.474  -3.683 -29.196  0.00  0.00    +0.011 C 
ATOM     34  C   UNL     1      35.472  -4.594 -28.860  0.00  0.00    +0.058 C 
ENDBRANCH  21  25
ENDBRANCH   3  21
TORSDOF 4
ENDMDL
MODEL 8
REMARK VINA RESULT:     -10.0      1.699      2.548
REMARK  Name = 446399
REMARK  4 active torsions:
REMARK  status: ('A' for Active; 'I' for Inactive)
REMARK    1  A    between atoms: N_3  and  S_21
REMARK    2  A    between atoms: C_4  and  C_10
REMARK    3  A    between atoms: N_9  and  C_16
REMARK    4  A    between atoms: S_21  and  C_25
REMARK                            x       y       z     vdW  Elec       q    Type
REMARK                         _______ _______ _______ _____ _____    ______ ____
ROOT
ATOM      1  O   UNL     1      32.207 -12.439 -20.440  0.00  0.00    -0.275 OA
ATOM      2  N   UNL     1      33.519 -13.244 -22.179  0.00  0.00    -0.277 N 
ATOM      3  N   UNL     1      34.419 -15.586 -23.521  0.00  0.00    -0.152 NA
ATOM      4  C   UNL     1      32.648 -12.331 -21.587  0.00  0.00    +0.225 C 
ATOM      5  C   UNL     1      34.061 -13.146 -23.540  0.00  0.00    +0.113 C 
ATOM      6  C   UNL     1      34.021 -14.383 -21.409  0.00  0.00    +0.113 C 
ATOM      7  C   UNL     1      33.846 -14.450 -24.303  0.00  0.00    +0.117 C 
ATOM      8  C   UNL     1      33.802 -15.689 -22.164  0.00  0.00    +0.117 C 
ENDROOT
BRANCH   4  10
ATOM      9  N   UNL     1      32.055  -8.299 -22.849  0.00  0.00    -0.307 N 
ATOM     10  C   UNL     1      32.237 -11.149 -22.428  0.00  0.00    +0.080 C 
ATOM     11  C   UNL     1      33.468 -10.315 -22.771  0.00  0.00    +0.031 C 
ATOM     12  C   UNL     1      31.221 -10.296 -21.672  0.00  0.00    +0.031 C 
ATOM     13  C   UNL     1      33.093  -9.058 -23.556  0.00  0.00    +0.091 C 
ATOM     14  C   UNL     1      30.848  -9.044 -22.464  0.00  0.00    +0.091 C 
BRANCH   9  16
ATOM     15  N   UNL     1      31.629  -4.168 -23.604  0.00  0.00    -0.242 NA
ATOM     16  C   UNL     1      31.913  -6.929 -23.100  0.00  0.00    +0.051 C 
ATOM     17  C   UNL     1      32.728  -6.277 -24.038  0.00  0.00    +0.035 C 
ATOM     18  C   UNL     1      30.953  -6.165 -22.419  0.00  0.00    +0.035 C 
ATOM     19  C   UNL     1      32.548  -4.919 -24.250  0.00  0.00    +0.100 C 
ATOM     20  C   UNL     1      30.852  -4.812 -22.704  0.00  0.00    +0.100 C 
ENDBRANCH   9  16
ENDBRANCH   4  10
BRANCH   3  21
ATOM     21  S   UNL     1      34.562 -17.065 -24.374  0.00  0.00    +0.063 S 
ATOM     22  O   UNL     1      35.625 -16.947 -25.348  0.00  0.00    -0.153 OA
ATOM     23  O   UNL     1      33.242 -17.512 -24.761  0.00  0.00    -0.153 OA
BRANCH  21  25
ATOM     24 CL   UNL     1      36.129 -22.452 -18.033  0.00  0.00    -0.082 Cl
ATOM     25  C   UNL     1      35.133 -18.115 -23.075  0.00  0.00    +0.122 C 
ATOM     26  C   UNL     1      34.225 -18.914 -22.401  0.00  0.00    +0.020 C 
ATOM     27  C   UNL     1      36.477 -18.122 -22.753  0.00  0.00    +0.020 C 
ATOM     28  C   UNL     1      34.663 -19.755 -21.365  0.00  0.00    +0.001 C 
ATOM     29  C   UNL     1      36.036 -19.774 -21.023  0.00  0.00    +0.001 C 
ATOM     30  C   UNL     1      36.930 -18.952 -21.726  0.00  0.00    +0.001 C 
ATOM     31  C   UNL     1      33.768 -20.578 -20.661  0.00  0.00    +0.001 C 
ATOM     32  C   UNL     1      36.475 -20.616 -19.987  0.00  0.00    +0.011 C 
ATOM     33  C   UNL     1      34.222 -21.408 -19.635  0.00  0.00    +0.011 C 
ATOM     34  C   UNL     1      35.572 -21.426 -19.298  0.00  0.00    +0.058 C 
ENDBRANCH  21  25
ENDBRANCH   3  21
TORSDOF 4
ENDMDL
MODEL 9
REMARK VINA RESULT:      -9.8      3.185      4.758
REMARK  Name = 446399
REMARK  4 active torsions:
REMARK  status: ('A' for Active; 'I' for Inactive)
REMARK    1  A    between atoms: N_3  and  S_21
REMARK    2  A    between atoms: C_4  and  C_10
REMARK    3  A    between atoms: N_9  and  C_16
REMARK    4  A    between atoms: S_21  and  C_25
REMARK                            x       y       z     vdW  Elec       q    Type
REMARK                         _______ _______ _______ _____ _____    ______ ____
ROOT
ATOM      1  O   UNL     1      31.109 -10.717 -20.616  0.00  0.00    -0.275 OA
ATOM      2  N   UNL     1      32.680 -11.267 -22.237  0.00  0.00    -0.277 N 
ATOM      3  N   UNL     1      33.420 -13.189 -24.199  0.00  0.00    -0.152 NA
ATOM      4  C   UNL     1      31.887 -10.378 -21.512  0.00  0.00    +0.225 C 
ATOM      5  C   UNL     1      33.614 -10.898 -23.307  0.00  0.00    +0.113 C 
ATOM      6  C   UNL     1      32.672 -12.692 -21.905  0.00  0.00    +0.113 C 
ATOM      7  C   UNL     1      33.364 -11.739 -24.555  0.00  0.00    +0.117 C 
ATOM      8  C   UNL     1      32.417 -13.538 -23.147  0.00  0.00    +0.117 C 
ENDROOT
BRANCH   4  10
ATOM      9  N   UNL     1      32.767  -6.835 -23.719  0.00  0.00    -0.307 N 
ATOM     10  C   UNL     1      32.009  -8.919 -21.871  0.00  0.00    +0.080 C 
ATOM     11  C   UNL     1      31.193  -8.635 -23.130  0.00  0.00    +0.031 C 
ATOM     12  C   UNL     1      33.473  -8.556 -22.105  0.00  0.00    +0.031 C 
ATOM     13  C   UNL     1      31.348  -7.183 -23.583  0.00  0.00    +0.091 C 
ATOM     14  C   UNL     1      33.621  -7.104 -22.553  0.00  0.00    +0.091 C 
BRANCH   9  16
ATOM     15  N   UNL     1      33.888  -3.649 -26.252  0.00  0.00    -0.242 NA
ATOM     16  C   UNL     1      33.139  -5.778 -24.559  0.00  0.00    +0.051 C 
ATOM     17  C   UNL     1      34.311  -5.843 -25.328  0.00  0.00    +0.035 C 
ATOM     18  C   UNL     1      32.351  -4.621 -24.657  0.00  0.00    +0.035 C 
ATOM     19  C   UNL     1      34.635  -4.771 -26.144  0.00  0.00    +0.100 C 
ATOM     20  C   UNL     1      32.762  -3.603 -25.504  0.00  0.00    +0.100 C 
ENDBRANCH   9  16
ENDBRANCH   4  10
BRANCH   3  21
ATOM     21  S   UNL     1      33.495 -14.269 -25.527  0.00  0.00    +0.063 S 
ATOM     22  O   UNL     1      34.559 -13.854 -26.414  0.00  0.00    -0.153 OA
ATOM     23  O   UNL     1      32.154 -14.494 -26.023  0.00  0.00    -0.153 OA
BRANCH  21  25
ATOM     24 CL   UNL     1      36.153 -20.597 -20.569  0.00  0.00    -0.082 Cl
ATOM     25  C   UNL     1      34.022 -15.737 -24.700  0.00  0.00    +0.122 C 
ATOM     26  C   UNL     1      34.382 -15.670 -23.364  0.00  0.00    +0.020 C 
ATOM     27  C   UNL     1      34.065 -16.928 -25.400  0.00  0.00    +0.020 C 
ATOM     28  C   UNL     1      34.803 -16.829 -22.692  0.00  0.00    +0.001 C 
ATOM     29  C   UNL     1      34.853 -18.057 -23.394  0.00  0.00    +0.001 C 
ATOM     30  C   UNL     1      34.481 -18.089 -24.747  0.00  0.00    +0.001 C 
ATOM     31  C   UNL     1      35.175 -16.796 -21.338  0.00  0.00    +0.001 C 
ATOM     32  C   UNL     1      35.274 -19.216 -22.721  0.00  0.00    +0.011 C 
ATOM     33  C   UNL     1      35.592 -17.958 -20.686  0.00  0.00    +0.011 C 
ATOM     34  C   UNL     1      35.641 -19.165 -21.377  0.00  0.00    +0.058 C 
ENDBRANCH  21  25
ENDBRANCH   3  21
TORSDOF 4
ENDMDL
