MODEL 1
REMARK VINA RESULT:     -12.3      0.000      0.000
REMARK  Name = 24821094
REMARK  5 active torsions:
REMARK  status: ('A' for Active; 'I' for Inactive)
REMARK    1  A    between atoms: N_1  and  C_12
REMARK    2  A    between atoms: C_7  and  C_20
REMARK    3  A    between atoms: C_17  and  C_18
REMARK    4  A    between atoms: C_25  and  O_26
REMARK    5  A    between atoms: O_26  and  C_27
REMARK                            x       y       z     vdW  Elec       q    Type
REMARK                         _______ _______ _______ _____ _____    ______ ____
ROOT
ATOM      1  N   UNL     1      33.763 -14.975 -21.861  0.00  0.00    -0.198 N 
ATOM      2  N   UNL     1      34.185 -15.948 -21.033  0.00  0.00    -0.181 NA
ATOM      3  N   UNL     1      33.525 -14.530 -24.228  0.00  0.00    -0.231 NA
ATOM      4  N   UNL     1      34.276 -16.416 -25.580  0.00  0.00    -0.234 NA
ATOM      5  C   UNL     1      33.867 -15.296 -23.181  0.00  0.00    +0.137 C 
ATOM      6  C   UNL     1      34.395 -16.575 -23.221  0.00  0.00    +0.150 C 
ATOM      7  C   UNL     1      34.568 -16.921 -21.868  0.00  0.00    +0.090 C 
ATOM      8  C   UNL     1      34.598 -17.135 -24.478  0.00  0.00    +0.112 C 
ATOM      9  C   UNL     1      33.767 -15.176 -25.390  0.00  0.00    +0.252 C 
ATOM     10  N   UNL     1      35.129 -18.430 -24.623  0.00  0.00    -0.346 N 
ATOM     11  H   UNL     1      35.265 -18.808 -25.523  0.00  0.00    +0.143 HD
ATOM     12  H   UNL     1      35.364 -18.958 -23.827  0.00  0.00    +0.143 HD
ENDROOT
BRANCH   1  15
ATOM     13  O   UNL     1      31.868  -9.272 -21.602  0.00  0.00    -0.270 OA
ATOM     14  N   UNL     1      31.994 -11.591 -21.713  0.00  0.00    -0.274 N 
ATOM     15  C   UNL     1      33.239 -13.675 -21.279  0.00  0.00    +0.117 C 
ATOM     16  C   UNL     1      32.363 -13.916 -20.034  0.00  0.00    +0.025 C 
ATOM     17  C   UNL     1      32.470 -12.843 -22.320  0.00  0.00    +0.115 C 
ATOM     18  C   UNL     1      31.820 -12.597 -19.479  0.00  0.00    +0.023 C 
ATOM     19  C   UNL     1      31.110 -11.787 -20.561  0.00  0.00    +0.094 C 
ATOM     20  C   UNL     1      32.295 -10.298 -22.132  0.00  0.00    +0.249 C 
BRANCH  20  21
ATOM     21  C   UNL     1      33.195 -10.144 -23.293  0.00  0.00    +0.058 C 
ATOM     22  C   UNL     1      34.046  -9.117 -23.316  0.00  0.00    +0.005 C 
ENDBRANCH  20  21
ENDBRANCH   1  15
BRANCH   7  23
ATOM     23  C   UNL     1      35.091 -18.155 -21.339  0.00  0.00    +0.016 C 
ATOM     24  C   UNL     1      34.222 -19.194 -21.008  0.00  0.00    +0.004 C 
ATOM     25  C   UNL     1      36.465 -18.311 -21.160  0.00  0.00    +0.004 C 
ATOM     26  C   UNL     1      34.728 -20.389 -20.496  0.00  0.00    +0.038 C 
ATOM     27  C   UNL     1      36.971 -19.507 -20.649  0.00  0.00    +0.038 C 
ATOM     28  C   UNL     1      36.102 -20.545 -20.317  0.00  0.00    +0.145 C 
BRANCH  28  29
ATOM     29  O   UNL     1      36.595 -21.711 -19.814  0.00  0.00    -0.453 OA
BRANCH  29  30
ATOM     30  C   UNL     1      36.114 -22.138 -18.589  0.00  0.00    +0.145 C 
ATOM     31  C   UNL     1      36.919 -22.047 -17.453  0.00  0.00    +0.037 C 
ATOM     32  C   UNL     1      34.824 -22.661 -18.489  0.00  0.00    +0.037 C 
ATOM     33  C   UNL     1      36.435 -22.479 -16.218  0.00  0.00    +0.003 C 
ATOM     34  C   UNL     1      34.340 -23.092 -17.254  0.00  0.00    +0.003 C 
ATOM     35  C   UNL     1      35.146 -23.002 -16.119  0.00  0.00    +0.000 C 
ENDBRANCH  29  30
ENDBRANCH  28  29
ENDBRANCH   7  23
TORSDOF 5
ENDMDL
MODEL 2
REMARK VINA RESULT:     -11.4      3.793     12.132
REMARK  Name = 24821094
REMARK  5 active torsions:
REMARK  status: ('A' for Active; 'I' for Inactive)
REMARK    1  A    between atoms: N_1  and  C_12
REMARK    2  A    between atoms: C_7  and  C_20
REMARK    3  A    between atoms: C_17  and  C_18
REMARK    4  A    between atoms: C_25  and  O_26
REMARK    5  A    between atoms: O_26  and  C_27
REMARK                            x       y       z     vdW  Elec       q    Type
REMARK                         _______ _______ _______ _____ _____    ______ ____
ROOT
ATOM      1  N   UNL     1      33.119 -12.119 -23.264  0.00  0.00    -0.198 N 
ATOM      2  N   UNL     1      33.088 -10.821 -23.619  0.00  0.00    -0.181 NA
ATOM      3  N   UNL     1      32.556 -13.540 -21.388  0.00  0.00    -0.231 NA
ATOM      4  N   UNL     1      31.636 -12.257 -19.529  0.00  0.00    -0.234 NA
ATOM      5  C   UNL     1      32.646 -12.353 -22.008  0.00  0.00    +0.137 C 
ATOM      6  C   UNL     1      32.276 -11.119 -21.503  0.00  0.00    +0.150 C 
ATOM      7  C   UNL     1      32.573 -10.217 -22.542  0.00  0.00    +0.090 C 
ATOM      8  C   UNL     1      31.754 -11.095 -20.214  0.00  0.00    +0.112 C 
ATOM      9  C   UNL     1      32.038 -13.391 -20.149  0.00  0.00    +0.252 C 
ATOM     10  N   UNL     1      31.348  -9.889 -19.613  0.00  0.00    -0.346 N 
ATOM     11  H   UNL     1      30.981  -9.894 -18.700  0.00  0.00    +0.143 HD
ATOM     12  H   UNL     1      31.430  -9.041 -20.106  0.00  0.00    +0.143 HD
ENDROOT
BRANCH   1  15
ATOM     13  O   UNL     1      35.004 -17.411 -25.412  0.00  0.00    -0.270 OA
ATOM     14  N   UNL     1      33.749 -15.534 -24.858  0.00  0.00    -0.274 N 
ATOM     15  C   UNL     1      33.653 -13.147 -24.243  0.00  0.00    +0.117 C 
ATOM     16  C   UNL     1      33.270 -12.808 -25.697  0.00  0.00    +0.025 C 
ATOM     17  C   UNL     1      33.198 -14.574 -23.889  0.00  0.00    +0.115 C 
ATOM     18  C   UNL     1      33.791 -13.872 -26.667  0.00  0.00    +0.023 C 
ATOM     19  C   UNL     1      33.355 -15.273 -26.244  0.00  0.00    +0.094 C 
ATOM     20  C   UNL     1      34.568 -16.622 -24.573  0.00  0.00    +0.249 C 
BRANCH  20  21
ATOM     21  C   UNL     1      34.948 -16.846 -23.164  0.00  0.00    +0.058 C 
ATOM     22  C   UNL     1      35.341 -18.065 -22.788  0.00  0.00    +0.005 C 
ENDBRANCH  20  21
ENDBRANCH   1  15
BRANCH   7  23
ATOM     23  C   UNL     1      32.380  -8.788 -22.544  0.00  0.00    +0.016 C 
ATOM     24  C   UNL     1      31.140  -8.253 -22.890  0.00  0.00    +0.004 C 
ATOM     25  C   UNL     1      33.434  -7.942 -22.198  0.00  0.00    +0.004 C 
ATOM     26  C   UNL     1      30.954  -6.871 -22.891  0.00  0.00    +0.038 C 
ATOM     27  C   UNL     1      33.247  -6.559 -22.199  0.00  0.00    +0.038 C 
ATOM     28  C   UNL     1      32.007  -6.024 -22.546  0.00  0.00    +0.145 C 
BRANCH  28  29
ATOM     29  O   UNL     1      31.826  -4.675 -22.551  0.00  0.00    -0.453 OA
BRANCH  29  30
ATOM     30  C   UNL     1      31.694  -4.047 -23.777  0.00  0.00    +0.145 C 
ATOM     31  C   UNL     1      30.663  -3.131 -23.985  0.00  0.00    +0.037 C 
ATOM     32  C   UNL     1      32.593  -4.330 -24.807  0.00  0.00    +0.037 C 
ATOM     33  C   UNL     1      30.530  -2.498 -25.222  0.00  0.00    +0.003 C 
ATOM     34  C   UNL     1      32.460  -3.698 -26.042  0.00  0.00    +0.003 C 
ATOM     35  C   UNL     1      31.428  -2.783 -26.250  0.00  0.00    +0.000 C 
ENDBRANCH  29  30
ENDBRANCH  28  29
ENDBRANCH   7  23
TORSDOF 5
ENDMDL
MODEL 3
REMARK VINA RESULT:     -11.1      1.768      9.838
REMARK  Name = 24821094
REMARK  5 active torsions:
REMARK  status: ('A' for Active; 'I' for Inactive)
REMARK    1  A    between atoms: N_1  and  C_12
REMARK    2  A    between atoms: C_7  and  C_20
REMARK    3  A    between atoms: C_17  and  C_18
REMARK    4  A    between atoms: C_25  and  O_26
REMARK    5  A    between atoms: O_26  and  C_27
REMARK                            x       y       z     vdW  Elec       q    Type
REMARK                         _______ _______ _______ _____ _____    ______ ____
ROOT
ATOM      1  N   UNL     1      34.686 -16.829 -21.875  0.00  0.00    -0.198 N 
ATOM      2  N   UNL     1      34.196 -15.749 -21.239  0.00  0.00    -0.181 NA
ATOM      3  N   UNL     1      34.932 -17.703 -24.119  0.00  0.00    -0.231 NA
ATOM      4  N   UNL     1      34.016 -16.178 -25.787  0.00  0.00    -0.234 NA
ATOM      5  C   UNL     1      34.541 -16.778 -23.229  0.00  0.00    +0.137 C 
ATOM      6  C   UNL     1      33.911 -15.576 -23.500  0.00  0.00    +0.150 C 
ATOM      7  C   UNL     1      33.725 -14.989 -22.235  0.00  0.00    +0.090 C 
ATOM      8  C   UNL     1      33.648 -15.287 -24.835  0.00  0.00    +0.112 C 
ATOM      9  C   UNL     1      34.625 -17.315 -25.376  0.00  0.00    +0.252 C 
ATOM     10  N   UNL     1      33.013 -14.089 -25.212  0.00  0.00    -0.346 N 
ATOM     11  H   UNL     1      32.837 -13.904 -26.163  0.00  0.00    +0.143 HD
ATOM     12  H   UNL     1      32.745 -13.437 -24.525  0.00  0.00    +0.143 HD
ENDROOT
BRANCH   1  15
ATOM     13  O   UNL     1      35.290 -22.115 -19.070  0.00  0.00    -0.270 OA
ATOM     14  N   UNL     1      35.361 -20.368 -20.603  0.00  0.00    -0.274 N 
ATOM     15  C   UNL     1      35.320 -17.947 -21.069  0.00  0.00    +0.117 C 
ATOM     16  C   UNL     1      36.853 -17.971 -21.230  0.00  0.00    +0.025 C 
ATOM     17  C   UNL     1      34.723 -19.322 -21.417  0.00  0.00    +0.115 C 
ATOM     18  C   UNL     1      37.471 -19.123 -20.434  0.00  0.00    +0.023 C 
ATOM     19  C   UNL     1      36.812 -20.457 -20.778  0.00  0.00    +0.094 C 
ATOM     20  C   UNL     1      34.722 -21.244 -19.730  0.00  0.00    +0.249 C 
BRANCH  20  21
ATOM     21  C   UNL     1      33.259 -21.117 -19.577  0.00  0.00    +0.058 C 
ATOM     22  C   UNL     1      32.636 -21.880 -18.676  0.00  0.00    +0.005 C 
ENDBRANCH  20  21
ENDBRANCH   1  15
BRANCH   7  23
ATOM     23  C   UNL     1      33.110 -13.720 -21.938  0.00  0.00    +0.016 C 
ATOM     24  C   UNL     1      33.402 -12.605 -22.723  0.00  0.00    +0.004 C 
ATOM     25  C   UNL     1      32.223 -13.607 -20.868  0.00  0.00    +0.004 C 
ATOM     26  C   UNL     1      32.806 -11.376 -22.437  0.00  0.00    +0.038 C 
ATOM     27  C   UNL     1      31.626 -12.378 -20.582  0.00  0.00    +0.038 C 
ATOM     28  C   UNL     1      31.919 -11.263 -21.367  0.00  0.00    +0.145 C 
BRANCH  28  29
ATOM     29  O   UNL     1      31.340 -10.064 -21.086  0.00  0.00    -0.453 OA
BRANCH  29  30
ATOM     30  C   UNL     1      31.814  -8.947 -21.754  0.00  0.00    +0.145 C 
ATOM     31  C   UNL     1      31.154  -8.482 -22.890  0.00  0.00    +0.037 C 
ATOM     32  C   UNL     1      32.953  -8.288 -21.291  0.00  0.00    +0.037 C 
ATOM     33  C   UNL     1      31.632  -7.358 -23.564  0.00  0.00    +0.003 C 
ATOM     34  C   UNL     1      33.431  -7.164 -21.963  0.00  0.00    +0.003 C 
ATOM     35  C   UNL     1      32.771  -6.700 -23.101  0.00  0.00    +0.000 C 
ENDBRANCH  29  30
ENDBRANCH  28  29
ENDBRANCH   7  23
TORSDOF 5
ENDMDL
MODEL 4
REMARK VINA RESULT:     -10.9      4.527     11.846
REMARK  Name = 24821094
REMARK  5 active torsions:
REMARK  status: ('A' for Active; 'I' for Inactive)
REMARK    1  A    between atoms: N_1  and  C_12
REMARK    2  A    between atoms: C_7  and  C_20
REMARK    3  A    between atoms: C_17  and  C_18
REMARK    4  A    between atoms: C_25  and  O_26
REMARK    5  A    between atoms: O_26  and  C_27
REMARK                            x       y       z     vdW  Elec       q    Type
REMARK                         _______ _______ _______ _____ _____    ______ ____
ROOT
ATOM      1  N   UNL     1      32.604 -12.140 -21.863  0.00  0.00    -0.198 N 
ATOM      2  N   UNL     1      32.780 -11.101 -22.700  0.00  0.00    -0.181 NA
ATOM      3  N   UNL     1      31.850 -12.595 -19.608  0.00  0.00    -0.231 NA
ATOM      4  N   UNL     1      31.187 -10.554 -18.449  0.00  0.00    -0.234 NA
ATOM      5  C   UNL     1      32.122 -11.781 -20.640  0.00  0.00    +0.137 C 
ATOM      6  C   UNL     1      31.970 -10.406 -20.679  0.00  0.00    +0.150 C 
ATOM      7  C   UNL     1      32.391 -10.048 -21.972  0.00  0.00    +0.090 C 
ATOM      8  C   UNL     1      31.483  -9.792 -19.529  0.00  0.00    +0.112 C 
ATOM      9  C   UNL     1      31.386 -11.889 -18.554  0.00  0.00    +0.252 C 
ATOM     10  N   UNL     1      31.292  -8.399 -19.471  0.00  0.00    -0.346 N 
ATOM     11  H   UNL     1      30.946  -7.984 -18.648  0.00  0.00    +0.143 HD
ATOM     12  H   UNL     1      31.503  -7.840 -20.253  0.00  0.00    +0.143 HD
ENDROOT
BRANCH   1  15
ATOM     13  O   UNL     1      34.005 -16.658 -25.578  0.00  0.00    -0.270 OA
ATOM     14  N   UNL     1      34.073 -14.914 -24.042  0.00  0.00    -0.274 N 
ATOM     15  C   UNL     1      32.943 -13.543 -22.332  0.00  0.00    +0.117 C 
ATOM     16  C   UNL     1      33.655 -14.358 -21.235  0.00  0.00    +0.025 C 
ATOM     17  C   UNL     1      33.781 -13.535 -23.622  0.00  0.00    +0.115 C 
ATOM     18  C   UNL     1      34.015 -15.759 -21.736  0.00  0.00    +0.023 C 
ATOM     19  C   UNL     1      34.803 -15.699 -23.043  0.00  0.00    +0.094 C 
ATOM     20  C   UNL     1      33.735 -15.500 -25.258  0.00  0.00    +0.249 C 
BRANCH  20  21
ATOM     21  C   UNL     1      32.994 -14.677 -26.235  0.00  0.00    +0.058 C 
ATOM     22  C   UNL     1      33.674 -13.836 -27.017  0.00  0.00    +0.005 C 
ENDBRANCH  20  21
ENDBRANCH   1  15
BRANCH   7  23
ATOM     23  C   UNL     1      32.437  -8.725 -22.545  0.00  0.00    +0.016 C 
ATOM     24  C   UNL     1      33.546  -7.910 -22.326  0.00  0.00    +0.004 C 
ATOM     25  C   UNL     1      31.372  -8.263 -23.318  0.00  0.00    +0.004 C 
ATOM     26  C   UNL     1      33.590  -6.630 -22.881  0.00  0.00    +0.038 C 
ATOM     27  C   UNL     1      31.417  -6.984 -23.873  0.00  0.00    +0.038 C 
ATOM     28  C   UNL     1      32.526  -6.168 -23.654  0.00  0.00    +0.145 C 
BRANCH  28  29
ATOM     29  O   UNL     1      32.568  -4.918 -24.192  0.00  0.00    -0.453 OA
BRANCH  29  30
ATOM     30  C   UNL     1      33.360  -4.725 -25.312  0.00  0.00    +0.145 C 
ATOM     31  C   UNL     1      34.569  -5.409 -25.437  0.00  0.00    +0.037 C 
ATOM     32  C   UNL     1      32.949  -3.847 -26.315  0.00  0.00    +0.037 C 
ATOM     33  C   UNL     1      35.368  -5.215 -26.565  0.00  0.00    +0.003 C 
ATOM     34  C   UNL     1      33.746  -3.652 -27.442  0.00  0.00    +0.003 C 
ATOM     35  C   UNL     1      34.956  -4.336 -27.566  0.00  0.00    +0.000 C 
ENDBRANCH  29  30
ENDBRANCH  28  29
ENDBRANCH   7  23
TORSDOF 5
ENDMDL
MODEL 5
REMARK VINA RESULT:     -10.8      4.965     11.583
REMARK  Name = 24821094
REMARK  5 active torsions:
REMARK  status: ('A' for Active; 'I' for Inactive)
REMARK    1  A    between atoms: N_1  and  C_12
REMARK    2  A    between atoms: C_7  and  C_20
REMARK    3  A    between atoms: C_17  and  C_18
REMARK    4  A    between atoms: C_25  and  O_26
REMARK    5  A    between atoms: O_26  and  C_27
REMARK                            x       y       z     vdW  Elec       q    Type
REMARK                         _______ _______ _______ _____ _____    ______ ____
ROOT
ATOM      1  N   UNL     1      36.107 -23.242 -16.106  0.00  0.00    -0.198 N 
ATOM      2  N   UNL     1      36.587 -22.499 -17.120  0.00  0.00    -0.181 NA
ATOM      3  N   UNL     1      34.004 -24.109 -15.279  0.00  0.00    -0.231 NA
ATOM      4  N   UNL     1      32.136 -23.456 -16.704  0.00  0.00    -0.234 NA
ATOM      5  C   UNL     1      34.756 -23.420 -16.150  0.00  0.00    +0.137 C 
ATOM      6  C   UNL     1      34.320 -22.744 -17.276  0.00  0.00    +0.150 C 
ATOM      7  C   UNL     1      35.493 -22.199 -17.830  0.00  0.00    +0.090 C 
ATOM      8  C   UNL     1      32.955 -22.778 -17.543  0.00  0.00    +0.112 C 
ATOM      9  C   UNL     1      32.703 -24.071 -15.639  0.00  0.00    +0.252 C 
ATOM     10  N   UNL     1      32.414 -22.123 -18.665  0.00  0.00    -0.346 N 
ATOM     11  H   UNL     1      31.445 -22.160 -18.836  0.00  0.00    +0.143 HD
ATOM     12  H   UNL     1      33.004 -21.630 -19.279  0.00  0.00    +0.143 HD
ENDROOT
BRANCH   1  15
ATOM     13  O   UNL     1      38.054 -26.149 -11.213  0.00  0.00    -0.270 OA
ATOM     14  N   UNL     1      37.484 -25.544 -13.385  0.00  0.00    -0.274 N 
ATOM     15  C   UNL     1      37.063 -23.784 -15.060  0.00  0.00    +0.117 C 
ATOM     16  C   UNL     1      38.470 -24.026 -15.640  0.00  0.00    +0.025 C 
ATOM     17  C   UNL     1      36.530 -25.066 -14.396  0.00  0.00    +0.115 C 
ATOM     18  C   UNL     1      39.412 -24.601 -14.579  0.00  0.00    +0.023 C 
ATOM     19  C   UNL     1      38.816 -25.841 -13.916  0.00  0.00    +0.094 C 
ATOM     20  C   UNL     1      37.229 -25.737 -12.030  0.00  0.00    +0.249 C 
BRANCH  20  21
ATOM     21  C   UNL     1      35.875 -25.419 -11.533  0.00  0.00    +0.058 C 
ATOM     22  C   UNL     1      35.751 -24.670 -10.436  0.00  0.00    +0.005 C 
ENDBRANCH  20  21
ENDBRANCH   1  15
BRANCH   7  23
ATOM     23  C   UNL     1      35.609 -21.396 -19.021  0.00  0.00    +0.016 C 
ATOM     24  C   UNL     1      34.482 -21.142 -19.802  0.00  0.00    +0.004 C 
ATOM     25  C   UNL     1      36.847 -20.873 -19.392  0.00  0.00    +0.004 C 
ATOM     26  C   UNL     1      34.594 -20.364 -20.955  0.00  0.00    +0.038 C 
ATOM     27  C   UNL     1      36.959 -20.095 -20.545  0.00  0.00    +0.038 C 
ATOM     28  C   UNL     1      35.832 -19.841 -21.326  0.00  0.00    +0.145 C 
BRANCH  28  29
ATOM     29  O   UNL     1      35.942 -19.085 -22.453  0.00  0.00    -0.453 OA
BRANCH  29  30
ATOM     30  C   UNL     1      35.378 -17.821 -22.438  0.00  0.00    +0.145 C 
ATOM     31  C   UNL     1      35.112 -17.162 -23.638  0.00  0.00    +0.037 C 
ATOM     32  C   UNL     1      35.076 -17.205 -21.222  0.00  0.00    +0.037 C 
ATOM     33  C   UNL     1      34.543 -15.887 -23.623  0.00  0.00    +0.003 C 
ATOM     34  C   UNL     1      34.507 -15.932 -21.207  0.00  0.00    +0.003 C 
ATOM     35  C   UNL     1      34.242 -15.273 -22.407  0.00  0.00    +0.000 C 
ENDBRANCH  29  30
ENDBRANCH  28  29
ENDBRANCH   7  23
TORSDOF 5
ENDMDL
MODEL 6
REMARK VINA RESULT:     -10.3      2.955      5.660
REMARK  Name = 24821094
REMARK  5 active torsions:
REMARK  status: ('A' for Active; 'I' for Inactive)
REMARK    1  A    between atoms: N_1  and  C_12
REMARK    2  A    between atoms: C_7  and  C_20
REMARK    3  A    between atoms: C_17  and  C_18
REMARK    4  A    between atoms: C_25  and  O_26
REMARK    5  A    between atoms: O_26  and  C_27
REMARK                            x       y       z     vdW  Elec       q    Type
REMARK                         _______ _______ _______ _____ _____    ______ ____
ROOT
ATOM      1  N   UNL     1      32.793 -10.563 -22.549  0.00  0.00    -0.198 N 
ATOM      2  N   UNL     1      33.421 -11.585 -23.159  0.00  0.00    -0.181 NA
ATOM      3  N   UNL     1      31.459 -10.118 -20.579  0.00  0.00    -0.231 NA
ATOM      4  N   UNL     1      31.121 -12.132 -19.245  0.00  0.00    -0.234 NA
ATOM      5  C   UNL     1      32.162 -10.919 -21.395  0.00  0.00    +0.137 C 
ATOM      6  C   UNL     1      32.394 -12.274 -21.236  0.00  0.00    +0.150 C 
ATOM      7  C   UNL     1      33.174 -12.625 -22.353  0.00  0.00    +0.090 C 
ATOM      8  C   UNL     1      31.843 -12.881 -20.112  0.00  0.00    +0.112 C 
ATOM      9  C   UNL     1      30.975 -10.816 -19.528  0.00  0.00    +0.252 C 
ATOM     10  N   UNL     1      32.025 -14.254 -19.862  0.00  0.00    -0.346 N 
ATOM     11  H   UNL     1      31.627 -14.664 -19.060  0.00  0.00    +0.143 HD
ATOM     12  H   UNL     1      32.550 -14.804 -20.487  0.00  0.00    +0.143 HD
ENDROOT
BRANCH   1  15
ATOM     13  O   UNL     1      31.696  -4.705 -23.363  0.00  0.00    -0.270 OA
ATOM     14  N   UNL     1      32.637  -6.752 -22.788  0.00  0.00    -0.274 N 
ATOM     15  C   UNL     1      32.841  -9.180 -23.171  0.00  0.00    +0.117 C 
ATOM     16  C   UNL     1      34.169  -8.931 -23.914  0.00  0.00    +0.025 C 
ATOM     17  C   UNL     1      32.591  -8.070 -22.136  0.00  0.00    +0.115 C 
ATOM     18  C   UNL     1      34.211  -7.521 -24.509  0.00  0.00    +0.023 C 
ATOM     19  C   UNL     1      33.908  -6.461 -23.453  0.00  0.00    +0.094 C 
ATOM     20  C   UNL     1      31.618  -5.804 -22.813  0.00  0.00    +0.249 C 
BRANCH  20  21
ATOM     21  C   UNL     1      30.349  -6.140 -22.136  0.00  0.00    +0.058 C 
ATOM     22  C   UNL     1      29.971  -5.418 -21.079  0.00  0.00    +0.005 C 
ENDBRANCH  20  21
ENDBRANCH   1  15
BRANCH   7  23
ATOM     23  C   UNL     1      33.698 -13.927 -22.683  0.00  0.00    +0.016 C 
ATOM     24  C   UNL     1      33.508 -14.451 -23.961  0.00  0.00    +0.004 C 
ATOM     25  C   UNL     1      34.395 -14.662 -21.725  0.00  0.00    +0.004 C 
ATOM     26  C   UNL     1      34.015 -15.710 -24.281  0.00  0.00    +0.038 C 
ATOM     27  C   UNL     1      34.903 -15.921 -22.044  0.00  0.00    +0.038 C 
ATOM     28  C   UNL     1      34.712 -16.445 -23.322  0.00  0.00    +0.145 C 
BRANCH  28  29
ATOM     29  O   UNL     1      35.205 -17.676 -23.633  0.00  0.00    -0.453 OA
BRANCH  29  30
ATOM     30  C   UNL     1      35.496 -18.536 -22.588  0.00  0.00    +0.145 C 
ATOM     31  C   UNL     1      36.776 -18.552 -22.035  0.00  0.00    +0.037 C 
ATOM     32  C   UNL     1      34.510 -19.386 -22.088  0.00  0.00    +0.037 C 
ATOM     33  C   UNL     1      37.071 -19.419 -20.982  0.00  0.00    +0.003 C 
ATOM     34  C   UNL     1      34.803 -20.253 -21.035  0.00  0.00    +0.003 C 
ATOM     35  C   UNL     1      36.084 -20.269 -20.483  0.00  0.00    +0.000 C 
ENDBRANCH  29  30
ENDBRANCH  28  29
ENDBRANCH   7  23
TORSDOF 5
ENDMDL
MODEL 7
REMARK VINA RESULT:     -10.3      5.229     11.677
REMARK  Name = 24821094
REMARK  5 active torsions:
REMARK  status: ('A' for Active; 'I' for Inactive)
REMARK    1  A    between atoms: N_1  and  C_12
REMARK    2  A    between atoms: C_7  and  C_20
REMARK    3  A    between atoms: C_17  and  C_18
REMARK    4  A    between atoms: C_25  and  O_26
REMARK    5  A    between atoms: O_26  and  C_27
REMARK                            x       y       z     vdW  Elec       q    Type
REMARK                         _______ _______ _______ _____ _____    ______ ____
ROOT
ATOM      1  N   UNL     1      34.843 -23.977 -15.298  0.00  0.00    -0.198 N 
ATOM      2  N   UNL     1      35.593 -23.371 -16.237  0.00  0.00    -0.181 NA
ATOM      3  N   UNL     1      32.517 -24.357 -14.746  0.00  0.00    -0.231 NA
ATOM      4  N   UNL     1      31.023 -23.339 -16.383  0.00  0.00    -0.234 NA
ATOM      5  C   UNL     1      33.502 -23.860 -15.510  0.00  0.00    +0.137 C 
ATOM      6  C   UNL     1      33.363 -23.124 -16.673  0.00  0.00    +0.150 C 
ATOM      7  C   UNL     1      34.685 -22.853 -17.072  0.00  0.00    +0.090 C 
ATOM      8  C   UNL     1      32.066 -22.866 -17.107  0.00  0.00    +0.112 C 
ATOM      9  C   UNL     1      31.309 -24.045 -15.264  0.00  0.00    +0.252 C 
ATOM     10  N   UNL     1      31.822 -22.128 -18.279  0.00  0.00    -0.346 N 
ATOM     11  H   UNL     1      30.896 -21.957 -18.568  0.00  0.00    +0.143 HD
ATOM     12  H   UNL     1      32.575 -21.783 -18.810  0.00  0.00    +0.143 HD
ENDROOT
BRANCH   1  15
ATOM     13  O   UNL     1      39.180 -26.632 -12.085  0.00  0.00    -0.270 OA
ATOM     14  N   UNL     1      37.646 -25.123 -12.968  0.00  0.00    -0.274 N 
ATOM     15  C   UNL     1      35.524 -24.696 -14.148  0.00  0.00    +0.117 C 
ATOM     16  C   UNL     1      34.859 -24.373 -12.796  0.00  0.00    +0.025 C 
ATOM     17  C   UNL     1      37.032 -24.396 -14.089  0.00  0.00    +0.115 C 
ATOM     18  C   UNL     1      35.577 -25.083 -11.645  0.00  0.00    +0.023 C 
ATOM     19  C   UNL     1      37.076 -24.794 -11.660  0.00  0.00    +0.094 C 
ATOM     20  C   UNL     1      38.684 -26.048 -13.049  0.00  0.00    +0.249 C 
BRANCH  20  21
ATOM     21  C   UNL     1      39.225 -26.358 -14.387  0.00  0.00    +0.058 C 
ATOM     22  C   UNL     1      40.444 -25.918 -14.707  0.00  0.00    +0.005 C 
ENDBRANCH  20  21
ENDBRANCH   1  15
BRANCH   7  23
ATOM     23  C   UNL     1      35.117 -22.113 -18.231  0.00  0.00    +0.016 C 
ATOM     24  C   UNL     1      34.190 -21.734 -19.201  0.00  0.00    +0.004 C 
ATOM     25  C   UNL     1      36.462 -21.774 -18.381  0.00  0.00    +0.004 C 
ATOM     26  C   UNL     1      34.608 -21.017 -20.322  0.00  0.00    +0.038 C 
ATOM     27  C   UNL     1      36.880 -21.056 -19.502  0.00  0.00    +0.038 C 
ATOM     28  C   UNL     1      35.952 -20.678 -20.472  0.00  0.00    +0.145 C 
BRANCH  28  29
ATOM     29  O   UNL     1      36.361 -19.981 -21.568  0.00  0.00    -0.453 OA
BRANCH  29  30
ATOM     30  C   UNL     1      35.770 -18.752 -21.806  0.00  0.00    +0.145 C 
ATOM     31  C   UNL     1      35.425 -17.925 -20.737  0.00  0.00    +0.037 C 
ATOM     32  C   UNL     1      35.519 -18.340 -23.116  0.00  0.00    +0.037 C 
ATOM     33  C   UNL     1      34.829 -16.686 -20.977  0.00  0.00    +0.003 C 
ATOM     34  C   UNL     1      34.923 -17.102 -23.356  0.00  0.00    +0.003 C 
ATOM     35  C   UNL     1      34.578 -16.276 -22.286  0.00  0.00    +0.000 C 
ENDBRANCH  29  30
ENDBRANCH  28  29
ENDBRANCH   7  23
TORSDOF 5
ENDMDL
MODEL 8
REMARK VINA RESULT:     -10.1      5.564     10.823
REMARK  Name = 24821094
REMARK  5 active torsions:
REMARK  status: ('A' for Active; 'I' for Inactive)
REMARK    1  A    between atoms: N_1  and  C_12
REMARK    2  A    between atoms: C_7  and  C_20
REMARK    3  A    between atoms: C_17  and  C_18
REMARK    4  A    between atoms: C_25  and  O_26
REMARK    5  A    between atoms: O_26  and  C_27
REMARK                            x       y       z     vdW  Elec       q    Type
REMARK                         _______ _______ _______ _____ _____    ______ ____
ROOT
ATOM      1  N   UNL     1      33.677 -23.459 -15.604  0.00  0.00    -0.198 N 
ATOM      2  N   UNL     1      33.575 -22.839 -16.795  0.00  0.00    -0.181 NA
ATOM      3  N   UNL     1      35.367 -24.169 -14.024  0.00  0.00    -0.231 NA
ATOM      4  N   UNL     1      37.613 -23.602 -14.790  0.00  0.00    -0.234 NA
ATOM      5  C   UNL     1      34.961 -23.596 -15.168  0.00  0.00    +0.137 C 
ATOM      6  C   UNL     1      35.759 -23.024 -16.143  0.00  0.00    +0.150 C 
ATOM      7  C   UNL     1      34.847 -22.576 -17.117  0.00  0.00    +0.090 C 
ATOM      8  C   UNL     1      37.132 -23.039 -15.924  0.00  0.00    +0.112 C 
ATOM      9  C   UNL     1      36.714 -24.125 -13.923  0.00  0.00    +0.252 C 
ATOM     10  N   UNL     1      38.026 -22.481 -16.856  0.00  0.00    -0.346 N 
ATOM     11  H   UNL     1      38.995 -22.502 -16.682  0.00  0.00    +0.143 HD
ATOM     12  H   UNL     1      37.683 -22.069 -17.682  0.00  0.00    +0.143 HD
ENDROOT
BRANCH   1  15
ATOM     13  O   UNL     1      27.847 -24.534 -14.589  0.00  0.00    -0.270 OA
ATOM     14  N   UNL     1      30.097 -24.713 -15.150  0.00  0.00    -0.274 N 
ATOM     15  C   UNL     1      32.419 -23.925 -14.896  0.00  0.00    +0.117 C 
ATOM     16  C   UNL     1      32.699 -25.112 -13.953  0.00  0.00    +0.025 C 
ATOM     17  C   UNL     1      31.295 -24.279 -15.884  0.00  0.00    +0.115 C 
ATOM     18  C   UNL     1      31.414 -25.587 -13.270  0.00  0.00    +0.023 C 
ATOM     19  C   UNL     1      30.315 -25.877 -14.289  0.00  0.00    +0.094 C 
ATOM     20  C   UNL     1      28.831 -24.136 -15.214  0.00  0.00    +0.249 C 
BRANCH  20  21
ATOM     21  C   UNL     1      28.655 -22.960 -16.088  0.00  0.00    +0.058 C 
ATOM     22  C   UNL     1      27.459 -22.737 -16.636  0.00  0.00    +0.005 C 
ENDBRANCH  20  21
ENDBRANCH   1  15
BRANCH   7  23
ATOM     23  C   UNL     1      35.148 -21.902 -18.355  0.00  0.00    +0.016 C 
ATOM     24  C   UNL     1      34.116 -21.544 -19.222  0.00  0.00    +0.004 C 
ATOM     25  C   UNL     1      36.470 -21.605 -18.685  0.00  0.00    +0.004 C 
ATOM     26  C   UNL     1      34.407 -20.890 -20.419  0.00  0.00    +0.038 C 
ATOM     27  C   UNL     1      36.761 -20.951 -19.882  0.00  0.00    +0.038 C 
ATOM     28  C   UNL     1      35.729 -20.594 -20.749  0.00  0.00    +0.145 C 
BRANCH  28  29
ATOM     29  O   UNL     1      36.013 -19.959 -21.919  0.00  0.00    -0.453 OA
BRANCH  29  30
ATOM     30  C   UNL     1      35.548 -18.665 -22.079  0.00  0.00    +0.145 C 
ATOM     31  C   UNL     1      35.326 -18.157 -23.359  0.00  0.00    +0.037 C 
ATOM     32  C   UNL     1      35.303 -17.868 -20.961  0.00  0.00    +0.037 C 
ATOM     33  C   UNL     1      34.858 -16.852 -23.521  0.00  0.00    +0.003 C 
ATOM     34  C   UNL     1      34.835 -16.564 -21.121  0.00  0.00    +0.003 C 
ATOM     35  C   UNL     1      34.613 -16.056 -22.402  0.00  0.00    +0.000 C 
ENDBRANCH  29  30
ENDBRANCH  28  29
ENDBRANCH   7  23
TORSDOF 5
ENDMDL
MODEL 9
REMARK VINA RESULT:     -10.1      5.565     10.837
REMARK  Name = 24821094
REMARK  5 active torsions:
REMARK  status: ('A' for Active; 'I' for Inactive)
REMARK    1  A    between atoms: N_1  and  C_12
REMARK    2  A    between atoms: C_7  and  C_20
REMARK    3  A    between atoms: C_17  and  C_18
REMARK    4  A    between atoms: C_25  and  O_26
REMARK    5  A    between atoms: O_26  and  C_27
REMARK                            x       y       z     vdW  Elec       q    Type
REMARK                         _______ _______ _______ _____ _____    ______ ____
ROOT
ATOM      1  N   UNL     1      33.678 -23.459 -15.605  0.00  0.00    -0.198 N 
ATOM      2  N   UNL     1      33.577 -22.840 -16.795  0.00  0.00    -0.181 NA
ATOM      3  N   UNL     1      35.369 -24.167 -14.023  0.00  0.00    -0.231 NA
ATOM      4  N   UNL     1      37.614 -23.599 -14.788  0.00  0.00    -0.234 NA
ATOM      5  C   UNL     1      34.962 -23.595 -15.167  0.00  0.00    +0.137 C 
ATOM      6  C   UNL     1      35.760 -23.023 -16.142  0.00  0.00    +0.150 C 
ATOM      7  C   UNL     1      34.849 -22.577 -17.117  0.00  0.00    +0.090 C 
ATOM      8  C   UNL     1      37.133 -23.037 -15.923  0.00  0.00    +0.112 C 
ATOM      9  C   UNL     1      36.715 -24.122 -13.921  0.00  0.00    +0.252 C 
ATOM     10  N   UNL     1      38.027 -22.479 -16.855  0.00  0.00    -0.346 N 
ATOM     11  H   UNL     1      38.996 -22.499 -16.680  0.00  0.00    +0.143 HD
ATOM     12  H   UNL     1      37.684 -22.067 -17.681  0.00  0.00    +0.143 HD
ENDROOT
BRANCH   1  15
ATOM     13  O   UNL     1      27.848 -24.537 -14.590  0.00  0.00    -0.270 OA
ATOM     14  N   UNL     1      30.098 -24.714 -15.151  0.00  0.00    -0.274 N 
ATOM     15  C   UNL     1      32.421 -23.925 -14.896  0.00  0.00    +0.117 C 
ATOM     16  C   UNL     1      32.700 -25.112 -13.953  0.00  0.00    +0.025 C 
ATOM     17  C   UNL     1      31.296 -24.280 -15.885  0.00  0.00    +0.115 C 
ATOM     18  C   UNL     1      31.415 -25.588 -13.271  0.00  0.00    +0.023 C 
ATOM     19  C   UNL     1      30.316 -25.879 -14.290  0.00  0.00    +0.094 C 
ATOM     20  C   UNL     1      28.832 -24.138 -15.215  0.00  0.00    +0.249 C 
BRANCH  20  21
ATOM     21  C   UNL     1      28.656 -22.961 -16.089  0.00  0.00    +0.058 C 
ATOM     22  C   UNL     1      27.461 -22.741 -16.641  0.00  0.00    +0.005 C 
ENDBRANCH  20  21
ENDBRANCH   1  15
BRANCH   7  23
ATOM     23  C   UNL     1      35.150 -21.902 -18.355  0.00  0.00    +0.016 C 
ATOM     24  C   UNL     1      36.472 -21.601 -18.681  0.00  0.00    +0.004 C 
ATOM     25  C   UNL     1      34.119 -21.554 -19.229  0.00  0.00    +0.004 C 
ATOM     26  C   UNL     1      36.763 -20.949 -19.879  0.00  0.00    +0.038 C 
ATOM     27  C   UNL     1      34.411 -20.902 -20.428  0.00  0.00    +0.038 C 
ATOM     28  C   UNL     1      35.733 -20.600 -20.752  0.00  0.00    +0.145 C 
BRANCH  28  29
ATOM     29  O   UNL     1      36.017 -19.961 -21.920  0.00  0.00    -0.453 OA
BRANCH  29  30
ATOM     30  C   UNL     1      35.553 -18.666 -22.075  0.00  0.00    +0.145 C 
ATOM     31  C   UNL     1      35.301 -17.876 -20.953  0.00  0.00    +0.037 C 
ATOM     32  C   UNL     1      35.336 -18.150 -23.353  0.00  0.00    +0.037 C 
ATOM     33  C   UNL     1      34.832 -16.571 -21.109  0.00  0.00    +0.003 C 
ATOM     34  C   UNL     1      34.868 -16.846 -23.510  0.00  0.00    +0.003 C 
ATOM     35  C   UNL     1      34.615 -16.058 -22.388  0.00  0.00    +0.000 C 
ENDBRANCH  29  30
ENDBRANCH  28  29
ENDBRANCH   7  23
TORSDOF 5
ENDMDL
