MODEL 1
REMARK VINA RESULT:     -11.4      0.000      0.000
REMARK  Name = 24871491
REMARK  6 active torsions:
REMARK  status: ('A' for Active; 'I' for Inactive)
REMARK    1  A    between atoms: N_1  and  C_11
REMARK    2  A    between atoms: N_2  and  C_18
REMARK    3  A    between atoms: C_6  and  C_31
REMARK    4  A    between atoms: C_19  and  C_24
REMARK    5  A    between atoms: C_24  and  C_26
REMARK    6  A    between atoms: C_26  and  O_27
REMARK                            x       y       z     vdW  Elec       q    Type
REMARK                         _______ _______ _______ _____ _____    ______ ____
ROOT
ATOM      1  N   UNL     1      35.658 -22.907 -15.215  0.00  0.00    -0.287 N 
ATOM      2  N   UNL     1      31.852 -24.868 -13.241  0.00  0.00    -0.247 N 
ATOM      3  N   UNL     1      33.737 -23.888 -14.232  0.00  0.00    -0.322 NA
ATOM      4  N   UNL     1      33.920 -25.114 -12.166  0.00  0.00    -0.169 NA
ATOM      5  C   UNL     1      35.066 -23.661 -14.172  0.00  0.00    +0.202 C 
ATOM      6  C   UNL     1      35.877 -24.122 -13.155  0.00  0.00    +0.118 C 
ATOM      7  C   UNL     1      33.237 -24.611 -13.211  0.00  0.00    +0.150 C 
ATOM      8  C   UNL     1      35.243 -24.849 -12.168  0.00  0.00    +0.120 C 
ATOM      9  H   UNL     1      36.445 -22.389 -14.933  0.00  0.00    +0.155 HD
ATOM     10  H   UNL     1      31.533 -25.399 -12.477  0.00  0.00    +0.165 HD
ENDROOT
BRANCH   1  11
ATOM     11  C   UNL     1      35.339 -22.756 -16.574  0.00  0.00    +0.050 C 
ATOM     12  C   UNL     1      36.215 -22.083 -17.425  0.00  0.00    +0.010 C 
ATOM     13  C   UNL     1      35.898 -21.933 -18.775  0.00  0.00    -0.021 C 
ATOM     14  C   UNL     1      34.146 -23.278 -17.073  0.00  0.00    +0.015 C 
ATOM     15  C   UNL     1      34.705 -22.455 -19.274  0.00  0.00    -0.004 C 
ATOM     16  C   UNL     1      33.828 -23.127 -18.423  0.00  0.00    +0.001 C 
ATOM     17  C   UNL     1      36.834 -21.212 -19.686  0.00  0.00    +0.031 C 
ENDBRANCH   1  11
BRANCH   2  18
ATOM     18  C   UNL     1      30.834 -24.515 -14.150  0.00  0.00    +0.058 C 
ATOM     19  C   UNL     1      28.821 -23.816 -15.950  0.00  0.00    -0.011 C 
ATOM     20  C   UNL     1      30.059 -25.507 -14.748  0.00  0.00    +0.015 C 
ATOM     21  C   UNL     1      30.604 -23.172 -14.452  0.00  0.00    +0.015 C 
ATOM     22  C   UNL     1      29.052 -25.157 -15.649  0.00  0.00    -0.002 C 
ATOM     23  C   UNL     1      29.598 -22.823 -15.352  0.00  0.00    -0.002 C 
BRANCH  19  24
ATOM     24  C   UNL     1      27.744 -23.442 -16.912  0.00  0.00    +0.136 C 
BRANCH  24  26
ATOM     25  O   UNL     1      26.097 -22.584 -15.337  0.00  0.00    -0.250 OA
ATOM     26  C   UNL     1      26.759 -22.434 -16.355  0.00  0.00    +0.318 C 
BRANCH  26  27
ATOM     27  O   UNL     1      26.686 -21.317 -17.127  0.00  0.00    -0.480 OA
ATOM     28  H   UNL     1      27.407 -20.720 -17.157  0.00  0.00    +0.295 HD
ENDBRANCH  26  27
ENDBRANCH  24  26
ENDBRANCH  19  24
ENDBRANCH   2  18
BRANCH   6  31
ATOM     29  O   UNL     1      38.028 -23.955 -14.100  0.00  0.00    -0.270 OA
ATOM     30  N   UNL     1      37.850 -23.533 -11.853  0.00  0.00    -0.325 N 
ATOM     31  C   UNL     1      37.309 -23.877 -13.088  0.00  0.00    +0.248 C 
ATOM     32  H   UNL     1      38.816 -23.361 -11.770  0.00  0.00    +0.145 HD
ATOM     33  H   UNL     1      37.267 -23.463 -11.063  0.00  0.00    +0.145 HD
ENDBRANCH   6  31
TORSDOF 6
ENDMDL
MODEL 2
REMARK VINA RESULT:     -11.0      3.524      6.715
REMARK  Name = 24871491
REMARK  6 active torsions:
REMARK  status: ('A' for Active; 'I' for Inactive)
REMARK    1  A    between atoms: N_1  and  C_11
REMARK    2  A    between atoms: N_2  and  C_18
REMARK    3  A    between atoms: C_6  and  C_31
REMARK    4  A    between atoms: C_19  and  C_24
REMARK    5  A    between atoms: C_24  and  C_26
REMARK    6  A    between atoms: C_26  and  O_27
REMARK                            x       y       z     vdW  Elec       q    Type
REMARK                         _______ _______ _______ _____ _____    ______ ____
ROOT
ATOM      1  N   UNL     1      34.571 -23.793 -14.316  0.00  0.00    -0.287 N 
ATOM      2  N   UNL     1      32.295 -22.492 -18.234  0.00  0.00    -0.247 N 
ATOM      3  N   UNL     1      33.438 -23.133 -16.290  0.00  0.00    -0.322 NA
ATOM      4  N   UNL     1      31.103 -23.653 -16.583  0.00  0.00    -0.169 NA
ATOM      5  C   UNL     1      33.385 -23.746 -15.089  0.00  0.00    +0.202 C 
ATOM      6  C   UNL     1      32.244 -24.327 -14.574  0.00  0.00    +0.118 C 
ATOM      7  C   UNL     1      32.277 -23.123 -16.974  0.00  0.00    +0.150 C 
ATOM      8  C   UNL     1      31.122 -24.249 -15.373  0.00  0.00    +0.120 C 
ATOM      9  H   UNL     1      34.412 -23.803 -13.345  0.00  0.00    +0.155 HD
ATOM     10  H   UNL     1      31.427 -22.510 -18.697  0.00  0.00    +0.165 HD
ENDROOT
BRANCH   1  11
ATOM     11  C   UNL     1      35.930 -23.827 -14.666  0.00  0.00    +0.050 C 
ATOM     12  C   UNL     1      36.751 -24.845 -14.179  0.00  0.00    +0.010 C 
ATOM     13  C   UNL     1      38.101 -24.879 -14.528  0.00  0.00    -0.021 C 
ATOM     14  C   UNL     1      36.460 -22.845 -15.502  0.00  0.00    +0.015 C 
ATOM     15  C   UNL     1      38.631 -23.897 -15.364  0.00  0.00    -0.004 C 
ATOM     16  C   UNL     1      37.811 -22.879 -15.850  0.00  0.00    +0.001 C 
ATOM     17  C   UNL     1      38.979 -25.966 -14.006  0.00  0.00    +0.031 C 
ENDBRANCH   1  11
BRANCH   2  18
ATOM     18  C   UNL     1      33.312 -21.840 -18.961  0.00  0.00    +0.058 C 
ATOM     19  C   UNL     1      35.322 -20.551 -20.402  0.00  0.00    -0.011 C 
ATOM     20  C   UNL     1      32.981 -20.855 -19.890  0.00  0.00    +0.015 C 
ATOM     21  C   UNL     1      34.648 -22.182 -18.753  0.00  0.00    +0.015 C 
ATOM     22  C   UNL     1      33.987 -20.209 -20.611  0.00  0.00    -0.002 C 
ATOM     23  C   UNL     1      35.653 -21.538 -19.473  0.00  0.00    -0.002 C 
BRANCH  19  24
ATOM     24  C   UNL     1      36.398 -19.861 -21.172  0.00  0.00    +0.136 C 
BRANCH  24  26
ATOM     25  O   UNL     1      35.663 -17.584 -20.720  0.00  0.00    -0.250 OA
ATOM     26  C   UNL     1      36.068 -18.422 -21.514  0.00  0.00    +0.318 C 
BRANCH  26  27
ATOM     27  O   UNL     1      36.272 -18.155 -22.832  0.00  0.00    -0.480 OA
ATOM     28  H   UNL     1      36.750 -17.390 -23.086  0.00  0.00    +0.295 HD
ENDBRANCH  26  27
ENDBRANCH  24  26
ENDBRANCH  19  24
ENDBRANCH   2  18
BRANCH   6  31
ATOM     29  O   UNL     1      33.180 -25.043 -12.534  0.00  0.00    -0.270 OA
ATOM     30  N   UNL     1      30.970 -25.541 -12.890  0.00  0.00    -0.325 N 
ATOM     31  C   UNL     1      32.185 -24.987 -13.280  0.00  0.00    +0.248 C 
ATOM     32  H   UNL     1      30.893 -25.996 -12.020  0.00  0.00    +0.145 HD
ATOM     33  H   UNL     1      30.188 -25.478 -13.484  0.00  0.00    +0.145 HD
ENDBRANCH   6  31
TORSDOF 6
ENDMDL
MODEL 3
REMARK VINA RESULT:     -10.5      3.323      6.129
REMARK  Name = 24871491
REMARK  6 active torsions:
REMARK  status: ('A' for Active; 'I' for Inactive)
REMARK    1  A    between atoms: N_1  and  C_11
REMARK    2  A    between atoms: N_2  and  C_18
REMARK    3  A    between atoms: C_6  and  C_31
REMARK    4  A    between atoms: C_19  and  C_24
REMARK    5  A    between atoms: C_24  and  C_26
REMARK    6  A    between atoms: C_26  and  O_27
REMARK                            x       y       z     vdW  Elec       q    Type
REMARK                         _______ _______ _______ _____ _____    ______ ____
ROOT
ATOM      1  N   UNL     1      34.325 -25.061 -13.790  0.00  0.00    -0.287 N 
ATOM      2  N   UNL     1      37.355 -22.852 -16.647  0.00  0.00    -0.247 N 
ATOM      3  N   UNL     1      35.838 -23.947 -15.235  0.00  0.00    -0.322 NA
ATOM      4  N   UNL     1      38.200 -23.949 -14.757  0.00  0.00    -0.169 NA
ATOM      5  C   UNL     1      35.649 -24.682 -14.119  0.00  0.00    +0.202 C 
ATOM      6  C   UNL     1      36.672 -25.083 -13.283  0.00  0.00    +0.118 C 
ATOM      7  C   UNL     1      37.120 -23.621 -15.490  0.00  0.00    +0.150 C 
ATOM      8  C   UNL     1      37.939 -24.685 -13.655  0.00  0.00    +0.120 C 
ATOM      9  H   UNL     1      34.265 -25.915 -13.304  0.00  0.00    +0.155 HD
ATOM     10  H   UNL     1      38.304 -22.637 -16.792  0.00  0.00    +0.165 HD
ENDROOT
BRANCH   1  11
ATOM     11  C   UNL     1      33.080 -24.455 -14.024  0.00  0.00    +0.050 C 
ATOM     12  C   UNL     1      32.772 -23.961 -15.292  0.00  0.00    +0.010 C 
ATOM     13  C   UNL     1      31.535 -23.359 -15.523  0.00  0.00    -0.021 C 
ATOM     14  C   UNL     1      32.151 -24.347 -12.989  0.00  0.00    +0.015 C 
ATOM     15  C   UNL     1      30.606 -23.251 -14.488  0.00  0.00    -0.004 C 
ATOM     16  C   UNL     1      30.915 -23.744 -13.220  0.00  0.00    +0.001 C 
ATOM     17  C   UNL     1      31.205 -22.829 -16.878  0.00  0.00    +0.031 C 
ENDBRANCH   1  11
BRANCH   2  18
ATOM     18  C   UNL     1      36.498 -22.331 -17.638  0.00  0.00    +0.058 C 
ATOM     19  C   UNL     1      34.802 -21.300 -19.598  0.00  0.00    -0.011 C 
ATOM     20  C   UNL     1      35.139 -22.640 -17.616  0.00  0.00    +0.015 C 
ATOM     21  C   UNL     1      37.010 -21.507 -18.640  0.00  0.00    +0.015 C 
ATOM     22  C   UNL     1      34.290 -22.124 -18.596  0.00  0.00    -0.002 C 
ATOM     23  C   UNL     1      36.162 -20.992 -19.620  0.00  0.00    -0.002 C 
BRANCH  19  24
ATOM     24  C   UNL     1      33.895 -20.749 -20.646  0.00  0.00    +0.136 C 
BRANCH  24  26
ATOM     25  O   UNL     1      34.694 -18.465 -20.917  0.00  0.00    -0.250 OA
ATOM     26  C   UNL     1      34.484 -19.571 -21.396  0.00  0.00    +0.318 C 
BRANCH  26  27
ATOM     27  O   UNL     1      34.758 -19.880 -22.691  0.00  0.00    -0.480 OA
ATOM     28  H   UNL     1      35.382 -20.550 -22.890  0.00  0.00    +0.295 HD
ENDBRANCH  26  27
ENDBRANCH  24  26
ENDBRANCH  19  24
ENDBRANCH   2  18
BRANCH   6  31
ATOM     29  O   UNL     1      35.677 -25.518 -11.193  0.00  0.00    -0.270 OA
ATOM     30  N   UNL     1      37.183 -27.065 -11.963  0.00  0.00    -0.325 N 
ATOM     31  C   UNL     1      36.471 -25.876 -12.081  0.00  0.00    +0.248 C 
ATOM     32  H   UNL     1      37.073 -27.628 -11.163  0.00  0.00    +0.145 HD
ATOM     33  H   UNL     1      37.798 -27.344 -12.679  0.00  0.00    +0.145 HD
ENDBRANCH   6  31
TORSDOF 6
ENDMDL
MODEL 4
REMARK VINA RESULT:     -10.3      1.730      2.368
REMARK  Name = 24871491
REMARK  6 active torsions:
REMARK  status: ('A' for Active; 'I' for Inactive)
REMARK    1  A    between atoms: N_1  and  C_11
REMARK    2  A    between atoms: N_2  and  C_18
REMARK    3  A    between atoms: C_6  and  C_31
REMARK    4  A    between atoms: C_19  and  C_24
REMARK    5  A    between atoms: C_24  and  C_26
REMARK    6  A    between atoms: C_26  and  O_27
REMARK                            x       y       z     vdW  Elec       q    Type
REMARK                         _______ _______ _______ _____ _____    ______ ____
ROOT
ATOM      1  N   UNL     1      36.834 -23.170 -16.174  0.00  0.00    -0.287 N 
ATOM      2  N   UNL     1      33.694 -25.369 -13.430  0.00  0.00    -0.247 N 
ATOM      3  N   UNL     1      35.246 -24.268 -14.799  0.00  0.00    -0.322 NA
ATOM      4  N   UNL     1      35.948 -25.988 -13.265  0.00  0.00    -0.169 NA
ATOM      5  C   UNL     1      36.534 -24.133 -15.180  0.00  0.00    +0.202 C 
ATOM      6  C   UNL     1      37.569 -24.880 -14.656  0.00  0.00    +0.118 C 
ATOM      7  C   UNL     1      35.028 -25.200 -13.851  0.00  0.00    +0.150 C 
ATOM      8  C   UNL     1      37.215 -25.801 -13.692  0.00  0.00    +0.120 C 
ATOM      9  H   UNL     1      37.735 -22.783 -16.092  0.00  0.00    +0.155 HD
ATOM     10  H   UNL     1      33.583 -26.060 -12.738  0.00  0.00    +0.165 HD
ENDROOT
BRANCH   1  11
ATOM     11  C   UNL     1      36.096 -22.660 -17.254  0.00  0.00    +0.050 C 
ATOM     12  C   UNL     1      34.705 -22.778 -17.265  0.00  0.00    +0.010 C 
ATOM     13  C   UNL     1      33.973 -22.271 -18.338  0.00  0.00    -0.021 C 
ATOM     14  C   UNL     1      36.751 -22.036 -18.314  0.00  0.00    +0.015 C 
ATOM     15  C   UNL     1      34.628 -21.646 -19.399  0.00  0.00    -0.004 C 
ATOM     16  C   UNL     1      36.018 -21.529 -19.387  0.00  0.00    +0.001 C 
ATOM     17  C   UNL     1      32.487 -22.398 -18.352  0.00  0.00    +0.031 C 
ENDBRANCH   1  11
BRANCH   2  18
ATOM     18  C   UNL     1      32.488 -24.743 -13.804  0.00  0.00    +0.058 C 
ATOM     19  C   UNL     1      30.101 -23.504 -14.545  0.00  0.00    -0.011 C 
ATOM     20  C   UNL     1      31.273 -25.400 -13.613  0.00  0.00    +0.015 C 
ATOM     21  C   UNL     1      32.510 -23.466 -14.367  0.00  0.00    +0.015 C 
ATOM     22  C   UNL     1      30.079 -24.780 -13.983  0.00  0.00    -0.002 C 
ATOM     23  C   UNL     1      31.316 -22.847 -14.737  0.00  0.00    -0.002 C 
BRANCH  19  24
ATOM     24  C   UNL     1      28.824 -22.842 -14.941  0.00  0.00    +0.136 C 
BRANCH  24  26
ATOM     25  O   UNL     1      28.904 -23.917 -17.124  0.00  0.00    -0.250 OA
ATOM     26  C   UNL     1      28.477 -23.024 -16.405  0.00  0.00    +0.318 C 
BRANCH  26  27
ATOM     27  O   UNL     1      27.622 -22.064 -16.846  0.00  0.00    -0.480 OA
ATOM     28  H   UNL     1      27.944 -21.209 -17.052  0.00  0.00    +0.295 HD
ENDBRANCH  26  27
ENDBRANCH  24  26
ENDBRANCH  19  24
ENDBRANCH   2  18
BRANCH   6  31
ATOM     29  O   UNL     1      39.391 -23.663 -15.521  0.00  0.00    -0.270 OA
ATOM     30  N   UNL     1      39.796 -25.835 -14.908  0.00  0.00    -0.325 N 
ATOM     31  C   UNL     1      38.958 -24.735 -15.064  0.00  0.00    +0.248 C 
ATOM     32  H   UNL     1      40.742 -25.774 -15.174  0.00  0.00    +0.145 HD
ATOM     33  H   UNL     1      39.443 -26.674 -14.533  0.00  0.00    +0.145 HD
ENDBRANCH   6  31
TORSDOF 6
ENDMDL
MODEL 5
REMARK VINA RESULT:      -9.1      2.974      7.580
REMARK  Name = 24871491
REMARK  6 active torsions:
REMARK  status: ('A' for Active; 'I' for Inactive)
REMARK    1  A    between atoms: N_1  and  C_11
REMARK    2  A    between atoms: N_2  and  C_18
REMARK    3  A    between atoms: C_6  and  C_31
REMARK    4  A    between atoms: C_19  and  C_24
REMARK    5  A    between atoms: C_24  and  C_26
REMARK    6  A    between atoms: C_26  and  O_27
REMARK                            x       y       z     vdW  Elec       q    Type
REMARK                         _______ _______ _______ _____ _____    ______ ____
ROOT
ATOM      1  N   UNL     1      32.792 -22.394 -17.266  0.00  0.00    -0.287 N 
ATOM      2  N   UNL     1      37.330 -23.198 -16.275  0.00  0.00    -0.247 N 
ATOM      3  N   UNL     1      35.070 -22.802 -16.755  0.00  0.00    -0.322 NA
ATOM      4  N   UNL     1      36.784 -22.330 -18.382  0.00  0.00    -0.169 NA
ATOM      5  C   UNL     1      34.155 -22.371 -17.649  0.00  0.00    +0.202 C 
ATOM      6  C   UNL     1      34.473 -21.912 -18.911  0.00  0.00    +0.118 C 
ATOM      7  C   UNL     1      36.347 -22.754 -17.182  0.00  0.00    +0.150 C 
ATOM      8  C   UNL     1      35.817 -21.913 -19.226  0.00  0.00    +0.120 C 
ATOM      9  H   UNL     1      32.248 -21.694 -17.693  0.00  0.00    +0.155 HD
ATOM     10  H   UNL     1      38.247 -23.146 -16.630  0.00  0.00    +0.165 HD
ENDROOT
BRANCH   1  11
ATOM     11  C   UNL     1      32.066 -23.222 -16.394  0.00  0.00    +0.050 C 
ATOM     12  C   UNL     1      30.681 -23.329 -16.526  0.00  0.00    +0.010 C 
ATOM     13  C   UNL     1      29.961 -24.152 -15.660  0.00  0.00    -0.021 C 
ATOM     14  C   UNL     1      32.729 -23.938 -15.398  0.00  0.00    +0.015 C 
ATOM     15  C   UNL     1      30.624 -24.868 -14.663  0.00  0.00    -0.004 C 
ATOM     16  C   UNL     1      32.009 -24.760 -14.531  0.00  0.00    +0.001 C 
ATOM     17  C   UNL     1      28.480 -24.266 -15.799  0.00  0.00    +0.031 C 
ENDBRANCH   1  11
BRANCH   2  18
ATOM     18  C   UNL     1      37.259 -23.702 -14.960  0.00  0.00    +0.058 C 
ATOM     19  C   UNL     1      37.118 -24.698 -12.359  0.00  0.00    -0.011 C 
ATOM     20  C   UNL     1      37.287 -25.078 -14.739  0.00  0.00    +0.015 C 
ATOM     21  C   UNL     1      37.161 -22.823 -13.881  0.00  0.00    +0.015 C 
ATOM     22  C   UNL     1      37.216 -25.576 -13.437  0.00  0.00    -0.002 C 
ATOM     23  C   UNL     1      37.090 -23.321 -12.581  0.00  0.00    -0.002 C 
BRANCH  19  24
ATOM     24  C   UNL     1      37.043 -25.231 -10.968  0.00  0.00    +0.136 C 
BRANCH  24  26
ATOM     25  O   UNL     1      35.427 -24.814  -9.194  0.00  0.00    -0.250 OA
ATOM     26  C   UNL     1      35.661 -25.126 -10.354  0.00  0.00    +0.318 C 
BRANCH  26  27
ATOM     27  O   UNL     1      34.684 -25.424 -11.251  0.00  0.00    -0.480 OA
ATOM     28  H   UNL     1      34.022 -26.049 -11.032  0.00  0.00    +0.295 HD
ENDBRANCH  26  27
ENDBRANCH  24  26
ENDBRANCH  19  24
ENDBRANCH   2  18
BRANCH   6  31
ATOM     29  O   UNL     1      32.426 -22.063 -20.066  0.00  0.00    -0.270 OA
ATOM     30  N   UNL     1      33.765 -20.270 -20.565  0.00  0.00    -0.325 N 
ATOM     31  C   UNL     1      33.489 -21.446 -19.874  0.00  0.00    +0.248 C 
ATOM     32  H   UNL     1      33.122 -19.924 -21.226  0.00  0.00    +0.145 HD
ATOM     33  H   UNL     1      34.604 -19.784 -20.394  0.00  0.00    +0.145 HD
ENDBRANCH   6  31
TORSDOF 6
ENDMDL
