MODEL 1
REMARK VINA RESULT:     -12.0      0.000      0.000
REMARK  Name = 9826451
REMARK  9 active torsions:
REMARK  status: ('A' for Active; 'I' for Inactive)
REMARK    1  A    between atoms: C_1  and  N_2
REMARK    2  A    between atoms: C_1  and  C_19
REMARK    3  A    between atoms: C_8  and  O_10
REMARK    4  A    between atoms: O_10  and  C_11
REMARK    5  A    between atoms: C_14  and  O_17
REMARK    6  A    between atoms: C_19  and  O_20
REMARK    7  A    between atoms: O_20  and  C_24
REMARK    8  A    between atoms: C_21  and  C_27
REMARK    9  A    between atoms: C_27  and  C_32
REMARK                            x       y       z     vdW  Elec       q    Type
REMARK                         _______ _______ _______ _____ _____    ______ ____
ROOT
ATOM      1  C   UNL     1      36.159 -22.399 -17.241  0.00  0.00    +0.139 C 
ENDROOT
BRANCH   1   2
ATOM      2  N   UNL     1      34.977 -23.017 -16.688  0.00  0.00    -0.291 N 
ATOM      3  C   UNL     1      33.802 -23.174 -17.548  0.00  0.00    +0.113 C 
ATOM      4  N   UNL     1      36.030 -23.294 -14.585  0.00  0.00    -0.233 NA
ATOM      5  N   UNL     1      34.815 -24.306 -12.767  0.00  0.00    -0.214 NA
ATOM      6  C   UNL     1      34.934 -23.450 -15.357  0.00  0.00    +0.115 C 
ATOM      7  C   UNL     1      33.757 -24.017 -14.910  0.00  0.00    +0.146 C 
ATOM      8  C   UNL     1      33.756 -24.431 -13.593  0.00  0.00    +0.210 C 
ATOM      9  C   UNL     1      35.903 -23.737 -13.320  0.00  0.00    +0.254 C 
BRANCH   8  10
ATOM     10  O   UNL     1      32.625 -25.005 -13.074  0.00  0.00    -0.440 OA
BRANCH  10  11
ATOM     11  C   UNL     1      31.423 -24.697 -13.679  0.00  0.00    +0.147 C 
ATOM     12  C   UNL     1      31.079 -23.365 -13.911  0.00  0.00    +0.041 C 
ATOM     13  C   UNL     1      30.552 -25.719 -14.059  0.00  0.00    +0.041 C 
ATOM     14  C   UNL     1      28.994 -24.076 -14.902  0.00  0.00    +0.139 C 
ATOM     15  C   UNL     1      29.865 -23.055 -14.522  0.00  0.00    +0.040 C 
ATOM     16  C   UNL     1      29.338 -25.408 -14.671  0.00  0.00    +0.040 C 
BRANCH  14  17
ATOM     17  O   UNL     1      27.809 -23.774 -15.500  0.00  0.00    -0.471 OA
ATOM     18  C   UNL     1      27.864 -23.265 -16.832  0.00  0.00    +0.252 C 
ENDBRANCH  14  17
ENDBRANCH  10  11
ENDBRANCH   8  10
ENDBRANCH   1   2
BRANCH   1  19
ATOM     19  C   UNL     1      35.955 -22.116 -18.719  0.00  0.00    +0.227 C 
BRANCH  19  20
ATOM     20  O   UNL     1      36.646 -20.919 -19.073  0.00  0.00    -0.474 OA
BRANCH  20  24
ATOM     21  C   UNL     1      35.330 -18.902 -22.453  0.00  0.00    -0.021 C 
ATOM     22  C   UNL     1      34.459 -19.742 -21.760  0.00  0.00    -0.001 C 
ATOM     23  C   UNL     1      36.643 -18.740 -22.011  0.00  0.00    -0.001 C 
ATOM     24  C   UNL     1      36.214 -20.258 -20.182  0.00  0.00    +0.139 C 
ATOM     25  C   UNL     1      34.901 -20.421 -20.624  0.00  0.00    +0.037 C 
ATOM     26  C   UNL     1      37.085 -19.418 -20.876  0.00  0.00    +0.037 C 
BRANCH  21  27
ATOM     27  C   UNL     1      34.851 -18.170 -23.681  0.00  0.00    +0.047 C 
BRANCH  27  32
ATOM     28  S   UNL     1      34.560 -16.013 -21.992  0.00  0.00    -0.048 S 
ATOM     29  O   UNL     1      34.446 -16.134 -25.848  0.00  0.00    -0.274 OA
ATOM     30  O   UNL     1      32.840 -14.027 -22.065  0.00  0.00    -0.263 OA
ATOM     31  N   UNL     1      33.542 -14.949 -24.079  0.00  0.00    -0.246 N 
ATOM     32  C   UNL     1      35.118 -16.678 -23.591  0.00  0.00    +0.137 C 
ATOM     33  C   UNL     1      34.349 -15.914 -24.645  0.00  0.00    +0.239 C 
ATOM     34  C   UNL     1      33.500 -14.823 -22.715  0.00  0.00    +0.279 C 
ATOM     35  H   UNL     1      33.000 -14.358 -24.650  0.00  0.00    +0.158 HD
ENDBRANCH  27  32
ENDBRANCH  21  27
ENDBRANCH  20  24
ENDBRANCH  19  20
ENDBRANCH   1  19
TORSDOF 9
ENDMDL
MODEL 2
REMARK VINA RESULT:     -11.7      5.864     10.380
REMARK  Name = 9826451
REMARK  9 active torsions:
REMARK  status: ('A' for Active; 'I' for Inactive)
REMARK    1  A    between atoms: C_1  and  N_2
REMARK    2  A    between atoms: C_1  and  C_19
REMARK    3  A    between atoms: C_8  and  O_10
REMARK    4  A    between atoms: O_10  and  C_11
REMARK    5  A    between atoms: C_14  and  O_17
REMARK    6  A    between atoms: C_19  and  O_20
REMARK    7  A    between atoms: O_20  and  C_24
REMARK    8  A    between atoms: C_21  and  C_27
REMARK    9  A    between atoms: C_27  and  C_32
REMARK                            x       y       z     vdW  Elec       q    Type
REMARK                         _______ _______ _______ _____ _____    ______ ____
ROOT
ATOM      1  C   UNL     1      33.720 -14.211 -23.522  0.00  0.00    +0.139 C 
ENDROOT
BRANCH   1   2
ATOM      2  N   UNL     1      34.311 -15.084 -22.536  0.00  0.00    -0.291 N 
ATOM      3  C   UNL     1      34.553 -14.559 -21.192  0.00  0.00    +0.113 C 
ATOM      4  N   UNL     1      34.427 -16.865 -24.094  0.00  0.00    -0.233 NA
ATOM      5  N   UNL     1      35.357 -18.982 -23.418  0.00  0.00    -0.214 NA
ATOM      6  C   UNL     1      34.661 -16.404 -22.847  0.00  0.00    +0.115 C 
ATOM      7  C   UNL     1      35.233 -17.163 -21.845  0.00  0.00    +0.146 C 
ATOM      8  C   UNL     1      35.563 -18.458 -22.192  0.00  0.00    +0.210 C 
ATOM      9  C   UNL     1      34.794 -18.142 -24.307  0.00  0.00    +0.254 C 
BRANCH   8  10
ATOM     10  O   UNL     1      36.135 -19.276 -21.253  0.00  0.00    -0.440 OA
BRANCH  10  11
ATOM     11  C   UNL     1      35.302 -20.147 -20.580  0.00  0.00    +0.147 C 
ATOM     12  C   UNL     1      33.918 -20.013 -20.685  0.00  0.00    +0.041 C 
ATOM     13  C   UNL     1      35.846 -21.164 -19.794  0.00  0.00    +0.041 C 
ATOM     14  C   UNL     1      33.621 -21.910 -19.220  0.00  0.00    +0.139 C 
ATOM     15  C   UNL     1      33.077 -20.894 -20.005  0.00  0.00    +0.040 C 
ATOM     16  C   UNL     1      35.006 -22.046 -19.115  0.00  0.00    +0.040 C 
BRANCH  14  17
ATOM     17  O   UNL     1      32.801 -22.771 -18.557  0.00  0.00    -0.471 OA
ATOM     18  C   UNL     1      33.336 -23.421 -17.405  0.00  0.00    +0.252 C 
ENDBRANCH  14  17
ENDBRANCH  10  11
ENDBRANCH   8  10
ENDBRANCH   1   2
BRANCH   1  19
ATOM     19  C   UNL     1      33.272 -12.915 -22.867  0.00  0.00    +0.227 C 
BRANCH  19  20
ATOM     20  O   UNL     1      33.795 -11.808 -23.599  0.00  0.00    -0.474 OA
BRANCH  20  24
ATOM     21  C   UNL     1      32.777  -8.011 -22.269  0.00  0.00    -0.021 C 
ATOM     22  C   UNL     1      33.927  -8.195 -23.036  0.00  0.00    -0.001 C 
ATOM     23  C   UNL     1      31.969  -9.102 -21.948  0.00  0.00    -0.001 C 
ATOM     24  C   UNL     1      33.462 -10.562 -23.162  0.00  0.00    +0.139 C 
ATOM     25  C   UNL     1      34.270  -9.471 -23.483  0.00  0.00    +0.037 C 
ATOM     26  C   UNL     1      32.312 -10.377 -22.394  0.00  0.00    +0.037 C 
BRANCH  21  27
ATOM     27  C   UNL     1      32.408  -6.631 -21.786  0.00  0.00    +0.047 C 
BRANCH  27  32
ATOM     28  S   UNL     1      32.137  -4.896 -23.908  0.00  0.00    -0.048 S 
ATOM     29  O   UNL     1      29.770  -5.493 -20.919  0.00  0.00    -0.274 OA
ATOM     30  O   UNL     1      31.345  -2.390 -23.955  0.00  0.00    -0.263 OA
ATOM     31  N   UNL     1      30.425  -3.805 -22.358  0.00  0.00    -0.246 N 
ATOM     32  C   UNL     1      31.360  -5.982 -22.672  0.00  0.00    +0.137 C 
ATOM     33  C   UNL     1      30.431  -5.096 -21.873  0.00  0.00    +0.239 C 
ATOM     34  C   UNL     1      31.234  -3.480 -23.415  0.00  0.00    +0.279 C 
ATOM     35  H   UNL     1      29.846  -3.123 -21.948  0.00  0.00    +0.158 HD
ENDBRANCH  27  32
ENDBRANCH  21  27
ENDBRANCH  20  24
ENDBRANCH  19  20
ENDBRANCH   1  19
TORSDOF 9
ENDMDL
MODEL 3
REMARK VINA RESULT:     -11.5      2.561      4.984
REMARK  Name = 9826451
REMARK  9 active torsions:
REMARK  status: ('A' for Active; 'I' for Inactive)
REMARK    1  A    between atoms: C_1  and  N_2
REMARK    2  A    between atoms: C_1  and  C_19
REMARK    3  A    between atoms: C_8  and  O_10
REMARK    4  A    between atoms: O_10  and  C_11
REMARK    5  A    between atoms: C_14  and  O_17
REMARK    6  A    between atoms: C_19  and  O_20
REMARK    7  A    between atoms: O_20  and  C_24
REMARK    8  A    between atoms: C_21  and  C_27
REMARK    9  A    between atoms: C_27  and  C_32
REMARK                            x       y       z     vdW  Elec       q    Type
REMARK                         _______ _______ _______ _____ _____    ______ ____
ROOT
ATOM      1  C   UNL     1      33.616 -22.250 -19.492  0.00  0.00    +0.139 C 
ENDROOT
BRANCH   1   2
ATOM      2  N   UNL     1      34.349 -22.567 -18.289  0.00  0.00    -0.291 N 
ATOM      3  C   UNL     1      35.794 -22.337 -18.269  0.00  0.00    +0.113 C 
ATOM      4  N   UNL     1      32.374 -23.299 -17.205  0.00  0.00    -0.233 NA
ATOM      5  N   UNL     1      32.489 -24.128 -14.947  0.00  0.00    -0.214 NA
ATOM      6  C   UNL     1      33.707 -23.096 -17.161  0.00  0.00    +0.115 C 
ATOM      7  C   UNL     1      34.489 -23.382 -16.060  0.00  0.00    +0.146 C 
ATOM      8  C   UNL     1      33.819 -23.901 -14.971  0.00  0.00    +0.210 C 
ATOM      9  C   UNL     1      31.838 -23.809 -16.081  0.00  0.00    +0.254 C 
BRANCH   8  10
ATOM     10  O   UNL     1      34.525 -24.210 -13.838  0.00  0.00    -0.440 OA
BRANCH  10  11
ATOM     11  C   UNL     1      35.701 -24.915 -13.996  0.00  0.00    +0.147 C 
ATOM     12  C   UNL     1      36.902 -24.384 -13.526  0.00  0.00    +0.041 C 
ATOM     13  C   UNL     1      35.688 -26.160 -14.626  0.00  0.00    +0.041 C 
ATOM     14  C   UNL     1      38.077 -26.341 -14.316  0.00  0.00    +0.139 C 
ATOM     15  C   UNL     1      38.090 -25.097 -13.686  0.00  0.00    +0.040 C 
ATOM     16  C   UNL     1      36.876 -26.873 -14.785  0.00  0.00    +0.040 C 
BRANCH  14  17
ATOM     17  O   UNL     1      39.236 -27.038 -14.471  0.00  0.00    -0.471 OA
ATOM     18  C   UNL     1      40.455 -26.332 -14.241  0.00  0.00    +0.252 C 
ENDBRANCH  14  17
ENDBRANCH  10  11
ENDBRANCH   8  10
ENDBRANCH   1   2
BRANCH   1  19
ATOM     19  C   UNL     1      33.881 -20.810 -19.898  0.00  0.00    +0.227 C 
BRANCH  19  20
ATOM     20  O   UNL     1      34.831 -20.784 -20.962  0.00  0.00    -0.474 OA
BRANCH  20  24
ATOM     21  C   UNL     1      35.133 -17.268 -23.145  0.00  0.00    -0.021 C 
ATOM     22  C   UNL     1      35.282 -17.242 -21.759  0.00  0.00    -0.001 C 
ATOM     23  C   UNL     1      34.882 -18.475 -23.798  0.00  0.00    -0.001 C 
ATOM     24  C   UNL     1      34.930 -19.631 -21.677  0.00  0.00    +0.139 C 
ATOM     25  C   UNL     1      35.181 -18.423 -21.025  0.00  0.00    +0.037 C 
ATOM     26  C   UNL     1      34.779 -19.655 -23.064  0.00  0.00    +0.037 C 
BRANCH  21  27
ATOM     27  C   UNL     1      35.242 -15.990 -23.938  0.00  0.00    +0.047 C 
BRANCH  27  32
ATOM     28  S   UNL     1      33.317 -15.402 -25.818  0.00  0.00    -0.048 S 
ATOM     29  O   UNL     1      34.391 -13.391 -22.704  0.00  0.00    -0.274 OA
ATOM     30  O   UNL     1      32.760 -13.130 -27.016  0.00  0.00    -0.263 OA
ATOM     31  N   UNL     1      33.560 -13.057 -24.837  0.00  0.00    -0.246 N 
ATOM     32  C   UNL     1      33.898 -15.304 -24.096  0.00  0.00    +0.137 C 
ATOM     33  C   UNL     1      33.989 -13.828 -23.777  0.00  0.00    +0.239 C 
ATOM     34  C   UNL     1      33.161 -13.668 -25.996  0.00  0.00    +0.279 C 
ATOM     35  H   UNL     1      33.542 -12.075 -24.760  0.00  0.00    +0.158 HD
ENDBRANCH  27  32
ENDBRANCH  21  27
ENDBRANCH  20  24
ENDBRANCH  19  20
ENDBRANCH   1  19
TORSDOF 9
ENDMDL
MODEL 4
REMARK VINA RESULT:     -11.5      3.688     11.389
REMARK  Name = 9826451
REMARK  9 active torsions:
REMARK  status: ('A' for Active; 'I' for Inactive)
REMARK    1  A    between atoms: C_1  and  N_2
REMARK    2  A    between atoms: C_1  and  C_19
REMARK    3  A    between atoms: C_8  and  O_10
REMARK    4  A    between atoms: O_10  and  C_11
REMARK    5  A    between atoms: C_14  and  O_17
REMARK    6  A    between atoms: C_19  and  O_20
REMARK    7  A    between atoms: O_20  and  C_24
REMARK    8  A    between atoms: C_21  and  C_27
REMARK    9  A    between atoms: C_27  and  C_32
REMARK                            x       y       z     vdW  Elec       q    Type
REMARK                         _______ _______ _______ _____ _____    ______ ____
ROOT
ATOM      1  C   UNL     1      35.834 -17.724 -22.720  0.00  0.00    +0.139 C 
ENDROOT
BRANCH   1   2
ATOM      2  N   UNL     1      34.922 -16.694 -23.156  0.00  0.00    -0.291 N 
ATOM      3  C   UNL     1      34.677 -16.538 -24.591  0.00  0.00    +0.113 C 
ATOM      4  N   UNL     1      34.528 -16.010 -20.923  0.00  0.00    -0.233 NA
ATOM      5  N   UNL     1      33.030 -14.176 -20.484  0.00  0.00    -0.214 NA
ATOM      6  C   UNL     1      34.286 -15.846 -22.241  0.00  0.00    +0.115 C 
ATOM      7  C   UNL     1      33.440 -14.881 -22.749  0.00  0.00    +0.146 C 
ATOM      8  C   UNL     1      32.833 -14.066 -21.814  0.00  0.00    +0.210 C 
ATOM      9  C   UNL     1      33.877 -15.154 -20.114  0.00  0.00    +0.254 C 
BRANCH   8  10
ATOM     10  O   UNL     1      31.979 -13.083 -22.239  0.00  0.00    -0.440 OA
BRANCH  10  11
ATOM     11  C   UNL     1      31.957 -11.906 -21.519  0.00  0.00    +0.147 C 
ATOM     12  C   UNL     1      31.564 -11.913 -20.181  0.00  0.00    +0.041 C 
ATOM     13  C   UNL     1      32.330 -10.708 -22.130  0.00  0.00    +0.041 C 
ATOM     14  C   UNL     1      31.915  -9.526 -20.064  0.00  0.00    +0.139 C 
ATOM     15  C   UNL     1      31.543 -10.723 -19.453  0.00  0.00    +0.040 C 
ATOM     16  C   UNL     1      32.310  -9.519 -21.403  0.00  0.00    +0.040 C 
BRANCH  14  17
ATOM     17  O   UNL     1      31.896  -8.364 -19.355  0.00  0.00    -0.471 OA
ATOM     18  C   UNL     1      32.580  -7.246 -19.919  0.00  0.00    +0.252 C 
ENDBRANCH  14  17
ENDBRANCH  10  11
ENDBRANCH   8  10
ENDBRANCH   1   2
BRANCH   1  19
ATOM     19  C   UNL     1      35.063 -18.865 -22.078  0.00  0.00    +0.227 C 
BRANCH  19  20
ATOM     20  O   UNL     1      35.898 -19.527 -21.129  0.00  0.00    -0.474 OA
BRANCH  20  24
ATOM     21  C   UNL     1      34.134 -22.458 -18.778  0.00  0.00    -0.021 C 
ATOM     22  C   UNL     1      33.337 -21.581 -19.513  0.00  0.00    -0.001 C 
ATOM     23  C   UNL     1      35.524 -22.351 -18.834  0.00  0.00    -0.001 C 
ATOM     24  C   UNL     1      35.319 -20.488 -20.358  0.00  0.00    +0.139 C 
ATOM     25  C   UNL     1      33.929 -20.595 -20.302  0.00  0.00    +0.037 C 
ATOM     26  C   UNL     1      36.116 -21.365 -19.623  0.00  0.00    +0.037 C 
BRANCH  21  27
ATOM     27  C   UNL     1      33.494 -23.523 -17.925  0.00  0.00    +0.047 C 
BRANCH  27  32
ATOM     28  S   UNL     1      34.133 -23.890 -15.271  0.00  0.00    -0.048 S 
ATOM     29  O   UNL     1      30.773 -22.847 -16.856  0.00  0.00    -0.274 OA
ATOM     30  O   UNL     1      32.787 -25.086 -13.356  0.00  0.00    -0.263 OA
ATOM     31  N   UNL     1      31.593 -23.998 -15.026  0.00  0.00    -0.246 N 
ATOM     32  C   UNL     1      33.162 -23.012 -16.535  0.00  0.00    +0.137 C 
ATOM     33  C   UNL     1      31.712 -23.260 -16.185  0.00  0.00    +0.239 C 
ATOM     34  C   UNL     1      32.724 -24.427 -14.383  0.00  0.00    +0.279 C 
ATOM     35  H   UNL     1      30.703 -24.215 -14.665  0.00  0.00    +0.158 HD
ENDBRANCH  27  32
ENDBRANCH  21  27
ENDBRANCH  20  24
ENDBRANCH  19  20
ENDBRANCH   1  19
TORSDOF 9
ENDMDL
MODEL 5
REMARK VINA RESULT:     -11.4      3.418     11.194
REMARK  Name = 9826451
REMARK  9 active torsions:
REMARK  status: ('A' for Active; 'I' for Inactive)
REMARK    1  A    between atoms: C_1  and  N_2
REMARK    2  A    between atoms: C_1  and  C_19
REMARK    3  A    between atoms: C_8  and  O_10
REMARK    4  A    between atoms: O_10  and  C_11
REMARK    5  A    between atoms: C_14  and  O_17
REMARK    6  A    between atoms: C_19  and  O_20
REMARK    7  A    between atoms: O_20  and  C_24
REMARK    8  A    between atoms: C_21  and  C_27
REMARK    9  A    between atoms: C_27  and  C_32
REMARK                            x       y       z     vdW  Elec       q    Type
REMARK                         _______ _______ _______ _____ _____    ______ ____
ROOT
ATOM      1  C   UNL     1      34.516 -21.852 -18.854  0.00  0.00    +0.139 C 
ENDROOT
BRANCH   1   2
ATOM      2  N   UNL     1      34.196 -20.934 -19.922  0.00  0.00    -0.291 N 
ATOM      3  C   UNL     1      32.804 -20.835 -20.364  0.00  0.00    +0.113 C 
ATOM      4  N   UNL     1      36.460 -20.268 -20.113  0.00  0.00    -0.233 NA
ATOM      5  N   UNL     1      37.087 -18.631 -21.766  0.00  0.00    -0.214 NA
ATOM      6  C   UNL     1      35.185 -20.158 -20.540  0.00  0.00    +0.115 C 
ATOM      7  C   UNL     1      34.789 -19.318 -21.561  0.00  0.00    +0.146 C 
ATOM      8  C   UNL     1      35.793 -18.571 -22.143  0.00  0.00    +0.210 C 
ATOM      9  C   UNL     1      37.346 -19.488 -20.761  0.00  0.00    +0.254 C 
BRANCH   8  10
ATOM     10  O   UNL     1      35.480 -17.712 -23.163  0.00  0.00    -0.440 OA
BRANCH  10  11
ATOM     11  C   UNL     1      34.829 -16.541 -22.830  0.00  0.00    +0.147 C 
ATOM     12  C   UNL     1      34.307 -15.723 -23.832  0.00  0.00    +0.041 C 
ATOM     13  C   UNL     1      34.692 -16.177 -21.490  0.00  0.00    +0.041 C 
ATOM     14  C   UNL     1      33.512 -14.177 -22.156  0.00  0.00    +0.139 C 
ATOM     15  C   UNL     1      33.649 -14.541 -23.495  0.00  0.00    +0.040 C 
ATOM     16  C   UNL     1      34.033 -14.995 -21.153  0.00  0.00    +0.040 C 
BRANCH  14  17
ATOM     17  O   UNL     1      32.868 -13.023 -21.826  0.00  0.00    -0.471 OA
ATOM     18  C   UNL     1      32.008 -13.061 -20.688  0.00  0.00    +0.252 C 
ENDBRANCH  14  17
ENDBRANCH  10  11
ENDBRANCH   8  10
ENDBRANCH   1   2
BRANCH   1  19
ATOM     19  C   UNL     1      33.471 -22.952 -18.782  0.00  0.00    +0.227 C 
BRANCH  19  20
ATOM     20  O   UNL     1      32.704 -22.800 -17.589  0.00  0.00    -0.474 OA
BRANCH  20  24
ATOM     21  C   UNL     1      34.226 -24.521 -14.132  0.00  0.00    -0.021 C 
ATOM     22  C   UNL     1      32.941 -23.978 -14.133  0.00  0.00    -0.001 C 
ATOM     23  C   UNL     1      35.000 -24.485 -15.292  0.00  0.00    -0.001 C 
ATOM     24  C   UNL     1      33.203 -23.364 -16.455  0.00  0.00    +0.139 C 
ATOM     25  C   UNL     1      32.429 -23.399 -15.294  0.00  0.00    +0.037 C 
ATOM     26  C   UNL     1      34.488 -23.906 -16.452  0.00  0.00    +0.037 C 
BRANCH  21  27
ATOM     27  C   UNL     1      34.778 -25.145 -12.876  0.00  0.00    +0.047 C 
BRANCH  27  32
ATOM     28  S   UNL     1      36.827 -23.315 -12.682  0.00  0.00    -0.048 S 
ATOM     29  O   UNL     1      35.136 -25.397  -9.907  0.00  0.00    -0.274 OA
ATOM     30  O   UNL     1      39.067 -23.421 -11.311  0.00  0.00    -0.263 OA
ATOM     31  N   UNL     1      37.188 -24.467 -10.432  0.00  0.00    -0.246 N 
ATOM     32  C   UNL     1      35.368 -24.107 -11.938  0.00  0.00    +0.137 C 
ATOM     33  C   UNL     1      35.854 -24.737 -10.651  0.00  0.00    +0.239 C 
ATOM     34  C   UNL     1      37.889 -23.740 -11.358  0.00  0.00    +0.279 C 
ATOM     35  H   UNL     1      37.633 -24.794  -9.617  0.00  0.00    +0.158 HD
ENDBRANCH  27  32
ENDBRANCH  21  27
ENDBRANCH  20  24
ENDBRANCH  19  20
ENDBRANCH   1  19
TORSDOF 9
ENDMDL
MODEL 6
REMARK VINA RESULT:     -11.3      3.797     11.678
REMARK  Name = 9826451
REMARK  9 active torsions:
REMARK  status: ('A' for Active; 'I' for Inactive)
REMARK    1  A    between atoms: C_1  and  N_2
REMARK    2  A    between atoms: C_1  and  C_19
REMARK    3  A    between atoms: C_8  and  O_10
REMARK    4  A    between atoms: O_10  and  C_11
REMARK    5  A    between atoms: C_14  and  O_17
REMARK    6  A    between atoms: C_19  and  O_20
REMARK    7  A    between atoms: O_20  and  C_24
REMARK    8  A    between atoms: C_21  and  C_27
REMARK    9  A    between atoms: C_27  and  C_32
REMARK                            x       y       z     vdW  Elec       q    Type
REMARK                         _______ _______ _______ _____ _____    ______ ____
ROOT
ATOM      1  C   UNL     1      35.609 -16.966 -22.040  0.00  0.00    +0.139 C 
ENDROOT
BRANCH   1   2
ATOM      2  N   UNL     1      34.510 -16.211 -21.486  0.00  0.00    -0.291 N 
ATOM      3  C   UNL     1      33.941 -16.642 -20.208  0.00  0.00    +0.113 C 
ATOM      4  N   UNL     1      34.523 -14.721 -23.326  0.00  0.00    -0.233 NA
ATOM      5  N   UNL     1      32.924 -12.921 -23.415  0.00  0.00    -0.214 NA
ATOM      6  C   UNL     1      33.980 -15.097 -22.149  0.00  0.00    +0.115 C 
ATOM      7  C   UNL     1      32.922 -14.444 -21.551  0.00  0.00    +0.146 C 
ATOM      8  C   UNL     1      32.429 -13.352 -22.236  0.00  0.00    +0.210 C 
ATOM      9  C   UNL     1      33.955 -13.641 -23.896  0.00  0.00    +0.254 C 
BRANCH   8  10
ATOM     10  O   UNL     1      31.378 -12.650 -21.707  0.00  0.00    -0.440 OA
BRANCH  10  11
ATOM     11  C   UNL     1      31.667 -11.460 -21.070  0.00  0.00    +0.147 C 
ATOM     12  C   UNL     1      31.891 -10.303 -21.816  0.00  0.00    +0.041 C 
ATOM     13  C   UNL     1      31.735 -11.414 -19.676  0.00  0.00    +0.041 C 
ATOM     14  C   UNL     1      32.249  -9.056 -19.779  0.00  0.00    +0.139 C 
ATOM     15  C   UNL     1      32.182  -9.102 -21.172  0.00  0.00    +0.040 C 
ATOM     16  C   UNL     1      32.025 -10.213 -19.032  0.00  0.00    +0.040 C 
BRANCH  14  17
ATOM     17  O   UNL     1      32.533  -7.883 -19.149  0.00  0.00    -0.471 OA
ATOM     18  C   UNL     1      32.804  -6.751 -19.974  0.00  0.00    +0.252 C 
ENDBRANCH  14  17
ENDBRANCH  10  11
ENDBRANCH   8  10
ENDBRANCH   1   2
BRANCH   1  19
ATOM     19  C   UNL     1      35.221 -18.429 -22.175  0.00  0.00    +0.227 C 
BRANCH  19  20
ATOM     20  O   UNL     1      36.056 -19.221 -21.333  0.00  0.00    -0.474 OA
BRANCH  20  24
ATOM     21  C   UNL     1      34.213 -22.176 -19.077  0.00  0.00    -0.021 C 
ATOM     22  C   UNL     1      33.441 -21.276 -19.810  0.00  0.00    -0.001 C 
ATOM     23  C   UNL     1      35.605 -22.084 -19.101  0.00  0.00    -0.001 C 
ATOM     24  C   UNL     1      35.451 -20.190 -20.593  0.00  0.00    +0.139 C 
ATOM     25  C   UNL     1      34.060 -20.282 -20.568  0.00  0.00    +0.037 C 
ATOM     26  C   UNL     1      36.223 -21.090 -19.859  0.00  0.00    +0.037 C 
BRANCH  21  27
ATOM     27  C   UNL     1      33.543 -23.250 -18.258  0.00  0.00    +0.047 C 
BRANCH  27  32
ATOM     28  S   UNL     1      34.525 -23.613 -15.710  0.00  0.00    -0.048 S 
ATOM     29  O   UNL     1      30.911 -22.900 -16.860  0.00  0.00    -0.274 OA
ATOM     30  O   UNL     1      33.546 -24.996 -13.700  0.00  0.00    -0.263 OA
ATOM     31  N   UNL     1      32.057 -24.002 -15.180  0.00  0.00    -0.246 N 
ATOM     32  C   UNL     1      33.325 -22.813 -16.820  0.00  0.00    +0.137 C 
ATOM     33  C   UNL     1      31.960 -23.226 -16.317  0.00  0.00    +0.239 C 
ATOM     34  C   UNL     1      33.294 -24.322 -14.687  0.00  0.00    +0.279 C 
ATOM     35  H   UNL     1      31.243 -24.323 -14.728  0.00  0.00    +0.158 HD
ENDBRANCH  27  32
ENDBRANCH  21  27
ENDBRANCH  20  24
ENDBRANCH  19  20
ENDBRANCH   1  19
TORSDOF 9
ENDMDL
MODEL 7
REMARK VINA RESULT:     -11.3      3.769     11.045
REMARK  Name = 9826451
REMARK  9 active torsions:
REMARK  status: ('A' for Active; 'I' for Inactive)
REMARK    1  A    between atoms: C_1  and  N_2
REMARK    2  A    between atoms: C_1  and  C_19
REMARK    3  A    between atoms: C_8  and  O_10
REMARK    4  A    between atoms: O_10  and  C_11
REMARK    5  A    between atoms: C_14  and  O_17
REMARK    6  A    between atoms: C_19  and  O_20
REMARK    7  A    between atoms: O_20  and  C_24
REMARK    8  A    between atoms: C_21  and  C_27
REMARK    9  A    between atoms: C_27  and  C_32
REMARK                            x       y       z     vdW  Elec       q    Type
REMARK                         _______ _______ _______ _____ _____    ______ ____
ROOT
ATOM      1  C   UNL     1      34.618 -22.185 -19.025  0.00  0.00    +0.139 C 
ENDROOT
BRANCH   1   2
ATOM      2  N   UNL     1      34.247 -21.113 -19.918  0.00  0.00    -0.291 N 
ATOM      3  C   UNL     1      32.833 -20.941 -20.254  0.00  0.00    +0.113 C 
ATOM      4  N   UNL     1      36.505 -20.435 -20.143  0.00  0.00    -0.233 NA
ATOM      5  N   UNL     1      37.054 -18.566 -21.560  0.00  0.00    -0.214 NA
ATOM      6  C   UNL     1      35.208 -20.255 -20.469  0.00  0.00    +0.115 C 
ATOM      7  C   UNL     1      34.762 -19.266 -21.322  0.00  0.00    +0.146 C 
ATOM      8  C   UNL     1      35.740 -18.442 -21.843  0.00  0.00    +0.210 C 
ATOM      9  C   UNL     1      37.361 -19.568 -20.716  0.00  0.00    +0.254 C 
BRANCH   8  10
ATOM     10  O   UNL     1      35.379 -17.435 -22.699  0.00  0.00    -0.440 OA
BRANCH  10  11
ATOM     11  C   UNL     1      34.686 -16.367 -22.165  0.00  0.00    +0.147 C 
ATOM     12  C   UNL     1      34.523 -16.260 -20.784  0.00  0.00    +0.041 C 
ATOM     13  C   UNL     1      34.150 -15.392 -23.008  0.00  0.00    +0.041 C 
ATOM     14  C   UNL     1      33.288 -14.207 -21.088  0.00  0.00    +0.139 C 
ATOM     15  C   UNL     1      33.824 -15.181 -20.245  0.00  0.00    +0.040 C 
ATOM     16  C   UNL     1      33.452 -14.313 -22.469  0.00  0.00    +0.040 C 
BRANCH  14  17
ATOM     17  O   UNL     1      32.606 -13.153 -20.562  0.00  0.00    -0.471 OA
ATOM     18  C   UNL     1      31.889 -12.323 -21.474  0.00  0.00    +0.252 C 
ENDBRANCH  14  17
ENDBRANCH  10  11
ENDBRANCH   8  10
ENDBRANCH   1   2
BRANCH   1  19
ATOM     19  C   UNL     1      33.479 -22.482 -18.065  0.00  0.00    +0.227 C 
BRANCH  19  20
ATOM     20  O   UNL     1      33.731 -23.716 -17.396  0.00  0.00    -0.474 OA
BRANCH  20  24
ATOM     21  C   UNL     1      35.911 -23.544 -13.868  0.00  0.00    -0.021 C 
ATOM     22  C   UNL     1      34.686 -24.211 -13.899  0.00  0.00    -0.001 C 
ATOM     23  C   UNL     1      36.403 -22.934 -15.022  0.00  0.00    -0.001 C 
ATOM     24  C   UNL     1      34.446 -23.659 -16.238  0.00  0.00    +0.139 C 
ATOM     25  C   UNL     1      33.953 -24.269 -15.084  0.00  0.00    +0.037 C 
ATOM     26  C   UNL     1      35.670 -22.991 -16.206  0.00  0.00    +0.037 C 
BRANCH  21  27
ATOM     27  C   UNL     1      36.702 -23.482 -12.586  0.00  0.00    +0.047 C 
BRANCH  27  32
ATOM     28  S   UNL     1      38.320 -25.208 -13.998  0.00  0.00    -0.048 S 
ATOM     29  O   UNL     1      36.142 -25.890 -10.886  0.00  0.00    -0.274 OA
ATOM     30  O   UNL     1      37.890 -27.685 -14.765  0.00  0.00    -0.263 OA
ATOM     31  N   UNL     1      36.935 -26.969 -12.772  0.00  0.00    -0.246 N 
ATOM     32  C   UNL     1      37.591 -24.700 -12.410  0.00  0.00    +0.137 C 
ATOM     33  C   UNL     1      36.804 -25.894 -11.918  0.00  0.00    +0.239 C 
ATOM     34  C   UNL     1      37.681 -26.835 -13.913  0.00  0.00    +0.279 C 
ATOM     35  H   UNL     1      36.494 -27.824 -12.564  0.00  0.00    +0.158 HD
ENDBRANCH  27  32
ENDBRANCH  21  27
ENDBRANCH  20  24
ENDBRANCH  19  20
ENDBRANCH   1  19
TORSDOF 9
ENDMDL
MODEL 8
REMARK VINA RESULT:     -11.3      5.053     13.136
REMARK  Name = 9826451
REMARK  9 active torsions:
REMARK  status: ('A' for Active; 'I' for Inactive)
REMARK    1  A    between atoms: C_1  and  N_2
REMARK    2  A    between atoms: C_1  and  C_19
REMARK    3  A    between atoms: C_8  and  O_10
REMARK    4  A    between atoms: O_10  and  C_11
REMARK    5  A    between atoms: C_14  and  O_17
REMARK    6  A    between atoms: C_19  and  O_20
REMARK    7  A    between atoms: O_20  and  C_24
REMARK    8  A    between atoms: C_21  and  C_27
REMARK    9  A    between atoms: C_27  and  C_32
REMARK                            x       y       z     vdW  Elec       q    Type
REMARK                         _______ _______ _______ _____ _____    ______ ____
ROOT
ATOM      1  C   UNL     1      32.825 -14.090 -22.857  0.00  0.00    +0.139 C 
ENDROOT
BRANCH   1   2
ATOM      2  N   UNL     1      32.936 -12.655 -22.749  0.00  0.00    -0.291 N 
ATOM      3  C   UNL     1      33.732 -11.937 -23.746  0.00  0.00    +0.113 C 
ATOM      4  N   UNL     1      31.583 -12.635 -20.805  0.00  0.00    -0.233 NA
ATOM      5  N   UNL     1      31.109 -10.546 -19.703  0.00  0.00    -0.214 NA
ATOM      6  C   UNL     1      32.312 -11.950 -21.712  0.00  0.00    +0.115 C 
ATOM      7  C   UNL     1      32.483 -10.581 -21.680  0.00  0.00    +0.146 C 
ATOM      8  C   UNL     1      31.852  -9.924 -20.642  0.00  0.00    +0.210 C 
ATOM      9  C   UNL     1      31.019 -11.881 -19.843  0.00  0.00    +0.254 C 
BRANCH   8  10
ATOM     10  O   UNL     1      31.974  -8.563 -20.541  0.00  0.00    -0.440 OA
BRANCH  10  11
ATOM     11  C   UNL     1      32.188  -7.857 -21.708  0.00  0.00    +0.147 C 
ATOM     12  C   UNL     1      31.134  -7.637 -22.594  0.00  0.00    +0.041 C 
ATOM     13  C   UNL     1      33.460  -7.362 -22.000  0.00  0.00    +0.041 C 
ATOM     14  C   UNL     1      32.621  -6.429 -24.065  0.00  0.00    +0.139 C 
ATOM     15  C   UNL     1      31.350  -6.923 -23.773  0.00  0.00    +0.040 C 
ATOM     16  C   UNL     1      33.676  -6.648 -23.178  0.00  0.00    +0.040 C 
BRANCH  14  17
ATOM     17  O   UNL     1      32.833  -5.732 -25.214  0.00  0.00    -0.471 OA
ATOM     18  C   UNL     1      34.188  -5.462 -25.571  0.00  0.00    +0.252 C 
ENDBRANCH  14  17
ENDBRANCH  10  11
ENDBRANCH   8  10
ENDBRANCH   1   2
BRANCH   1  19
ATOM     19  C   UNL     1      33.848 -14.618 -23.849  0.00  0.00    +0.227 C 
BRANCH  19  20
ATOM     20  O   UNL     1      35.000 -15.076 -23.144  0.00  0.00    -0.474 OA
BRANCH  20  24
ATOM     21  C   UNL     1      35.012 -19.042 -21.919  0.00  0.00    -0.021 C 
ATOM     22  C   UNL     1      34.983 -18.020 -20.971  0.00  0.00    -0.001 C 
ATOM     23  C   UNL     1      35.038 -18.732 -23.279  0.00  0.00    -0.001 C 
ATOM     24  C   UNL     1      35.005 -16.377 -22.742  0.00  0.00    +0.139 C 
ATOM     25  C   UNL     1      34.979 -16.687 -21.382  0.00  0.00    +0.037 C 
ATOM     26  C   UNL     1      35.035 -17.399 -23.690  0.00  0.00    +0.037 C 
BRANCH  21  27
ATOM     27  C   UNL     1      35.016 -20.482 -21.473  0.00  0.00    +0.047 C 
BRANCH  27  32
ATOM     28  S   UNL     1      35.445 -21.994 -19.212  0.00  0.00    -0.048 S 
ATOM     29  O   UNL     1      32.204 -20.298 -20.441  0.00  0.00    -0.274 OA
ATOM     30  O   UNL     1      33.973 -23.888 -18.137  0.00  0.00    -0.263 OA
ATOM     31  N   UNL     1      32.897 -22.153 -19.247  0.00  0.00    -0.246 N 
ATOM     32  C   UNL     1      34.563 -20.631 -20.032  0.00  0.00    +0.137 C 
ATOM     33  C   UNL     1      33.094 -20.982 -19.947  0.00  0.00    +0.239 C 
ATOM     34  C   UNL     1      33.980 -22.843 -18.769  0.00  0.00    +0.279 C 
ATOM     35  H   UNL     1      31.985 -22.491 -19.092  0.00  0.00    +0.158 HD
ENDBRANCH  27  32
ENDBRANCH  21  27
ENDBRANCH  20  24
ENDBRANCH  19  20
ENDBRANCH   1  19
TORSDOF 9
ENDMDL
MODEL 9
REMARK VINA RESULT:     -11.2      6.025     11.421
REMARK  Name = 9826451
REMARK  9 active torsions:
REMARK  status: ('A' for Active; 'I' for Inactive)
REMARK    1  A    between atoms: C_1  and  N_2
REMARK    2  A    between atoms: C_1  and  C_19
REMARK    3  A    between atoms: C_8  and  O_10
REMARK    4  A    between atoms: O_10  and  C_11
REMARK    5  A    between atoms: C_14  and  O_17
REMARK    6  A    between atoms: C_19  and  O_20
REMARK    7  A    between atoms: O_20  and  C_24
REMARK    8  A    between atoms: C_21  and  C_27
REMARK    9  A    between atoms: C_27  and  C_32
REMARK                            x       y       z     vdW  Elec       q    Type
REMARK                         _______ _______ _______ _____ _____    ______ ____
ROOT
ATOM      1  C   UNL     1      32.706 -13.109 -21.766  0.00  0.00    +0.139 C 
ENDROOT
BRANCH   1   2
ATOM      2  N   UNL     1      33.529 -14.294 -21.762  0.00  0.00    -0.291 N 
ATOM      3  C   UNL     1      34.141 -14.718 -20.502  0.00  0.00    +0.113 C 
ATOM      4  N   UNL     1      33.183 -14.617 -24.083  0.00  0.00    -0.233 NA
ATOM      5  N   UNL     1      34.225 -16.482 -25.197  0.00  0.00    -0.214 NA
ATOM      6  C   UNL     1      33.758 -15.028 -22.934  0.00  0.00    +0.115 C 
ATOM      7  C   UNL     1      34.570 -16.141 -22.839  0.00  0.00    +0.146 C 
ATOM      8  C   UNL     1      34.769 -16.836 -24.015  0.00  0.00    +0.210 C 
ATOM      9  C   UNL     1      33.455 -15.379 -25.160  0.00  0.00    +0.254 C 
BRANCH   8  10
ATOM     10  O   UNL     1      35.563 -17.953 -24.003  0.00  0.00    -0.440 OA
BRANCH  10  11
ATOM     11  C   UNL     1      35.595 -18.696 -22.840  0.00  0.00    +0.147 C 
ATOM     12  C   UNL     1      34.484 -19.449 -22.461  0.00  0.00    +0.041 C 
ATOM     13  C   UNL     1      36.742 -18.694 -22.043  0.00  0.00    +0.041 C 
ATOM     14  C   UNL     1      35.663 -20.197 -20.490  0.00  0.00    +0.139 C 
ATOM     15  C   UNL     1      34.518 -20.200 -21.286  0.00  0.00    +0.040 C 
ATOM     16  C   UNL     1      36.776 -19.445 -20.869  0.00  0.00    +0.040 C 
BRANCH  14  17
ATOM     17  O   UNL     1      35.697 -20.930 -19.343  0.00  0.00    -0.471 OA
ATOM     18  C   UNL     1      34.719 -21.959 -19.200  0.00  0.00    +0.252 C 
ENDBRANCH  14  17
ENDBRANCH  10  11
ENDBRANCH   8  10
ENDBRANCH   1   2
BRANCH   1  19
ATOM     19  C   UNL     1      32.176 -12.838 -20.368  0.00  0.00    +0.227 C 
BRANCH  19  20
ATOM     20  O   UNL     1      31.097 -11.909 -20.441  0.00  0.00    -0.474 OA
BRANCH  20  24
ATOM     21  C   UNL     1      32.052  -7.970 -21.337  0.00  0.00    -0.021 C 
ATOM     22  C   UNL     1      32.209  -8.447 -20.035  0.00  0.00    -0.001 C 
ATOM     23  C   UNL     1      31.573  -8.817 -22.337  0.00  0.00    -0.001 C 
ATOM     24  C   UNL     1      31.410 -10.617 -20.734  0.00  0.00    +0.139 C 
ATOM     25  C   UNL     1      31.888  -9.770 -19.734  0.00  0.00    +0.037 C 
ATOM     26  C   UNL     1      31.252 -10.139 -22.035  0.00  0.00    +0.037 C 
BRANCH  21  27
ATOM     27  C   UNL     1      32.399  -6.540 -21.661  0.00  0.00    +0.047 C 
BRANCH  27  32
ATOM     28  S   UNL     1      32.175  -4.815 -23.797  0.00  0.00    -0.048 S 
ATOM     29  O   UNL     1      29.731  -5.416 -20.872  0.00  0.00    -0.274 OA
ATOM     30  O   UNL     1      31.368  -2.314 -23.875  0.00  0.00    -0.263 OA
ATOM     31  N   UNL     1      30.414  -3.729 -22.299  0.00  0.00    -0.246 N 
ATOM     32  C   UNL     1      31.372  -5.901 -22.579  0.00  0.00    +0.137 C 
ATOM     33  C   UNL     1      30.415  -5.019 -21.809  0.00  0.00    +0.239 C 
ATOM     34  C   UNL     1      31.250  -3.403 -23.334  0.00  0.00    +0.279 C 
ATOM     35  H   UNL     1      29.819  -3.050 -21.908  0.00  0.00    +0.158 HD
ENDBRANCH  27  32
ENDBRANCH  21  27
ENDBRANCH  20  24
ENDBRANCH  19  20
ENDBRANCH   1  19
TORSDOF 9
ENDMDL
