MODEL 1
REMARK VINA RESULT:     -11.3      0.000      0.000
REMARK  Name = 46937052
REMARK  7 active torsions:
REMARK  status: ('A' for Active; 'I' for Inactive)
REMARK    1  A    between atoms: O_1  and  C_3
REMARK    2  A    between atoms: O_1  and  C_17
REMARK    3  A    between atoms: C_4  and  C_11
REMARK    4  A    between atoms: C_17  and  C_18
REMARK    5  A    between atoms: C_18  and  N_19
REMARK    6  A    between atoms: C_18  and  C_23
REMARK    7  A    between atoms: C_23  and  C_25
REMARK                            x       y       z     vdW  Elec       q    Type
REMARK                         _______ _______ _______ _____ _____    ______ ____
ROOT
ATOM      1  O   UNL     1      34.539 -14.494 -21.749  0.00  0.00    -0.476 OA
ENDROOT
BRANCH   1   3
ATOM      2  N   UNL     1      34.943 -17.230 -24.143  0.00  0.00    -0.239 NA
ATOM      3  C   UNL     1      34.732 -15.760 -22.235  0.00  0.00    +0.158 C 
ATOM      4  C   UNL     1      35.104 -18.113 -21.898  0.00  0.00    +0.039 C 
ATOM      5  C   UNL     1      34.909 -16.839 -21.376  0.00  0.00    +0.042 C 
ATOM      6  C   UNL     1      34.758 -16.007 -23.598  0.00  0.00    +0.136 C 
ATOM      7  C   UNL     1      35.112 -18.254 -23.277  0.00  0.00    +0.101 C 
BRANCH   4  11
ATOM      8  N   UNL     1      36.489 -19.568 -20.612  0.00  0.00    -0.264 NA
ATOM      9  N   UNL     1      35.473 -22.517 -18.609  0.00  0.00    -0.150 NA
ATOM     10  N   UNL     1      34.069 -22.921 -18.553  0.00  0.00    -0.147 NA
ATOM     11  C   UNL     1      35.295 -19.288 -21.006  0.00  0.00    +0.078 C 
ATOM     12  C   UNL     1      34.244 -21.087 -19.868  0.00  0.00    +0.040 C 
ATOM     13  C   UNL     1      35.547 -21.460 -19.373  0.00  0.00    +0.107 C 
ATOM     14  C   UNL     1      36.772 -20.703 -19.731  0.00  0.00    +0.173 C 
ATOM     15  C   UNL     1      34.059 -20.048 -20.666  0.00  0.00    +0.022 C 
ATOM     16  C   UNL     1      33.384 -22.089 -19.284  0.00  0.00    +0.123 C 
ENDBRANCH   4  11
ENDBRANCH   1   3
BRANCH   1  17
ATOM     17  C   UNL     1      33.366 -14.276 -20.976  0.00  0.00    +0.184 C 
BRANCH  17  18
ATOM     18  C   UNL     1      32.599 -13.055 -21.498  0.00  0.00    -0.017 C 
BRANCH  18  19
ATOM     19  N   UNL     1      31.882 -13.449 -22.714  0.00  0.00    +0.384 N 
ATOM     20  H   UNL     1      30.976 -13.845 -22.461  0.00  0.00    -0.089 HD
ATOM     21  H   UNL     1      32.427 -14.146 -23.221  0.00  0.00    -0.089 HD
ATOM     22  H   UNL     1      31.741 -12.630 -23.306  0.00  0.00    -0.089 HD
ENDBRANCH  18  19
BRANCH  18  23
ATOM     23  C   UNL     1      31.585 -12.490 -20.473  0.00  0.00    +0.010 C 
BRANCH  23  25
ATOM     24  N   UNL     1      32.127  -9.230 -18.726  0.00  0.00    -0.244 NA
ATOM     25  C   UNL     1      31.756 -11.059 -20.162  0.00  0.00    -0.004 C 
ATOM     26  C   UNL     1      31.748  -9.935 -20.889  0.00  0.00    +0.011 C 
ATOM     27  C   UNL     1      31.975  -8.802 -20.016  0.00  0.00    +0.080 C 
ATOM     28  C   UNL     1      32.000 -10.520 -18.815  0.00  0.00    +0.094 C 
ATOM     29  C   UNL     1      31.556  -9.775 -22.308  0.00  0.00    -0.020 C 
ATOM     30  C   UNL     1      32.013  -7.556 -20.504  0.00  0.00    +0.015 C 
ATOM     31  C   UNL     1      31.821  -7.288 -21.984  0.00  0.00    -0.020 C 
ATOM     32  C   UNL     1      31.590  -8.533 -22.823  0.00  0.00    +0.052 C 
ENDBRANCH  23  25
ENDBRANCH  18  23
ENDBRANCH  17  18
ENDBRANCH   1  17
TORSDOF 7
ENDMDL
MODEL 2
REMARK VINA RESULT:     -11.3      5.092      8.900
REMARK  Name = 46937052
REMARK  7 active torsions:
REMARK  status: ('A' for Active; 'I' for Inactive)
REMARK    1  A    between atoms: O_1  and  C_3
REMARK    2  A    between atoms: O_1  and  C_17
REMARK    3  A    between atoms: C_4  and  C_11
REMARK    4  A    between atoms: C_17  and  C_18
REMARK    5  A    between atoms: C_18  and  N_19
REMARK    6  A    between atoms: C_18  and  C_23
REMARK    7  A    between atoms: C_23  and  C_25
REMARK                            x       y       z     vdW  Elec       q    Type
REMARK                         _______ _______ _______ _____ _____    ______ ____
ROOT
ATOM      1  O   UNL     1      33.065 -22.795 -18.636  0.00  0.00    -0.476 OA
ENDROOT
BRANCH   1   3
ATOM      2  N   UNL     1      31.800 -23.738 -15.335  0.00  0.00    -0.239 NA
ATOM      3  C   UNL     1      33.061 -23.198 -17.326  0.00  0.00    +0.158 C 
ATOM      4  C   UNL     1      34.214 -23.877 -15.327  0.00  0.00    +0.039 C 
ATOM      5  C   UNL     1      34.248 -23.470 -16.656  0.00  0.00    +0.042 C 
ATOM      6  C   UNL     1      31.874 -23.346 -16.627  0.00  0.00    +0.136 C 
ATOM      7  C   UNL     1      32.974 -23.995 -14.718  0.00  0.00    +0.101 C 
BRANCH   4  11
ATOM      8  N   UNL     1      36.236 -25.107 -15.029  0.00  0.00    -0.264 NA
ATOM      9  N   UNL     1      38.766 -24.736 -12.346  0.00  0.00    -0.150 NA
ATOM     10  N   UNL     1      38.577 -23.744 -11.287  0.00  0.00    -0.147 NA
ATOM     11  C   UNL     1      35.466 -24.176 -14.582  0.00  0.00    +0.078 C 
ATOM     12  C   UNL     1      36.819 -23.633 -12.709  0.00  0.00    +0.040 C 
ATOM     13  C   UNL     1      37.740 -24.651 -13.149  0.00  0.00    +0.107 C 
ATOM     14  C   UNL     1      37.489 -25.467 -14.363  0.00  0.00    +0.173 C 
ATOM     15  C   UNL     1      35.698 -23.360 -13.357  0.00  0.00    +0.022 C 
ATOM     16  C   UNL     1      37.454 -23.127 -11.514  0.00  0.00    +0.123 C 
ENDBRANCH   4  11
ENDBRANCH   1   3
BRANCH   1  17
ATOM     17  C   UNL     1      34.273 -22.232 -19.130  0.00  0.00    +0.184 C 
BRANCH  17  18
ATOM     18  C   UNL     1      33.977 -21.213 -20.237  0.00  0.00    -0.017 C 
BRANCH  18  19
ATOM     19  N   UNL     1      32.704 -20.556 -19.927  0.00  0.00    +0.384 N 
ATOM     20  H   UNL     1      32.782 -19.557 -20.121  0.00  0.00    -0.089 HD
ATOM     21  H   UNL     1      32.481 -20.695 -18.942  0.00  0.00    -0.089 HD
ATOM     22  H   UNL     1      31.965 -20.957 -20.504  0.00  0.00    -0.089 HD
ENDBRANCH  18  19
BRANCH  18  23
ATOM     23  C   UNL     1      35.081 -20.137 -20.384  0.00  0.00    +0.010 C 
BRANCH  23  25
ATOM     24  N   UNL     1      34.919 -19.004 -23.942  0.00  0.00    -0.244 NA
ATOM     25  C   UNL     1      34.990 -19.324 -21.610  0.00  0.00    -0.004 C 
ATOM     26  C   UNL     1      34.876 -18.014 -21.860  0.00  0.00    +0.011 C 
ATOM     27  C   UNL     1      34.831 -17.804 -23.292  0.00  0.00    +0.080 C 
ATOM     28  C   UNL     1      35.009 -19.869 -22.977  0.00  0.00    +0.094 C 
ATOM     29  C   UNL     1      34.801 -16.918 -20.928  0.00  0.00    -0.020 C 
ATOM     30  C   UNL     1      34.718 -16.571 -23.802  0.00  0.00    +0.015 C 
ATOM     31  C   UNL     1      34.634 -15.355 -22.900  0.00  0.00    -0.020 C 
ATOM     32  C   UNL     1      34.687 -15.669 -21.416  0.00  0.00    +0.052 C 
ENDBRANCH  23  25
ENDBRANCH  18  23
ENDBRANCH  17  18
ENDBRANCH   1  17
TORSDOF 7
ENDMDL
MODEL 3
REMARK VINA RESULT:     -11.3      7.507     10.916
REMARK  Name = 46937052
REMARK  7 active torsions:
REMARK  status: ('A' for Active; 'I' for Inactive)
REMARK    1  A    between atoms: O_1  and  C_3
REMARK    2  A    between atoms: O_1  and  C_17
REMARK    3  A    between atoms: C_4  and  C_11
REMARK    4  A    between atoms: C_17  and  C_18
REMARK    5  A    between atoms: C_18  and  N_19
REMARK    6  A    between atoms: C_18  and  C_23
REMARK    7  A    between atoms: C_23  and  C_25
REMARK                            x       y       z     vdW  Elec       q    Type
REMARK                         _______ _______ _______ _____ _____    ______ ____
ROOT
ATOM      1  O   UNL     1      37.334 -23.883 -15.552  0.00  0.00    -0.476 OA
ENDROOT
BRANCH   1   3
ATOM      2  N   UNL     1      36.082 -24.639 -12.199  0.00  0.00    -0.239 NA
ATOM      3  C   UNL     1      36.453 -24.151 -14.537  0.00  0.00    +0.158 C 
ATOM      4  C   UNL     1      34.213 -24.486 -13.725  0.00  0.00    +0.039 C 
ATOM      5  C   UNL     1      35.084 -24.213 -14.774  0.00  0.00    +0.042 C 
ATOM      6  C   UNL     1      36.897 -24.370 -13.243  0.00  0.00    +0.136 C 
ATOM      7  C   UNL     1      34.758 -24.690 -12.467  0.00  0.00    +0.101 C 
BRANCH   4  11
ATOM      8  N   UNL     1      32.050 -25.332 -13.183  0.00  0.00    -0.264 NA
ATOM      9  N   UNL     1      28.810 -24.533 -14.797  0.00  0.00    -0.150 NA
ATOM     10  N   UNL     1      28.757 -23.601 -15.923  0.00  0.00    -0.147 NA
ATOM     11  C   UNL     1      32.744 -24.559 -13.946  0.00  0.00    +0.078 C 
ATOM     12  C   UNL     1      30.908 -23.797 -15.242  0.00  0.00    +0.040 C 
ATOM     13  C   UNL     1      30.058 -24.628 -14.425  0.00  0.00    +0.107 C 
ATOM     14  C   UNL     1      30.599 -25.466 -13.325  0.00  0.00    +0.173 C 
ATOM     15  C   UNL     1      32.216 -23.725 -15.062  0.00  0.00    +0.022 C 
ATOM     16  C   UNL     1      29.971 -23.195 -16.162  0.00  0.00    +0.123 C 
ENDBRANCH   4  11
ENDBRANCH   1   3
BRANCH   1  17
ATOM     17  C   UNL     1      37.879 -22.571 -15.597  0.00  0.00    +0.184 C 
BRANCH  17  18
ATOM     18  C   UNL     1      37.083 -21.693 -16.571  0.00  0.00    -0.017 C 
BRANCH  18  19
ATOM     19  N   UNL     1      37.851 -20.470 -16.820  0.00  0.00    +0.384 N 
ATOM     20  H   UNL     1      38.268 -20.147 -15.947  0.00  0.00    -0.089 HD
ATOM     21  H   UNL     1      37.231 -19.748 -17.188  0.00  0.00    -0.089 HD
ATOM     22  H   UNL     1      38.588 -20.664 -17.498  0.00  0.00    -0.089 HD
ENDBRANCH  18  19
BRANCH  18  23
ATOM     23  C   UNL     1      36.794 -22.393 -17.922  0.00  0.00    +0.010 C 
BRANCH  23  25
ATOM     24  N   UNL     1      33.123 -22.399 -18.625  0.00  0.00    -0.244 NA
ATOM     25  C   UNL     1      35.457 -22.124 -18.482  0.00  0.00    -0.004 C 
ATOM     26  C   UNL     1      34.991 -21.333 -19.456  0.00  0.00    +0.011 C 
ATOM     27  C   UNL     1      33.555 -21.493 -19.555  0.00  0.00    +0.080 C 
ATOM     28  C   UNL     1      34.213 -22.756 -18.016  0.00  0.00    +0.094 C 
ATOM     29  C   UNL     1      35.716 -20.435 -20.319  0.00  0.00    -0.020 C 
ATOM     30  C   UNL     1      32.848 -20.806 -20.459  0.00  0.00    +0.015 C 
ATOM     31  C   UNL     1      33.523 -19.838 -21.411  0.00  0.00    -0.020 C 
ATOM     32  C   UNL     1      35.028 -19.732 -21.236  0.00  0.00    +0.052 C 
ENDBRANCH  23  25
ENDBRANCH  18  23
ENDBRANCH  17  18
ENDBRANCH   1  17
TORSDOF 7
ENDMDL
MODEL 4
REMARK VINA RESULT:     -11.2      2.025     10.194
REMARK  Name = 46937052
REMARK  7 active torsions:
REMARK  status: ('A' for Active; 'I' for Inactive)
REMARK    1  A    between atoms: O_1  and  C_3
REMARK    2  A    between atoms: O_1  and  C_17
REMARK    3  A    between atoms: C_4  and  C_11
REMARK    4  A    between atoms: C_17  and  C_18
REMARK    5  A    between atoms: C_18  and  N_19
REMARK    6  A    between atoms: C_18  and  C_23
REMARK    7  A    between atoms: C_23  and  C_25
REMARK                            x       y       z     vdW  Elec       q    Type
REMARK                         _______ _______ _______ _____ _____    ______ ____
ROOT
ATOM      1  O   UNL     1      35.722 -17.773 -22.650  0.00  0.00    -0.476 OA
ENDROOT
BRANCH   1   3
ATOM      2  N   UNL     1      34.000 -16.349 -25.547  0.00  0.00    -0.239 NA
ATOM      3  C   UNL     1      35.009 -16.889 -23.417  0.00  0.00    +0.158 C 
ATOM      4  C   UNL     1      33.850 -14.799 -23.698  0.00  0.00    +0.039 C 
ATOM      5  C   UNL     1      34.573 -15.676 -22.896  0.00  0.00    +0.042 C 
ATOM      6  C   UNL     1      34.699 -17.175 -24.737  0.00  0.00    +0.136 C 
ATOM      7  C   UNL     1      33.593 -15.180 -25.005  0.00  0.00    +0.101 C 
BRANCH   4  11
ATOM      8  N   UNL     1      33.779 -12.415 -23.745  0.00  0.00    -0.264 NA
ATOM      9  N   UNL     1      31.894 -10.138 -21.509  0.00  0.00    -0.150 NA
ATOM     10  N   UNL     1      31.073 -10.680 -20.427  0.00  0.00    -0.147 NA
ATOM     11  C   UNL     1      33.371 -13.493 -23.170  0.00  0.00    +0.078 C 
ATOM     12  C   UNL     1      32.037 -12.400 -21.540  0.00  0.00    +0.040 C 
ATOM     13  C   UNL     1      32.437 -11.148 -22.133  0.00  0.00    +0.107 C 
ATOM     14  C   UNL     1      33.358 -11.087 -23.295  0.00  0.00    +0.173 C 
ATOM     15  C   UNL     1      32.459 -13.569 -21.994  0.00  0.00    +0.022 C 
ATOM     16  C   UNL     1      31.174 -11.978 -20.462  0.00  0.00    +0.123 C 
ENDBRANCH   4  11
ENDBRANCH   1   3
BRANCH   1  17
ATOM     17  C   UNL     1      35.151 -18.144 -21.403  0.00  0.00    +0.184 C 
BRANCH  17  18
ATOM     18  C   UNL     1      34.766 -19.628 -21.410  0.00  0.00    -0.017 C 
BRANCH  18  19
ATOM     19  N   UNL     1      34.864 -20.122 -22.786  0.00  0.00    +0.384 N 
ATOM     20  H   UNL     1      35.661 -19.683 -23.248  0.00  0.00    -0.089 HD
ATOM     21  H   UNL     1      34.009 -19.892 -23.292  0.00  0.00    -0.089 HD
ATOM     22  H   UNL     1      34.993 -21.134 -22.776  0.00  0.00    -0.089 HD
ENDBRANCH  18  19
BRANCH  18  23
ATOM     23  C   UNL     1      35.668 -20.495 -20.496  0.00  0.00    +0.010 C 
BRANCH  23  25
ATOM     24  N   UNL     1      33.038 -22.484 -18.735  0.00  0.00    -0.244 NA
ATOM     25  C   UNL     1      34.938 -21.351 -19.543  0.00  0.00    -0.004 C 
ATOM     26  C   UNL     1      35.268 -21.988 -18.414  0.00  0.00    +0.011 C 
ATOM     27  C   UNL     1      34.107 -22.690 -17.905  0.00  0.00    +0.080 C 
ATOM     28  C   UNL     1      33.519 -21.719 -19.668  0.00  0.00    +0.094 C 
ATOM     29  C   UNL     1      36.539 -22.032 -17.736  0.00  0.00    -0.020 C 
ATOM     30  C   UNL     1      34.178 -23.408 -16.778  0.00  0.00    +0.015 C 
ATOM     31  C   UNL     1      35.472 -23.512 -15.995  0.00  0.00    -0.020 C 
ATOM     32  C   UNL     1      36.635 -22.747 -16.601  0.00  0.00    +0.052 C 
ENDBRANCH  23  25
ENDBRANCH  18  23
ENDBRANCH  17  18
ENDBRANCH   1  17
TORSDOF 7
ENDMDL
MODEL 5
REMARK VINA RESULT:     -11.1      2.004     10.330
REMARK  Name = 46937052
REMARK  7 active torsions:
REMARK  status: ('A' for Active; 'I' for Inactive)
REMARK    1  A    between atoms: O_1  and  C_3
REMARK    2  A    between atoms: O_1  and  C_17
REMARK    3  A    between atoms: C_4  and  C_11
REMARK    4  A    between atoms: C_17  and  C_18
REMARK    5  A    between atoms: C_18  and  N_19
REMARK    6  A    between atoms: C_18  and  C_23
REMARK    7  A    between atoms: C_23  and  C_25
REMARK                            x       y       z     vdW  Elec       q    Type
REMARK                         _______ _______ _______ _____ _____    ______ ____
ROOT
ATOM      1  O   UNL     1      35.725 -17.570 -23.150  0.00  0.00    -0.476 OA
ENDROOT
BRANCH   1   3
ATOM      2  N   UNL     1      33.803 -15.967 -25.818  0.00  0.00    -0.239 NA
ATOM      3  C   UNL     1      34.939 -16.653 -23.797  0.00  0.00    +0.158 C 
ATOM      4  C   UNL     1      33.686 -14.599 -23.828  0.00  0.00    +0.039 C 
ATOM      5  C   UNL     1      34.483 -15.512 -23.146  0.00  0.00    +0.042 C 
ATOM      6  C   UNL     1      34.575 -16.832 -25.122  0.00  0.00    +0.136 C 
ATOM      7  C   UNL     1      33.378 -14.871 -25.151  0.00  0.00    +0.101 C 
BRANCH   4  11
ATOM      8  N   UNL     1      32.327 -13.500 -22.204  0.00  0.00    -0.264 NA
ATOM      9  N   UNL     1      32.021  -9.862 -21.562  0.00  0.00    -0.150 NA
ATOM     10  N   UNL     1      32.782  -8.905 -22.365  0.00  0.00    -0.147 NA
ATOM     11  C   UNL     1      33.183 -13.369 -23.159  0.00  0.00    +0.078 C 
ATOM     12  C   UNL     1      33.266 -10.999 -23.078  0.00  0.00    +0.040 C 
ATOM     13  C   UNL     1      32.317 -11.059 -21.994  0.00  0.00    +0.107 C 
ATOM     14  C   UNL     1      31.779 -12.346 -21.488  0.00  0.00    +0.173 C 
ATOM     15  C   UNL     1      33.719 -12.083 -23.686  0.00  0.00    +0.022 C 
ATOM     16  C   UNL     1      33.485  -9.580 -23.229  0.00  0.00    +0.123 C 
ENDBRANCH   4  11
ENDBRANCH   1   3
BRANCH   1  17
ATOM     17  C   UNL     1      35.150 -18.846 -22.902  0.00  0.00    +0.184 C 
BRANCH  17  18
ATOM     18  C   UNL     1      35.568 -19.364 -21.520  0.00  0.00    -0.017 C 
BRANCH  18  19
ATOM     19  N   UNL     1      35.619 -18.225 -20.599  0.00  0.00    +0.384 N 
ATOM     20  H   UNL     1      35.111 -17.438 -21.003  0.00  0.00    -0.089 HD
ATOM     21  H   UNL     1      36.591 -17.958 -20.441  0.00  0.00    -0.089 HD
ATOM     22  H   UNL     1      35.189 -18.487 -19.712  0.00  0.00    -0.089 HD
ENDBRANCH  18  19
BRANCH  18  23
ATOM     23  C   UNL     1      34.601 -20.432 -20.953  0.00  0.00    +0.010 C 
BRANCH  23  25
ATOM     24  N   UNL     1      36.806 -21.951 -18.345  0.00  0.00    -0.244 NA
ATOM     25  C   UNL     1      35.114 -21.170 -19.785  0.00  0.00    -0.004 C 
ATOM     26  C   UNL     1      34.548 -21.899 -18.816  0.00  0.00    +0.011 C 
ATOM     27  C   UNL     1      35.579 -22.386 -17.923  0.00  0.00    +0.080 C 
ATOM     28  C   UNL     1      36.534 -21.257 -19.409  0.00  0.00    +0.094 C 
ATOM     29  C   UNL     1      33.156 -22.206 -18.607  0.00  0.00    -0.020 C 
ATOM     30  C   UNL     1      35.269 -23.146 -16.865  0.00  0.00    +0.015 C 
ATOM     31  C   UNL     1      33.832 -23.522 -16.565  0.00  0.00    -0.020 C 
ATOM     32  C   UNL     1      32.819 -22.967 -17.551  0.00  0.00    +0.052 C 
ENDBRANCH  23  25
ENDBRANCH  18  23
ENDBRANCH  17  18
ENDBRANCH   1  17
TORSDOF 7
ENDMDL
MODEL 6
REMARK VINA RESULT:     -11.1      4.103      7.482
REMARK  Name = 46937052
REMARK  7 active torsions:
REMARK  status: ('A' for Active; 'I' for Inactive)
REMARK    1  A    between atoms: O_1  and  C_3
REMARK    2  A    between atoms: O_1  and  C_17
REMARK    3  A    between atoms: C_4  and  C_11
REMARK    4  A    between atoms: C_17  and  C_18
REMARK    5  A    between atoms: C_18  and  N_19
REMARK    6  A    between atoms: C_18  and  C_23
REMARK    7  A    between atoms: C_23  and  C_25
REMARK                            x       y       z     vdW  Elec       q    Type
REMARK                         _______ _______ _______ _____ _____    ______ ____
ROOT
ATOM      1  O   UNL     1      36.069 -21.136 -19.481  0.00  0.00    -0.476 OA
ENDROOT
BRANCH   1   3
ATOM      2  N   UNL     1      32.934 -22.759 -18.518  0.00  0.00    -0.239 NA
ATOM      3  C   UNL     1      35.169 -21.865 -18.748  0.00  0.00    +0.158 C 
ATOM      4  C   UNL     1      34.597 -23.174 -16.813  0.00  0.00    +0.039 C 
ATOM      5  C   UNL     1      35.531 -22.440 -17.535  0.00  0.00    +0.042 C 
ATOM      6  C   UNL     1      33.870 -22.053 -19.192  0.00  0.00    +0.136 C 
ATOM      7  C   UNL     1      33.323 -23.303 -17.344  0.00  0.00    +0.101 C 
BRANCH   4  11
ATOM      8  N   UNL     1      34.001 -24.075 -14.686  0.00  0.00    -0.264 NA
ATOM      9  N   UNL     1      36.240 -25.487 -12.091  0.00  0.00    -0.150 NA
ATOM     10  N   UNL     1      37.686 -25.526 -12.307  0.00  0.00    -0.147 NA
ATOM     11  C   UNL     1      34.952 -23.801 -15.511  0.00  0.00    +0.078 C 
ATOM     12  C   UNL     1      36.705 -24.601 -14.125  0.00  0.00    +0.040 C 
ATOM     13  C   UNL     1      35.700 -24.949 -13.151  0.00  0.00    +0.107 C 
ATOM     14  C   UNL     1      34.257 -24.694 -13.383  0.00  0.00    +0.173 C 
ATOM     15  C   UNL     1      36.406 -24.038 -15.285  0.00  0.00    +0.022 C 
ATOM     16  C   UNL     1      37.929 -25.011 -13.478  0.00  0.00    +0.123 C 
ENDBRANCH   4  11
ENDBRANCH   1   3
BRANCH   1  17
ATOM     17  C   UNL     1      35.591 -20.551 -20.685  0.00  0.00    +0.184 C 
BRANCH  17  18
ATOM     18  C   UNL     1      36.101 -19.111 -20.820  0.00  0.00    -0.017 C 
BRANCH  18  19
ATOM     19  N   UNL     1      37.528 -19.096 -20.489  0.00  0.00    +0.384 N 
ATOM     20  H   UNL     1      37.719 -19.800 -19.776  0.00  0.00    -0.089 HD
ATOM     21  H   UNL     1      37.786 -18.175 -20.135  0.00  0.00    -0.089 HD
ATOM     22  H   UNL     1      38.073 -19.304 -21.326  0.00  0.00    -0.089 HD
ENDBRANCH  18  19
BRANCH  18  23
ATOM     23  C   UNL     1      35.905 -18.528 -22.242  0.00  0.00    +0.010 C 
BRANCH  23  25
ATOM     24  N   UNL     1      34.247 -15.302 -21.337  0.00  0.00    -0.244 NA
ATOM     25  C   UNL     1      35.186 -17.242 -22.287  0.00  0.00    -0.004 C 
ATOM     26  C   UNL     1      34.640 -16.508 -23.264  0.00  0.00    +0.011 C 
ATOM     27  C   UNL     1      34.058 -15.311 -22.692  0.00  0.00    +0.080 C 
ATOM     28  C   UNL     1      34.891 -16.408 -21.111  0.00  0.00    +0.094 C 
ATOM     29  C   UNL     1      34.588 -16.777 -24.678  0.00  0.00    -0.020 C 
ATOM     30  C   UNL     1      33.447 -14.407 -23.467  0.00  0.00    +0.015 C 
ATOM     31  C   UNL     1      33.342 -14.604 -24.967  0.00  0.00    -0.020 C 
ATOM     32  C   UNL     1      33.979 -15.883 -25.479  0.00  0.00    +0.052 C 
ENDBRANCH  23  25
ENDBRANCH  18  23
ENDBRANCH  17  18
ENDBRANCH   1  17
TORSDOF 7
ENDMDL
MODEL 7
REMARK VINA RESULT:     -11.0      3.856     11.042
REMARK  Name = 46937052
REMARK  7 active torsions:
REMARK  status: ('A' for Active; 'I' for Inactive)
REMARK    1  A    between atoms: O_1  and  C_3
REMARK    2  A    between atoms: O_1  and  C_17
REMARK    3  A    between atoms: C_4  and  C_11
REMARK    4  A    between atoms: C_17  and  C_18
REMARK    5  A    between atoms: C_18  and  N_19
REMARK    6  A    between atoms: C_18  and  C_23
REMARK    7  A    between atoms: C_23  and  C_25
REMARK                            x       y       z     vdW  Elec       q    Type
REMARK                         _______ _______ _______ _____ _____    ______ ____
ROOT
ATOM      1  O   UNL     1      34.716 -21.928 -20.055  0.00  0.00    -0.476 OA
ENDROOT
BRANCH   1   3
ATOM      2  N   UNL     1      37.458 -19.507 -20.131  0.00  0.00    -0.239 NA
ATOM      3  C   UNL     1      35.437 -20.810 -20.383  0.00  0.00    +0.158 C 
ATOM      4  C   UNL     1      35.681 -18.737 -21.579  0.00  0.00    +0.039 C 
ATOM      5  C   UNL     1      34.927 -19.861 -21.263  0.00  0.00    +0.042 C 
ATOM      6  C   UNL     1      36.696 -20.588 -19.850  0.00  0.00    +0.136 C 
ATOM      7  C   UNL     1      36.930 -18.608 -20.991  0.00  0.00    +0.101 C 
BRANCH   4  11
ATOM      8  N   UNL     1      34.969 -18.037 -23.745  0.00  0.00    -0.264 NA
ATOM      9  N   UNL     1      33.765 -14.689 -24.786  0.00  0.00    -0.150 NA
ATOM     10  N   UNL     1      33.698 -13.595 -23.817  0.00  0.00    -0.147 NA
ATOM     11  C   UNL     1      35.164 -17.703 -22.516  0.00  0.00    +0.078 C 
ATOM     12  C   UNL     1      34.473 -15.447 -22.770  0.00  0.00    +0.040 C 
ATOM     13  C   UNL     1      34.215 -15.742 -24.158  0.00  0.00    +0.107 C 
ATOM     14  C   UNL     1      34.460 -17.086 -24.736  0.00  0.00    +0.173 C 
ATOM     15  C   UNL     1      34.937 -16.354 -21.926  0.00  0.00    +0.022 C 
ATOM     16  C   UNL     1      34.111 -14.053 -22.670  0.00  0.00    +0.123 C 
ENDBRANCH   4  11
ENDBRANCH   1   3
BRANCH   1  17
ATOM     17  C   UNL     1      33.654 -21.757 -19.126  0.00  0.00    +0.184 C 
BRANCH  17  18
ATOM     18  C   UNL     1      33.558 -22.969 -18.191  0.00  0.00    -0.017 C 
BRANCH  18  19
ATOM     19  N   UNL     1      33.850 -24.175 -18.971  0.00  0.00    +0.384 N 
ATOM     20  H   UNL     1      33.217 -24.224 -19.769  0.00  0.00    -0.089 HD
ATOM     21  H   UNL     1      33.722 -24.999 -18.384  0.00  0.00    -0.089 HD
ATOM     22  H   UNL     1      34.814 -24.139 -19.303  0.00  0.00    -0.089 HD
ENDBRANCH  18  19
BRANCH  18  23
ATOM     23  C   UNL     1      34.537 -22.892 -16.993  0.00  0.00    +0.010 C 
BRANCH  23  25
ATOM     24  N   UNL     1      34.504 -25.175 -14.034  0.00  0.00    -0.244 NA
ATOM     25  C   UNL     1      34.133 -23.679 -15.815  0.00  0.00    -0.004 C 
ATOM     26  C   UNL     1      32.986 -23.841 -15.145  0.00  0.00    +0.011 C 
ATOM     27  C   UNL     1      33.201 -24.759 -14.046  0.00  0.00    +0.080 C 
ATOM     28  C   UNL     1      35.032 -24.555 -15.046  0.00  0.00    +0.094 C 
ATOM     29  C   UNL     1      31.698 -23.244 -15.395  0.00  0.00    -0.020 C 
ATOM     30  C   UNL     1      32.200 -25.087 -13.219  0.00  0.00    +0.015 C 
ATOM     31  C   UNL     1      30.810 -24.511 -13.404  0.00  0.00    -0.020 C 
ATOM     32  C   UNL     1      30.677 -23.558 -14.579  0.00  0.00    +0.052 C 
ENDBRANCH  23  25
ENDBRANCH  18  23
ENDBRANCH  17  18
ENDBRANCH   1  17
TORSDOF 7
ENDMDL
MODEL 8
REMARK VINA RESULT:     -10.9      4.023      7.620
REMARK  Name = 46937052
REMARK  7 active torsions:
REMARK  status: ('A' for Active; 'I' for Inactive)
REMARK    1  A    between atoms: O_1  and  C_3
REMARK    2  A    between atoms: O_1  and  C_17
REMARK    3  A    between atoms: C_4  and  C_11
REMARK    4  A    between atoms: C_17  and  C_18
REMARK    5  A    between atoms: C_18  and  N_19
REMARK    6  A    between atoms: C_18  and  C_23
REMARK    7  A    between atoms: C_23  and  C_25
REMARK                            x       y       z     vdW  Elec       q    Type
REMARK                         _______ _______ _______ _____ _____    ______ ____
ROOT
ATOM      1  O   UNL     1      35.422 -21.909 -19.705  0.00  0.00    -0.476 OA
ENDROOT
BRANCH   1   3
ATOM      2  N   UNL     1      36.952 -22.418 -16.421  0.00  0.00    -0.239 NA
ATOM      3  C   UNL     1      35.555 -22.264 -18.388  0.00  0.00    +0.158 C 
ATOM      4  C   UNL     1      34.652 -23.161 -16.347  0.00  0.00    +0.039 C 
ATOM      5  C   UNL     1      34.489 -22.811 -17.682  0.00  0.00    +0.042 C 
ATOM      6  C   UNL     1      36.754 -22.089 -17.718  0.00  0.00    +0.136 C 
ATOM      7  C   UNL     1      35.893 -22.946 -15.768  0.00  0.00    +0.101 C 
BRANCH   4  11
ATOM      8  N   UNL     1      33.810 -24.360 -14.465  0.00  0.00    -0.264 NA
ATOM      9  N   UNL     1      30.289 -25.221 -13.688  0.00  0.00    -0.150 NA
ATOM     10  N   UNL     1      29.216 -24.826 -14.600  0.00  0.00    -0.147 NA
ATOM     11  C   UNL     1      33.532 -23.748 -15.564  0.00  0.00    +0.078 C 
ATOM     12  C   UNL     1      31.188 -24.103 -15.444  0.00  0.00    +0.040 C 
ATOM     13  C   UNL     1      31.413 -24.793 -14.197  0.00  0.00    +0.107 C 
ATOM     14  C   UNL     1      32.772 -24.967 -13.628  0.00  0.00    +0.173 C 
ATOM     15  C   UNL     1      32.174 -23.580 -16.154  0.00  0.00    +0.022 C 
ATOM     16  C   UNL     1      29.755 -24.190 -15.600  0.00  0.00    +0.123 C 
ENDBRANCH   4  11
ENDBRANCH   1   3
BRANCH   1  17
ATOM     17  C   UNL     1      36.193 -20.801 -20.151  0.00  0.00    +0.184 C 
BRANCH  17  18
ATOM     18  C   UNL     1      35.347 -19.884 -21.043  0.00  0.00    -0.017 C 
BRANCH  18  19
ATOM     19  N   UNL     1      33.935 -20.105 -20.722  0.00  0.00    +0.384 N 
ATOM     20  H   UNL     1      33.389 -19.295 -21.015  0.00  0.00    -0.089 HD
ATOM     21  H   UNL     1      33.832 -20.240 -19.717  0.00  0.00    -0.089 HD
ATOM     22  H   UNL     1      33.601 -20.935 -21.213  0.00  0.00    -0.089 HD
ENDBRANCH  18  19
BRANCH  18  23
ATOM     23  C   UNL     1      35.679 -18.382 -20.858  0.00  0.00    +0.010 C 
BRANCH  23  25
ATOM     24  N   UNL     1      34.834 -16.991 -24.224  0.00  0.00    -0.244 NA
ATOM     25  C   UNL     1      35.234 -17.512 -21.962  0.00  0.00    -0.004 C 
ATOM     26  C   UNL     1      34.724 -16.277 -22.033  0.00  0.00    +0.011 C 
ATOM     27  C   UNL     1      34.473 -15.944 -23.420  0.00  0.00    +0.080 C 
ATOM     28  C   UNL     1      35.267 -17.884 -23.385  0.00  0.00    +0.094 C 
ATOM     29  C   UNL     1      34.434 -15.353 -20.966  0.00  0.00    -0.020 C 
ATOM     30  C   UNL     1      33.961 -14.755 -23.760  0.00  0.00    +0.015 C 
ATOM     31  C   UNL     1      33.625 -13.717 -22.707  0.00  0.00    -0.020 C 
ATOM     32  C   UNL     1      33.918 -14.151 -21.282  0.00  0.00    +0.052 C 
ENDBRANCH  23  25
ENDBRANCH  18  23
ENDBRANCH  17  18
ENDBRANCH   1  17
TORSDOF 7
ENDMDL
MODEL 9
REMARK VINA RESULT:     -10.6      3.769     11.297
REMARK  Name = 46937052
REMARK  7 active torsions:
REMARK  status: ('A' for Active; 'I' for Inactive)
REMARK    1  A    between atoms: O_1  and  C_3
REMARK    2  A    between atoms: O_1  and  C_17
REMARK    3  A    between atoms: C_4  and  C_11
REMARK    4  A    between atoms: C_17  and  C_18
REMARK    5  A    between atoms: C_18  and  N_19
REMARK    6  A    between atoms: C_18  and  C_23
REMARK    7  A    between atoms: C_23  and  C_25
REMARK                            x       y       z     vdW  Elec       q    Type
REMARK                         _______ _______ _______ _____ _____    ______ ____
ROOT
ATOM      1  O   UNL     1      34.432 -21.873 -20.136  0.00  0.00    -0.476 OA
ENDROOT
BRANCH   1   3
ATOM      2  N   UNL     1      37.322 -19.631 -20.212  0.00  0.00    -0.239 NA
ATOM      3  C   UNL     1      35.216 -20.794 -20.452  0.00  0.00    +0.158 C 
ATOM      4  C   UNL     1      35.569 -18.709 -21.597  0.00  0.00    +0.039 C 
ATOM      5  C   UNL     1      34.750 -19.791 -21.294  0.00  0.00    +0.042 C 
ATOM      6  C   UNL     1      36.498 -20.669 -19.942  0.00  0.00    +0.136 C 
ATOM      7  C   UNL     1      36.835 -18.676 -21.035  0.00  0.00    +0.101 C 
BRANCH   4  11
ATOM      8  N   UNL     1      34.927 -17.887 -23.743  0.00  0.00    -0.264 NA
ATOM      9  N   UNL     1      33.829 -14.464 -24.647  0.00  0.00    -0.150 NA
ATOM     10  N   UNL     1      33.762 -13.418 -23.627  0.00  0.00    -0.147 NA
ATOM     11  C   UNL     1      35.100 -17.618 -22.495  0.00  0.00    +0.078 C 
ATOM     12  C   UNL     1      34.467 -15.337 -22.654  0.00  0.00    +0.040 C 
ATOM     13  C   UNL     1      34.238 -15.557 -24.061  0.00  0.00    +0.107 C 
ATOM     14  C   UNL     1      34.466 -16.877 -24.698  0.00  0.00    +0.173 C 
ATOM     15  C   UNL     1      34.889 -16.294 -21.845  0.00  0.00    +0.022 C 
ATOM     16  C   UNL     1      34.135 -13.940 -22.495  0.00  0.00    +0.123 C 
ENDBRANCH   4  11
ENDBRANCH   1   3
BRANCH   1  17
ATOM     17  C   UNL     1      33.570 -21.733 -19.015  0.00  0.00    +0.184 C 
BRANCH  17  18
ATOM     18  C   UNL     1      33.733 -22.922 -18.061  0.00  0.00    -0.017 C 
BRANCH  18  19
ATOM     19  N   UNL     1      33.835 -24.144 -18.863  0.00  0.00    +0.384 N 
ATOM     20  H   UNL     1      33.749 -24.958 -18.254  0.00  0.00    -0.089 HD
ATOM     21  H   UNL     1      34.739 -24.167 -19.336  0.00  0.00    -0.089 HD
ATOM     22  H   UNL     1      33.088 -24.159 -19.557  0.00  0.00    -0.089 HD
ENDBRANCH  18  19
BRANCH  18  23
ATOM     23  C   UNL     1      34.984 -22.806 -17.154  0.00  0.00    +0.010 C 
BRANCH  23  25
ATOM     24  N   UNL     1      33.610 -24.166 -13.954  0.00  0.00    -0.244 NA
ATOM     25  C   UNL     1      34.836 -23.416 -15.820  0.00  0.00    -0.004 C 
ATOM     26  C   UNL     1      35.689 -23.924 -14.923  0.00  0.00    +0.011 C 
ATOM     27  C   UNL     1      34.947 -24.389 -13.769  0.00  0.00    +0.080 C 
ATOM     28  C   UNL     1      33.553 -23.610 -15.127  0.00  0.00    +0.094 C 
ATOM     29  C   UNL     1      37.124 -24.036 -14.999  0.00  0.00    -0.020 C 
ATOM     30  C   UNL     1      35.576 -24.943 -12.726  0.00  0.00    +0.015 C 
ATOM     31  C   UNL     1      37.084 -25.102 -12.714  0.00  0.00    -0.020 C 
ATOM     32  C   UNL     1      37.779 -24.589 -13.962  0.00  0.00    +0.052 C 
ENDBRANCH  23  25
ENDBRANCH  18  23
ENDBRANCH  17  18
ENDBRANCH   1  17
TORSDOF 7
ENDMDL
