MODEL 1
REMARK VINA RESULT:     -12.3      0.000      0.000
REMARK  Name = 11677589
REMARK  7 active torsions:
REMARK  status: ('A' for Active; 'I' for Inactive)
REMARK    1  A    between atoms: C_1  and  N_7
REMARK    2  A    between atoms: C_2  and  C_20
REMARK    3  A    between atoms: C_11  and  C_18
REMARK    4  A    between atoms: C_20  and  C_21
REMARK    5  A    between atoms: C_21  and  N_23
REMARK    6  A    between atoms: N_24  and  S_28
REMARK    7  A    between atoms: S_28  and  C_31
REMARK                            x       y       z     vdW  Elec       q    Type
REMARK                         _______ _______ _______ _____ _____    ______ ____
ROOT
ATOM      1  C   UNL     1      34.615 -22.149 -18.136  0.00  0.00    +0.058 C 
ATOM      2  C   UNL     1      34.809 -20.784 -20.547  0.00  0.00    -0.020 C 
ATOM      3  C   UNL     1      35.865 -21.921 -18.696  0.00  0.00    +0.015 C 
ATOM      4  C   UNL     1      33.460 -21.704 -18.765  0.00  0.00    +0.015 C 
ATOM      5  C   UNL     1      35.962 -21.236 -19.907  0.00  0.00    -0.003 C 
ATOM      6  C   UNL     1      33.557 -21.018 -19.977  0.00  0.00    -0.003 C 
ENDROOT
BRANCH   1   7
ATOM      7  N   UNL     1      34.517 -22.835 -16.925  0.00  0.00    -0.242 N 
ATOM      8  N   UNL     1      35.146 -23.824 -15.036  0.00  0.00    -0.387 NA
ATOM      9  N   UNL     1      31.507 -24.415 -14.670  0.00  0.00    -0.408 NA
ATOM     10  C   UNL     1      33.359 -23.282 -16.342  0.00  0.00    +0.091 C 
ATOM     11  C   UNL     1      35.556 -23.182 -16.106  0.00  0.00    +0.168 C 
ATOM     12  C   UNL     1      33.779 -23.896 -15.166  0.00  0.00    +0.172 C 
ATOM     13  C   UNL     1      32.028 -23.209 -16.726  0.00  0.00    +0.045 C 
ATOM     14  C   UNL     1      32.819 -24.465 -14.329  0.00  0.00    +0.140 C 
ATOM     15  C   UNL     1      31.153 -23.804 -15.828  0.00  0.00    +0.110 C 
ATOM     16  C   UNL     1      33.156 -25.147 -13.046  0.00  0.00    +0.069 C 
ATOM     17  C   UNL     1      29.692 -23.786 -16.137  0.00  0.00    +0.066 C 
BRANCH  11  18
ATOM     18  C   UNL     1      36.964 -22.857 -16.424  0.00  0.00    +0.075 C 
ATOM     19  C   UNL     1      37.954 -23.506 -15.451  0.00  0.00    +0.009 C 
ENDBRANCH  11  18
ENDBRANCH   1   7
BRANCH   2  20
ATOM     20  C   UNL     1      34.912 -20.052 -21.842  0.00  0.00    +0.048 C 
BRANCH  20  21
ATOM     21  C   UNL     1      35.839 -18.832 -21.784  0.00  0.00    +0.096 C 
BRANCH  21  23
ATOM     22  O   UNL     1      35.235 -16.768 -23.688  0.00  0.00    -0.251 OA
ATOM     23  N   UNL     1      35.121 -17.611 -21.537  0.00  0.00    -0.287 N 
ATOM     24  N   UNL     1      34.145 -15.535 -22.029  0.00  0.00    -0.169 N 
ATOM     25  C   UNL     1      34.873 -16.666 -22.519  0.00  0.00    +0.319 C 
ATOM     26  H   UNL     1      34.789 -17.438 -20.626  0.00  0.00    +0.151 HD
ATOM     27  H   UNL     1      33.899 -15.536 -21.075  0.00  0.00    +0.178 HD
BRANCH  24  28
ATOM     28  S   UNL     1      33.669 -14.185 -22.962  0.00  0.00    +0.077 S 
ATOM     29  O   UNL     1      34.845 -13.423 -23.339  0.00  0.00    -0.150 OA
ATOM     30  O   UNL     1      32.715 -14.610 -23.968  0.00  0.00    -0.150 OA
BRANCH  28  31
ATOM     31  C   UNL     1      32.767 -13.248 -21.766  0.00  0.00    +0.125 C 
ATOM     32  C   UNL     1      32.234 -12.022 -22.128  0.00  0.00    +0.020 C 
ATOM     33  C   UNL     1      32.609 -13.756 -20.488  0.00  0.00    +0.020 C 
ATOM     34  C   UNL     1      31.353 -11.781 -19.892  0.00  0.00    -0.022 C 
ATOM     35  C   UNL     1      31.521 -11.283 -21.183  0.00  0.00    -0.003 C 
ATOM     36  C   UNL     1      31.896 -13.017 -19.544  0.00  0.00    -0.003 C 
ATOM     37  C   UNL     1      30.590 -10.991 -18.883  0.00  0.00    +0.031 C 
ENDBRANCH  28  31
ENDBRANCH  24  28
ENDBRANCH  21  23
ENDBRANCH  20  21
ENDBRANCH   2  20
TORSDOF 7
ENDMDL
MODEL 2
REMARK VINA RESULT:     -12.0      1.781      3.725
REMARK  Name = 11677589
REMARK  7 active torsions:
REMARK  status: ('A' for Active; 'I' for Inactive)
REMARK    1  A    between atoms: C_1  and  N_7
REMARK    2  A    between atoms: C_2  and  C_20
REMARK    3  A    between atoms: C_11  and  C_18
REMARK    4  A    between atoms: C_20  and  C_21
REMARK    5  A    between atoms: C_21  and  N_23
REMARK    6  A    between atoms: N_24  and  S_28
REMARK    7  A    between atoms: S_28  and  C_31
REMARK                            x       y       z     vdW  Elec       q    Type
REMARK                         _______ _______ _______ _____ _____    ______ ____
ROOT
ATOM      1  C   UNL     1      35.412 -23.109 -16.528  0.00  0.00    +0.058 C 
ATOM      2  C   UNL     1      35.319 -21.882 -19.017  0.00  0.00    -0.020 C 
ATOM      3  C   UNL     1      36.502 -22.369 -16.967  0.00  0.00    +0.015 C 
ATOM      4  C   UNL     1      34.276 -23.244 -17.316  0.00  0.00    +0.015 C 
ATOM      5  C   UNL     1      36.455 -21.752 -18.218  0.00  0.00    -0.003 C 
ATOM      6  C   UNL     1      34.230 -22.628 -18.567  0.00  0.00    -0.003 C 
ENDROOT
BRANCH   1   7
ATOM      7  N   UNL     1      35.458 -23.726 -15.277  0.00  0.00    -0.242 N 
ATOM      8  N   UNL     1      34.773 -24.476 -13.299  0.00  0.00    -0.387 NA
ATOM      9  N   UNL     1      38.282 -25.633 -13.035  0.00  0.00    -0.408 NA
ATOM     10  C   UNL     1      36.555 -24.321 -14.710  0.00  0.00    +0.091 C 
ATOM     11  C   UNL     1      34.418 -23.845 -14.396  0.00  0.00    +0.168 C 
ATOM     12  C   UNL     1      36.101 -24.781 -13.478  0.00  0.00    +0.172 C 
ATOM     13  C   UNL     1      37.861 -24.492 -15.150  0.00  0.00    +0.045 C 
ATOM     14  C   UNL     1      36.997 -25.446 -12.641  0.00  0.00    +0.140 C 
ATOM     15  C   UNL     1      38.671 -25.164 -14.246  0.00  0.00    +0.110 C 
ATOM     16  C   UNL     1      36.620 -25.980 -11.301  0.00  0.00    +0.069 C 
ATOM     17  C   UNL     1      40.099 -25.407 -14.613  0.00  0.00    +0.066 C 
BRANCH  11  18
ATOM     18  C   UNL     1      33.068 -23.311 -14.680  0.00  0.00    +0.075 C 
ATOM     19  C   UNL     1      32.070 -23.604 -13.555  0.00  0.00    +0.009 C 
ENDBRANCH  11  18
ENDBRANCH   1   7
BRANCH   2  20
ATOM     20  C   UNL     1      35.270 -21.223 -20.355  0.00  0.00    +0.048 C 
BRANCH  20  21
ATOM     21  C   UNL     1      36.294 -20.094 -20.520  0.00  0.00    +0.096 C 
BRANCH  21  23
ATOM     22  O   UNL     1      35.846 -18.581 -22.920  0.00  0.00    -0.251 OA
ATOM     23  N   UNL     1      35.670 -18.803 -20.624  0.00  0.00    -0.287 N 
ATOM     24  N   UNL     1      34.855 -16.870 -21.675  0.00  0.00    -0.169 N 
ATOM     25  C   UNL     1      35.494 -18.141 -21.829  0.00  0.00    +0.319 C 
ATOM     26  H   UNL     1      35.354 -18.366 -19.800  0.00  0.00    +0.151 HD
ATOM     27  H   UNL     1      34.611 -16.595 -20.761  0.00  0.00    +0.178 HD
BRANCH  24  28
ATOM     28  S   UNL     1      34.483 -15.790 -22.946  0.00  0.00    +0.077 S 
ATOM     29  O   UNL     1      35.692 -15.111 -23.370  0.00  0.00    -0.150 OA
ATOM     30  O   UNL     1      33.638 -16.463 -23.915  0.00  0.00    -0.150 OA
BRANCH  28  31
ATOM     31  C   UNL     1      33.461 -14.618 -22.105  0.00  0.00    +0.125 C 
ATOM     32  C   UNL     1      33.032 -14.894 -20.818  0.00  0.00    +0.020 C 
ATOM     33  C   UNL     1      33.107 -13.445 -22.750  0.00  0.00    +0.020 C 
ATOM     34  C   UNL     1      31.860 -12.782 -20.790  0.00  0.00    -0.022 C 
ATOM     35  C   UNL     1      32.226 -13.969 -20.155  0.00  0.00    -0.003 C 
ATOM     36  C   UNL     1      32.300 -12.520 -22.087  0.00  0.00    -0.003 C 
ATOM     37  C   UNL     1      30.999 -11.793 -20.080  0.00  0.00    +0.031 C 
ENDBRANCH  28  31
ENDBRANCH  24  28
ENDBRANCH  21  23
ENDBRANCH  20  21
ENDBRANCH   2  20
TORSDOF 7
ENDMDL
MODEL 3
REMARK VINA RESULT:     -11.9      1.559      2.479
REMARK  Name = 11677589
REMARK  7 active torsions:
REMARK  status: ('A' for Active; 'I' for Inactive)
REMARK    1  A    between atoms: C_1  and  N_7
REMARK    2  A    between atoms: C_2  and  C_20
REMARK    3  A    between atoms: C_11  and  C_18
REMARK    4  A    between atoms: C_20  and  C_21
REMARK    5  A    between atoms: C_21  and  N_23
REMARK    6  A    between atoms: N_24  and  S_28
REMARK    7  A    between atoms: S_28  and  C_31
REMARK                            x       y       z     vdW  Elec       q    Type
REMARK                         _______ _______ _______ _____ _____    ______ ____
ROOT
ATOM      1  C   UNL     1      34.403 -23.222 -16.431  0.00  0.00    +0.058 C 
ATOM      2  C   UNL     1      35.859 -22.007 -18.460  0.00  0.00    -0.020 C 
ATOM      3  C   UNL     1      35.677 -22.736 -16.164  0.00  0.00    +0.015 C 
ATOM      4  C   UNL     1      33.848 -23.108 -17.699  0.00  0.00    +0.015 C 
ATOM      5  C   UNL     1      36.408 -22.126 -17.184  0.00  0.00    -0.003 C 
ATOM      6  C   UNL     1      34.579 -22.498 -18.719  0.00  0.00    -0.003 C 
ENDROOT
BRANCH   1   7
ATOM      7  N   UNL     1      33.671 -23.832 -15.412  0.00  0.00    -0.242 N 
ATOM      8  N   UNL     1      33.241 -25.002 -13.571  0.00  0.00    -0.387 NA
ATOM      9  N   UNL     1      29.729 -24.195 -14.428  0.00  0.00    -0.408 NA
ATOM     10  C   UNL     1      32.307 -23.821 -15.281  0.00  0.00    +0.091 C 
ATOM     11  C   UNL     1      34.184 -24.550 -14.367  0.00  0.00    +0.168 C 
ATOM     12  C   UNL     1      32.065 -24.557 -14.125  0.00  0.00    +0.172 C 
ATOM     13  C   UNL     1      31.296 -23.252 -16.044  0.00  0.00    +0.045 C 
ATOM     14  C   UNL     1      30.745 -24.735 -13.710  0.00  0.00    +0.140 C 
ATOM     15  C   UNL     1      30.022 -23.486 -15.547  0.00  0.00    +0.110 C 
ATOM     16  C   UNL     1      30.370 -25.504 -12.488  0.00  0.00    +0.069 C 
ATOM     17  C   UNL     1      28.853 -22.921 -16.287  0.00  0.00    +0.066 C 
BRANCH  11  18
ATOM     18  C   UNL     1      35.636 -24.770 -14.188  0.00  0.00    +0.075 C 
ATOM     19  C   UNL     1      36.105 -26.109 -14.767  0.00  0.00    +0.009 C 
ENDBRANCH  11  18
ENDBRANCH   1   7
BRANCH   2  20
ATOM     20  C   UNL     1      36.642 -21.355 -19.550  0.00  0.00    +0.048 C 
BRANCH  20  21
ATOM     21  C   UNL     1      35.793 -20.972 -20.768  0.00  0.00    +0.096 C 
BRANCH  21  23
ATOM     22  O   UNL     1      35.150 -19.486 -23.141  0.00  0.00    -0.251 OA
ATOM     23  N   UNL     1      35.599 -19.551 -20.873  0.00  0.00    -0.287 N 
ATOM     24  N   UNL     1      35.150 -17.497 -21.915  0.00  0.00    -0.169 N 
ATOM     25  C   UNL     1      35.289 -18.914 -22.064  0.00  0.00    +0.319 C 
ATOM     26  H   UNL     1      35.691 -19.004 -20.060  0.00  0.00    +0.151 HD
ATOM     27  H   UNL     1      35.284 -17.123 -21.014  0.00  0.00    +0.178 HD
BRANCH  24  28
ATOM     28  S   UNL     1      34.774 -16.403 -23.172  0.00  0.00    +0.077 S 
ATOM     29  O   UNL     1      35.987 -15.743 -23.615  0.00  0.00    -0.150 OA
ATOM     30  O   UNL     1      33.900 -17.055 -24.129  0.00  0.00    -0.150 OA
BRANCH  28  31
ATOM     31  C   UNL     1      33.788 -15.218 -22.306  0.00  0.00    +0.125 C 
ATOM     32  C   UNL     1      33.478 -15.440 -20.975  0.00  0.00    +0.020 C 
ATOM     33  C   UNL     1      33.344 -14.091 -22.974  0.00  0.00    +0.020 C 
ATOM     34  C   UNL     1      32.245 -13.363 -20.950  0.00  0.00    -0.022 C 
ATOM     35  C   UNL     1      32.700 -14.505 -20.292  0.00  0.00    -0.003 C 
ATOM     36  C   UNL     1      32.567 -13.155 -22.291  0.00  0.00    -0.003 C 
ATOM     37  C   UNL     1      31.415 -12.363 -20.219  0.00  0.00    +0.031 C 
ENDBRANCH  28  31
ENDBRANCH  24  28
ENDBRANCH  21  23
ENDBRANCH  20  21
ENDBRANCH   2  20
TORSDOF 7
ENDMDL
MODEL 4
REMARK VINA RESULT:     -11.8      3.673     11.492
REMARK  Name = 11677589
REMARK  7 active torsions:
REMARK  status: ('A' for Active; 'I' for Inactive)
REMARK    1  A    between atoms: C_1  and  N_7
REMARK    2  A    between atoms: C_2  and  C_20
REMARK    3  A    between atoms: C_11  and  C_18
REMARK    4  A    between atoms: C_20  and  C_21
REMARK    5  A    between atoms: C_21  and  N_23
REMARK    6  A    between atoms: N_24  and  S_28
REMARK    7  A    between atoms: S_28  and  C_31
REMARK                            x       y       z     vdW  Elec       q    Type
REMARK                         _______ _______ _______ _____ _____    ______ ____
ROOT
ATOM      1  C   UNL     1      33.959 -14.291 -22.295  0.00  0.00    +0.058 C 
ATOM      2  C   UNL     1      34.991 -16.816 -21.774  0.00  0.00    -0.020 C 
ATOM      3  C   UNL     1      34.399 -15.082 -23.349  0.00  0.00    +0.015 C 
ATOM      4  C   UNL     1      34.028 -14.746 -20.985  0.00  0.00    +0.015 C 
ATOM      5  C   UNL     1      34.918 -16.350 -23.086  0.00  0.00    -0.003 C 
ATOM      6  C   UNL     1      34.547 -16.014 -20.722  0.00  0.00    -0.003 C 
ENDROOT
BRANCH   1   7
ATOM      7  N   UNL     1      33.441 -13.022 -22.557  0.00  0.00    -0.242 N 
ATOM      8  N   UNL     1      32.963 -11.157 -23.668  0.00  0.00    -0.387 NA
ATOM      9  N   UNL     1      31.287 -10.239 -20.495  0.00  0.00    -0.408 NA
ATOM     10  C   UNL     1      32.724 -12.248 -21.682  0.00  0.00    +0.091 C 
ATOM     11  C   UNL     1      33.557 -12.328 -23.729  0.00  0.00    +0.168 C 
ATOM     12  C   UNL     1      32.438 -11.090 -22.399  0.00  0.00    +0.172 C 
ATOM     13  C   UNL     1      32.314 -12.448 -20.371  0.00  0.00    +0.045 C 
ATOM     14  C   UNL     1      31.705 -10.081 -21.775  0.00  0.00    +0.140 C 
ATOM     15  C   UNL     1      31.593 -11.387 -19.842  0.00  0.00    +0.110 C 
ATOM     16  C   UNL     1      31.342  -8.800 -22.449  0.00  0.00    +0.069 C 
ATOM     17  C   UNL     1      31.099 -11.492 -18.436  0.00  0.00    +0.066 C 
BRANCH  11  18
ATOM     18  C   UNL     1      34.275 -12.864 -24.906  0.00  0.00    +0.075 C 
ATOM     19  C   UNL     1      33.357 -13.067 -26.116  0.00  0.00    +0.009 C 
ENDBRANCH  11  18
ENDBRANCH   1   7
BRANCH   2  20
ATOM     20  C   UNL     1      35.546 -18.172 -21.494  0.00  0.00    +0.048 C 
BRANCH  20  21
ATOM     21  C   UNL     1      34.474 -19.262 -21.384  0.00  0.00    +0.096 C 
BRANCH  21  23
ATOM     22  O   UNL     1      32.666 -21.170 -20.224  0.00  0.00    -0.251 OA
ATOM     23  N   UNL     1      34.771 -20.219 -20.353  0.00  0.00    -0.287 N 
ATOM     24  N   UNL     1      34.367 -21.954 -18.826  0.00  0.00    -0.169 N 
ATOM     25  C   UNL     1      33.834 -21.106 -19.849  0.00  0.00    +0.319 C 
ATOM     26  H   UNL     1      35.684 -20.244 -19.985  0.00  0.00    +0.151 HD
ATOM     27  H   UNL     1      35.313 -21.831 -18.585  0.00  0.00    +0.178 HD
BRANCH  24  28
ATOM     28  S   UNL     1      33.494 -23.162 -17.989  0.00  0.00    +0.077 S 
ATOM     29  O   UNL     1      32.182 -22.651 -17.640  0.00  0.00    -0.150 OA
ATOM     30  O   UNL     1      33.630 -24.424 -18.690  0.00  0.00    -0.150 OA
BRANCH  28  31
ATOM     31  C   UNL     1      34.444 -23.297 -16.504  0.00  0.00    +0.125 C 
ATOM     32  C   UNL     1      35.736 -22.801 -16.480  0.00  0.00    +0.020 C 
ATOM     33  C   UNL     1      33.878 -23.897 -15.393  0.00  0.00    +0.020 C 
ATOM     34  C   UNL     1      35.931 -23.509 -14.179  0.00  0.00    -0.022 C 
ATOM     35  C   UNL     1      36.485 -22.908 -15.308  0.00  0.00    -0.003 C 
ATOM     36  C   UNL     1      34.627 -24.004 -14.221  0.00  0.00    -0.003 C 
ATOM     37  C   UNL     1      36.731 -23.622 -12.926  0.00  0.00    +0.031 C 
ENDBRANCH  28  31
ENDBRANCH  24  28
ENDBRANCH  21  23
ENDBRANCH  20  21
ENDBRANCH   2  20
TORSDOF 7
ENDMDL
MODEL 5
REMARK VINA RESULT:     -11.7      1.385      1.804
REMARK  Name = 11677589
REMARK  7 active torsions:
REMARK  status: ('A' for Active; 'I' for Inactive)
REMARK    1  A    between atoms: C_1  and  N_7
REMARK    2  A    between atoms: C_2  and  C_20
REMARK    3  A    between atoms: C_11  and  C_18
REMARK    4  A    between atoms: C_20  and  C_21
REMARK    5  A    between atoms: C_21  and  N_23
REMARK    6  A    between atoms: N_24  and  S_28
REMARK    7  A    between atoms: S_28  and  C_31
REMARK                            x       y       z     vdW  Elec       q    Type
REMARK                         _______ _______ _______ _____ _____    ______ ____
ROOT
ATOM      1  C   UNL     1      35.629 -22.767 -16.835  0.00  0.00    +0.058 C 
ATOM      2  C   UNL     1      35.249 -21.613 -19.331  0.00  0.00    -0.020 C 
ATOM      3  C   UNL     1      36.645 -22.007 -17.400  0.00  0.00    +0.015 C 
ATOM      4  C   UNL     1      34.426 -22.957 -17.501  0.00  0.00    +0.015 C 
ATOM      5  C   UNL     1      36.454 -21.427 -18.654  0.00  0.00    -0.003 C 
ATOM      6  C   UNL     1      34.235 -22.378 -18.756  0.00  0.00    -0.003 C 
ENDROOT
BRANCH   1   7
ATOM      7  N   UNL     1      35.819 -23.347 -15.580  0.00  0.00    -0.242 N 
ATOM      8  N   UNL     1      36.874 -24.222 -13.829  0.00  0.00    -0.387 NA
ATOM      9  N   UNL     1      33.432 -24.550 -12.499  0.00  0.00    -0.408 NA
ATOM     10  C   UNL     1      34.834 -23.673 -14.684  0.00  0.00    +0.091 C 
ATOM     11  C   UNL     1      37.019 -23.694 -15.023  0.00  0.00    +0.168 C 
ATOM     12  C   UNL     1      35.518 -24.217 -13.601  0.00  0.00    +0.172 C 
ATOM     13  C   UNL     1      33.452 -23.547 -14.723  0.00  0.00    +0.045 C 
ATOM     14  C   UNL     1      34.784 -24.657 -12.499  0.00  0.00    +0.140 C 
ATOM     15  C   UNL     1      32.816 -24.012 -13.581  0.00  0.00    +0.110 C 
ATOM     16  C   UNL     1      35.412 -25.255 -11.286  0.00  0.00    +0.069 C 
ATOM     17  C   UNL     1      31.326 -23.926 -13.510  0.00  0.00    +0.066 C 
BRANCH  11  18
ATOM     18  C   UNL     1      38.309 -23.484 -15.716  0.00  0.00    +0.075 C 
ATOM     19  C   UNL     1      39.373 -24.507 -15.305  0.00  0.00    +0.009 C 
ENDBRANCH  11  18
ENDBRANCH   1   7
BRANCH   2  20
ATOM     20  C   UNL     1      35.046 -20.993 -20.673  0.00  0.00    +0.048 C 
BRANCH  20  21
ATOM     21  C   UNL     1      35.988 -19.817 -20.954  0.00  0.00    +0.096 C 
BRANCH  21  23
ATOM     22  O   UNL     1      35.646 -17.978 -23.135  0.00  0.00    -0.251 OA
ATOM     23  N   UNL     1      35.306 -18.551 -20.919  0.00  0.00    -0.287 N 
ATOM     24  N   UNL     1      34.472 -16.517 -21.739  0.00  0.00    -0.169 N 
ATOM     25  C   UNL     1      35.188 -17.723 -22.024  0.00  0.00    +0.319 C 
ATOM     26  H   UNL     1      34.905 -18.258 -20.070  0.00  0.00    +0.151 HD
ATOM     27  H   UNL     1      34.144 -16.394 -20.819  0.00  0.00    +0.178 HD
BRANCH  24  28
ATOM     28  S   UNL     1      34.141 -15.274 -22.864  0.00  0.00    +0.077 S 
ATOM     29  O   UNL     1      35.377 -14.597 -23.210  0.00  0.00    -0.150 OA
ATOM     30  O   UNL     1      33.269 -15.787 -23.903  0.00  0.00    -0.150 OA
BRANCH  28  31
ATOM     31  C   UNL     1      33.170 -14.175 -21.878  0.00  0.00    +0.125 C 
ATOM     32  C   UNL     1      32.721 -12.988 -22.431  0.00  0.00    +0.020 C 
ATOM     33  C   UNL     1      32.875 -14.522 -20.571  0.00  0.00    +0.020 C 
ATOM     34  C   UNL     1      31.647 -12.455 -20.333  0.00  0.00    -0.022 C 
ATOM     35  C   UNL     1      31.954 -12.121 -21.652  0.00  0.00    -0.003 C 
ATOM     36  C   UNL     1      32.107 -13.655 -19.793  0.00  0.00    -0.003 C 
ATOM     37  C   UNL     1      30.826 -11.529 -19.502  0.00  0.00    +0.031 C 
ENDBRANCH  28  31
ENDBRANCH  24  28
ENDBRANCH  21  23
ENDBRANCH  20  21
ENDBRANCH   2  20
TORSDOF 7
ENDMDL
MODEL 6
REMARK VINA RESULT:     -11.7      3.483     11.530
REMARK  Name = 11677589
REMARK  7 active torsions:
REMARK  status: ('A' for Active; 'I' for Inactive)
REMARK    1  A    between atoms: C_1  and  N_7
REMARK    2  A    between atoms: C_2  and  C_20
REMARK    3  A    between atoms: C_11  and  C_18
REMARK    4  A    between atoms: C_20  and  C_21
REMARK    5  A    between atoms: C_21  and  N_23
REMARK    6  A    between atoms: N_24  and  S_28
REMARK    7  A    between atoms: S_28  and  C_31
REMARK                            x       y       z     vdW  Elec       q    Type
REMARK                         _______ _______ _______ _____ _____    ______ ____
ROOT
ATOM      1  C   UNL     1      33.794 -13.348 -23.268  0.00  0.00    +0.058 C 
ATOM      2  C   UNL     1      34.380 -16.053 -23.494  0.00  0.00    -0.020 C 
ATOM      3  C   UNL     1      33.416 -14.038 -24.413  0.00  0.00    +0.015 C 
ATOM      4  C   UNL     1      34.460 -13.993 -22.234  0.00  0.00    +0.015 C 
ATOM      5  C   UNL     1      33.712 -15.397 -24.526  0.00  0.00    -0.003 C 
ATOM      6  C   UNL     1      34.756 -15.352 -22.348  0.00  0.00    -0.003 C 
ENDROOT
BRANCH   1   7
ATOM      7  N   UNL     1      33.499 -11.989 -23.154  0.00  0.00    -0.242 N 
ATOM      8  N   UNL     1      33.478  -9.816 -23.627  0.00  0.00    -0.387 NA
ATOM      9  N   UNL     1      31.375  -9.641 -20.583  0.00  0.00    -0.408 NA
ATOM     10  C   UNL     1      32.738 -11.408 -22.173  0.00  0.00    +0.091 C 
ATOM     11  C   UNL     1      33.918 -10.998 -23.998  0.00  0.00    +0.168 C 
ATOM     12  C   UNL     1      32.741 -10.053 -22.491  0.00  0.00    +0.172 C 
ATOM     13  C   UNL     1      32.070 -11.928 -21.073  0.00  0.00    +0.045 C 
ATOM     14  C   UNL     1      32.040  -9.172 -21.668  0.00  0.00    +0.140 C 
ATOM     15  C   UNL     1      31.405 -10.971 -20.320  0.00  0.00    +0.110 C 
ATOM     16  C   UNL     1      31.975  -7.702 -21.913  0.00  0.00    +0.069 C 
ATOM     17  C   UNL     1      30.650 -11.416 -19.109  0.00  0.00    +0.066 C 
BRANCH  11  18
ATOM     18  C   UNL     1      34.767 -11.263 -25.180  0.00  0.00    +0.075 C 
ATOM     19  C   UNL     1      35.850 -10.198 -25.380  0.00  0.00    +0.009 C 
ENDBRANCH  11  18
ENDBRANCH   1   7
BRANCH   2  20
ATOM     20  C   UNL     1      34.696 -17.506 -23.615  0.00  0.00    +0.048 C 
BRANCH  20  21
ATOM     21  C   UNL     1      35.847 -17.960 -22.710  0.00  0.00    +0.096 C 
BRANCH  21  23
ATOM     22  O   UNL     1      37.533 -19.474 -20.944  0.00  0.00    -0.251 OA
ATOM     23  N   UNL     1      35.430 -18.948 -21.751  0.00  0.00    -0.287 N 
ATOM     24  N   UNL     1      35.662 -20.568 -20.070  0.00  0.00    -0.169 N 
ATOM     25  C   UNL     1      36.316 -19.634 -20.936  0.00  0.00    +0.319 C 
ATOM     26  H   UNL     1      34.469 -19.147 -21.671  0.00  0.00    +0.151 HD
ATOM     27  H   UNL     1      34.682 -20.633 -20.134  0.00  0.00    +0.178 HD
BRANCH  24  28
ATOM     28  S   UNL     1      36.445 -21.580 -18.936  0.00  0.00    +0.077 S 
ATOM     29  O   UNL     1      37.112 -22.660 -19.637  0.00  0.00    -0.150 OA
ATOM     30  O   UNL     1      37.171 -20.761 -17.985  0.00  0.00    -0.150 OA
BRANCH  28  31
ATOM     31  C   UNL     1      35.058 -22.257 -18.074  0.00  0.00    +0.125 C 
ATOM     32  C   UNL     1      33.797 -22.158 -18.637  0.00  0.00    +0.020 C 
ATOM     33  C   UNL     1      35.258 -22.873 -16.851  0.00  0.00    +0.020 C 
ATOM     34  C   UNL     1      32.887 -23.317 -16.723  0.00  0.00    -0.022 C 
ATOM     35  C   UNL     1      32.703 -22.693 -17.956  0.00  0.00    -0.003 C 
ATOM     36  C   UNL     1      34.164 -23.408 -16.170  0.00  0.00    -0.003 C 
ATOM     37  C   UNL     1      31.718 -23.890 -15.996  0.00  0.00    +0.031 C 
ENDBRANCH  28  31
ENDBRANCH  24  28
ENDBRANCH  21  23
ENDBRANCH  20  21
ENDBRANCH   2  20
TORSDOF 7
ENDMDL
MODEL 7
REMARK VINA RESULT:     -11.4      0.836      2.995
REMARK  Name = 11677589
REMARK  7 active torsions:
REMARK  status: ('A' for Active; 'I' for Inactive)
REMARK    1  A    between atoms: C_1  and  N_7
REMARK    2  A    between atoms: C_2  and  C_20
REMARK    3  A    between atoms: C_11  and  C_18
REMARK    4  A    between atoms: C_20  and  C_21
REMARK    5  A    between atoms: C_21  and  N_23
REMARK    6  A    between atoms: N_24  and  S_28
REMARK    7  A    between atoms: S_28  and  C_31
REMARK                            x       y       z     vdW  Elec       q    Type
REMARK                         _______ _______ _______ _____ _____    ______ ____
ROOT
ATOM      1  C   UNL     1      34.580 -22.363 -17.916  0.00  0.00    +0.058 C 
ATOM      2  C   UNL     1      34.798 -20.942 -20.292  0.00  0.00    -0.020 C 
ATOM      3  C   UNL     1      35.837 -22.021 -18.397  0.00  0.00    +0.015 C 
ATOM      4  C   UNL     1      33.430 -22.004 -18.607  0.00  0.00    +0.015 C 
ATOM      5  C   UNL     1      35.946 -21.308 -19.591  0.00  0.00    -0.003 C 
ATOM      6  C   UNL     1      33.539 -21.290 -19.801  0.00  0.00    -0.003 C 
ENDROOT
BRANCH   1   7
ATOM      7  N   UNL     1      34.469 -23.078 -16.722  0.00  0.00    -0.242 N 
ATOM      8  N   UNL     1      33.527 -24.126 -15.003  0.00  0.00    -0.387 NA
ATOM      9  N   UNL     1      37.048 -24.636 -13.973  0.00  0.00    -0.408 NA
ATOM     10  C   UNL     1      35.510 -23.511 -15.943  0.00  0.00    +0.091 C 
ATOM     11  C   UNL     1      33.306 -23.469 -16.120  0.00  0.00    +0.168 C 
ATOM     12  C   UNL     1      34.895 -24.162 -14.877  0.00  0.00    +0.172 C 
ATOM     13  C   UNL     1      36.887 -23.396 -16.068  0.00  0.00    +0.045 C 
ATOM     14  C   UNL     1      35.698 -24.728 -13.886  0.00  0.00    +0.140 C 
ATOM     15  C   UNL     1      37.595 -23.991 -15.033  0.00  0.00    +0.110 C 
ATOM     16  C   UNL     1      35.147 -25.448 -12.702  0.00  0.00    +0.069 C 
ATOM     17  C   UNL     1      39.087 -23.930 -15.063  0.00  0.00    +0.066 C 
BRANCH  11  18
ATOM     18  C   UNL     1      31.974 -23.169 -16.688  0.00  0.00    +0.075 C 
ATOM     19  C   UNL     1      30.865 -23.177 -15.631  0.00  0.00    +0.009 C 
ENDBRANCH  11  18
ENDBRANCH   1   7
BRANCH   2  20
ATOM     20  C   UNL     1      34.915 -20.179 -21.568  0.00  0.00    +0.048 C 
BRANCH  20  21
ATOM     21  C   UNL     1      35.797 -18.930 -21.457  0.00  0.00    +0.096 C 
BRANCH  21  23
ATOM     22  O   UNL     1      35.402 -16.839 -23.387  0.00  0.00    -0.251 OA
ATOM     23  N   UNL     1      35.024 -17.729 -21.285  0.00  0.00    -0.287 N 
ATOM     24  N   UNL     1      34.075 -15.664 -21.864  0.00  0.00    -0.169 N 
ATOM     25  C   UNL     1      34.887 -16.769 -22.274  0.00  0.00    +0.319 C 
ATOM     26  H   UNL     1      34.573 -17.582 -20.423  0.00  0.00    +0.151 HD
ATOM     27  H   UNL     1      33.706 -15.689 -20.951  0.00  0.00    +0.178 HD
BRANCH  24  28
ATOM     28  S   UNL     1      33.696 -14.304 -22.827  0.00  0.00    +0.077 S 
ATOM     29  O   UNL     1      34.916 -13.592 -23.155  0.00  0.00    -0.150 OA
ATOM     30  O   UNL     1      32.772 -14.700 -23.873  0.00  0.00    -0.150 OA
BRANCH  28  31
ATOM     31  C   UNL     1      32.777 -13.322 -21.680  0.00  0.00    +0.125 C 
ATOM     32  C   UNL     1      32.589 -13.788 -20.390  0.00  0.00    +0.020 C 
ATOM     33  C   UNL     1      32.263 -12.105 -22.093  0.00  0.00    +0.020 C 
ATOM     34  C   UNL     1      31.338 -11.784 -19.884  0.00  0.00    -0.022 C 
ATOM     35  C   UNL     1      31.864 -13.012 -19.485  0.00  0.00    -0.003 C 
ATOM     36  C   UNL     1      31.538 -11.330 -21.188  0.00  0.00    -0.003 C 
ATOM     37  C   UNL     1      30.565 -10.955 -18.916  0.00  0.00    +0.031 C 
ENDBRANCH  28  31
ENDBRANCH  24  28
ENDBRANCH  21  23
ENDBRANCH  20  21
ENDBRANCH   2  20
TORSDOF 7
ENDMDL
MODEL 8
REMARK VINA RESULT:     -11.1      4.760     13.856
REMARK  Name = 11677589
REMARK  7 active torsions:
REMARK  status: ('A' for Active; 'I' for Inactive)
REMARK    1  A    between atoms: C_1  and  N_7
REMARK    2  A    between atoms: C_2  and  C_20
REMARK    3  A    between atoms: C_11  and  C_18
REMARK    4  A    between atoms: C_20  and  C_21
REMARK    5  A    between atoms: C_21  and  N_23
REMARK    6  A    between atoms: N_24  and  S_28
REMARK    7  A    between atoms: S_28  and  C_31
REMARK                            x       y       z     vdW  Elec       q    Type
REMARK                         _______ _______ _______ _____ _____    ______ ____
ROOT
ATOM      1  C   UNL     1      32.885  -8.990 -22.852  0.00  0.00    +0.058 C 
ATOM      2  C   UNL     1      33.749 -11.598 -23.251  0.00  0.00    -0.020 C 
ATOM      3  C   UNL     1      32.062 -10.047 -22.488  0.00  0.00    +0.015 C 
ATOM      4  C   UNL     1      34.135  -9.219 -23.413  0.00  0.00    +0.015 C 
ATOM      5  C   UNL     1      32.496 -11.357 -22.689  0.00  0.00    -0.003 C 
ATOM      6  C   UNL     1      34.569 -10.529 -23.614  0.00  0.00    -0.003 C 
ENDROOT
BRANCH   1   7
ATOM      7  N   UNL     1      32.451  -7.678 -22.652  0.00  0.00    -0.242 N 
ATOM      8  N   UNL     1      31.542  -5.917 -21.646  0.00  0.00    -0.387 NA
ATOM      9  N   UNL     1      32.475  -4.209 -24.797  0.00  0.00    -0.408 NA
ATOM     10  C   UNL     1      32.570  -6.644 -23.545  0.00  0.00    +0.091 C 
ATOM     11  C   UNL     1      31.831  -7.194 -21.534  0.00  0.00    +0.168 C 
ATOM     12  C   UNL     1      31.995  -5.557 -22.893  0.00  0.00    +0.172 C 
ATOM     13  C   UNL     1      33.110  -6.565 -24.821  0.00  0.00    +0.045 C 
ATOM     14  C   UNL     1      31.958  -4.327 -23.549  0.00  0.00    +0.140 C 
ATOM     15  C   UNL     1      33.023  -5.300 -25.386  0.00  0.00    +0.110 C 
ATOM     16  C   UNL     1      31.367  -3.098 -22.946  0.00  0.00    +0.069 C 
ATOM     17  C   UNL     1      33.573  -5.095 -26.761  0.00  0.00    +0.066 C 
BRANCH  11  18
ATOM     18  C   UNL     1      31.537  -8.039 -20.357  0.00  0.00    +0.075 C 
ATOM     19  C   UNL     1      32.687  -8.065 -19.345  0.00  0.00    +0.009 C 
ENDBRANCH  11  18
ENDBRANCH   1   7
BRANCH   2  20
ATOM     20  C   UNL     1      34.213 -13.000 -23.465  0.00  0.00    +0.048 C 
BRANCH  20  21
ATOM     21  C   UNL     1      33.203 -14.057 -23.004  0.00  0.00    +0.096 C 
BRANCH  21  23
ATOM     22  O   UNL     1      34.444 -16.396 -24.118  0.00  0.00    -0.251 OA
ATOM     23  N   UNL     1      33.829 -15.131 -22.281  0.00  0.00    -0.287 N 
ATOM     24  N   UNL     1      34.959 -17.164 -21.972  0.00  0.00    -0.169 N 
ATOM     25  C   UNL     1      34.406 -16.227 -22.902  0.00  0.00    +0.319 C 
ATOM     26  H   UNL     1      33.848 -15.086 -21.298  0.00  0.00    +0.151 HD
ATOM     27  H   UNL     1      34.879 -16.949 -21.014  0.00  0.00    +0.178 HD
BRANCH  24  28
ATOM     28  S   UNL     1      35.744 -18.624 -22.387  0.00  0.00    +0.077 S 
ATOM     29  O   UNL     1      35.327 -19.033 -23.715  0.00  0.00    -0.150 OA
ATOM     30  O   UNL     1      37.153 -18.521 -22.057  0.00  0.00    -0.150 OA
BRANCH  28  31
ATOM     31  C   UNL     1      35.027 -19.738 -21.218  0.00  0.00    +0.125 C 
ATOM     32  C   UNL     1      33.649 -19.792 -21.092  0.00  0.00    +0.020 C 
ATOM     33  C   UNL     1      35.855 -20.537 -20.449  0.00  0.00    +0.020 C 
ATOM     34  C   UNL     1      33.903 -21.484 -19.386  0.00  0.00    -0.022 C 
ATOM     35  C   UNL     1      33.083 -20.672 -20.169  0.00  0.00    -0.003 C 
ATOM     36  C   UNL     1      35.290 -21.417 -19.526  0.00  0.00    -0.003 C 
ATOM     37  C   UNL     1      33.298 -22.425 -18.401  0.00  0.00    +0.031 C 
ENDBRANCH  28  31
ENDBRANCH  24  28
ENDBRANCH  21  23
ENDBRANCH  20  21
ENDBRANCH   2  20
TORSDOF 7
ENDMDL
MODEL 9
REMARK VINA RESULT:     -11.0      2.296      3.362
REMARK  Name = 11677589
REMARK  7 active torsions:
REMARK  status: ('A' for Active; 'I' for Inactive)
REMARK    1  A    between atoms: C_1  and  N_7
REMARK    2  A    between atoms: C_2  and  C_20
REMARK    3  A    between atoms: C_11  and  C_18
REMARK    4  A    between atoms: C_20  and  C_21
REMARK    5  A    between atoms: C_21  and  N_23
REMARK    6  A    between atoms: N_24  and  S_28
REMARK    7  A    between atoms: S_28  and  C_31
REMARK                            x       y       z     vdW  Elec       q    Type
REMARK                         _______ _______ _______ _____ _____    ______ ____
ROOT
ATOM      1  C   UNL     1      34.451 -23.138 -16.693  0.00  0.00    +0.058 C 
ATOM      2  C   UNL     1      35.848 -21.895 -18.745  0.00  0.00    -0.020 C 
ATOM      3  C   UNL     1      35.761 -22.730 -16.480  0.00  0.00    +0.015 C 
ATOM      4  C   UNL     1      33.829 -22.933 -17.918  0.00  0.00    +0.015 C 
ATOM      5  C   UNL     1      36.463 -22.105 -17.512  0.00  0.00    -0.003 C 
ATOM      6  C   UNL     1      34.531 -22.309 -18.949  0.00  0.00    -0.003 C 
ENDROOT
BRANCH   1   7
ATOM      7  N   UNL     1      33.748 -23.764 -15.662  0.00  0.00    -0.242 N 
ATOM      8  N   UNL     1      33.371 -24.962 -13.827  0.00  0.00    -0.387 NA
ATOM      9  N   UNL     1      29.837 -24.134 -14.566  0.00  0.00    -0.408 NA
ATOM     10  C   UNL     1      32.388 -23.751 -15.490  0.00  0.00    +0.091 C 
ATOM     11  C   UNL     1      34.291 -24.498 -14.644  0.00  0.00    +0.168 C 
ATOM     12  C   UNL     1      32.179 -24.506 -14.339  0.00  0.00    +0.172 C 
ATOM     13  C   UNL     1      31.357 -23.169 -16.213  0.00  0.00    +0.045 C 
ATOM     14  C   UNL     1      30.872 -24.687 -13.886  0.00  0.00    +0.140 C 
ATOM     15  C   UNL     1      30.097 -23.409 -15.681  0.00  0.00    +0.110 C 
ATOM     16  C   UNL     1      30.532 -25.475 -12.667  0.00  0.00    +0.069 C 
ATOM     17  C   UNL     1      28.908 -22.830 -16.377  0.00  0.00    +0.066 C 
BRANCH  11  18
ATOM     18  C   UNL     1      35.746 -24.724 -14.512  0.00  0.00    +0.075 C 
ATOM     19  C   UNL     1      36.148 -26.172 -14.811  0.00  0.00    +0.009 C 
ENDBRANCH  11  18
ENDBRANCH   1   7
BRANCH   2  20
ATOM     20  C   UNL     1      36.599 -21.227 -19.848  0.00  0.00    +0.048 C 
BRANCH  20  21
ATOM     21  C   UNL     1      35.692 -20.592 -20.909  0.00  0.00    +0.096 C 
BRANCH  21  23
ATOM     22  O   UNL     1      33.612 -18.617 -20.751  0.00  0.00    -0.251 OA
ATOM     23  N   UNL     1      35.848 -19.163 -20.975  0.00  0.00    -0.287 N 
ATOM     24  N   UNL     1      35.191 -16.911 -20.987  0.00  0.00    -0.169 N 
ATOM     25  C   UNL     1      34.784 -18.280 -20.890  0.00  0.00    +0.319 C 
ATOM     26  H   UNL     1      36.754 -18.795 -21.088  0.00  0.00    +0.151 HD
ATOM     27  H   UNL     1      36.152 -16.733 -21.102  0.00  0.00    +0.178 HD
BRANCH  24  28
ATOM     28  S   UNL     1      34.144 -15.562 -20.922  0.00  0.00    +0.077 S 
ATOM     29  O   UNL     1      32.863 -15.973 -20.381  0.00  0.00    -0.150 OA
ATOM     30  O   UNL     1      34.854 -14.432 -20.353  0.00  0.00    -0.150 OA
BRANCH  28  31
ATOM     31  C   UNL     1      33.930 -15.216 -22.642  0.00  0.00    +0.125 C 
ATOM     32  C   UNL     1      34.456 -16.089 -23.578  0.00  0.00    +0.020 C 
ATOM     33  C   UNL     1      33.240 -14.078 -23.021  0.00  0.00    +0.020 C 
ATOM     34  C   UNL     1      33.594 -14.674 -25.336  0.00  0.00    -0.022 C 
ATOM     35  C   UNL     1      34.286 -15.816 -24.936  0.00  0.00    -0.003 C 
ATOM     36  C   UNL     1      33.071 -13.804 -24.379  0.00  0.00    -0.003 C 
ATOM     37  C   UNL     1      33.412 -14.383 -26.787  0.00  0.00    +0.031 C 
ENDBRANCH  28  31
ENDBRANCH  24  28
ENDBRANCH  21  23
ENDBRANCH  20  21
ENDBRANCH   2  20
TORSDOF 7
ENDMDL
