MODEL 1
REMARK VINA RESULT:     -10.7      0.000      0.000
REMARK  Name = 449162
REMARK  12 active torsions:
REMARK  status: ('A' for Active; 'I' for Inactive)
REMARK    1  A    between atoms: C_1  and  C_9
REMARK    2  A    between atoms: C_3  and  C_19
REMARK    3  A    between atoms: C_10  and  C_16
REMARK    4  A    between atoms: C_11  and  C_13
REMARK    5  A    between atoms: C_13  and  O_14
REMARK    6  A    between atoms: C_16  and  O_17
REMARK    7  A    between atoms: C_20  and  C_21
REMARK    8  A    between atoms: C_21  and  O_22
REMARK    9  A    between atoms: O_22  and  C_23
REMARK   10  A    between atoms: C_24  and  C_32
REMARK   11  A    between atoms: C_25  and  O_29
REMARK   12  A    between atoms: C_32  and  O_33
REMARK                            x       y       z     vdW  Elec       q    Type
REMARK                         _______ _______ _______ _____ _____    ______ ____
ROOT
ATOM      1  C   UNL     1      35.372 -18.767 -22.207  0.00  0.00    +0.037 C 
ATOM      2  C   UNL     1      34.527 -19.633 -21.513  0.00  0.00    +0.003 C 
ATOM      3  C   UNL     1      35.025 -20.397 -20.458  0.00  0.00    -0.000 C 
ATOM      4  C   UNL     1      36.716 -18.665 -21.846  0.00  0.00    +0.003 C 
ATOM      5  C   UNL     1      36.369 -20.296 -20.096  0.00  0.00    -0.000 C 
ATOM      6  C   UNL     1      37.213 -19.430 -20.791  0.00  0.00    +0.000 C 
ENDROOT
BRANCH   1   9
ATOM      7  O   UNL     1      34.533 -18.675 -24.413  0.00  0.00    -0.353 OA
ATOM      8  N   UNL     1      34.057 -17.794 -25.375  0.00  0.00    -0.071 NA
ATOM      9  C   UNL     1      34.859 -17.976 -23.299  0.00  0.00    +0.175 A 
ATOM     10  C   UNL     1      34.613 -16.648 -23.488  0.00  0.00    +0.071 A 
ATOM     11  C   UNL     1      34.114 -16.589 -24.801  0.00  0.00    +0.196 A 
BRANCH  11  13
ATOM     12  O   UNL     1      34.125 -15.086 -26.640  0.00  0.00    -0.243 OA
ATOM     13  C   UNL     1      33.687 -15.432 -25.533  0.00  0.00    +0.359 C 
BRANCH  13  14
ATOM     14  O   UNL     1      32.715 -14.682 -24.918  0.00  0.00    -0.476 OA
ATOM     15  H   UNL     1      31.811 -14.842 -25.106  0.00  0.00    +0.295 HD
ENDBRANCH  13  14
ENDBRANCH  11  13
BRANCH  10  16
ATOM     16  C   UNL     1      34.824 -15.538 -22.542  0.00  0.00    +0.169 C 
BRANCH  16  17
ATOM     17  O   UNL     1      33.594 -14.987 -22.058  0.00  0.00    -0.377 OA
ATOM     18  H   UNL     1      33.781 -14.348 -21.353  0.00  0.00    +0.211 HD
ENDBRANCH  16  17
ENDBRANCH  10  16
ENDBRANCH   1   9
BRANCH   3  19
ATOM     19  C   UNL     1      34.143 -21.300 -19.735  0.00  0.00    -0.001 C 
ATOM     20  C   UNL     1      34.501 -22.106 -18.710  0.00  0.00    +0.021 C 
BRANCH  20  21
ATOM     21  C   UNL     1      33.553 -23.007 -17.987  0.00  0.00    +0.232 C 
BRANCH  21  22
ATOM     22  O   UNL     1      34.201 -23.519 -16.830  0.00  0.00    -0.470 OA
BRANCH  22  23
ATOM     23  C   UNL     1      33.415 -23.745 -15.731  0.00  0.00    +0.148 C 
ATOM     24  C   UNL     1      33.938 -24.362 -14.599  0.00  0.00    +0.143 C 
ATOM     25  C   UNL     1      33.120 -24.582 -13.491  0.00  0.00    +0.143 C 
ATOM     26  C   UNL     1      32.083 -23.346 -15.766  0.00  0.00    +0.037 C 
ATOM     27  C   UNL     1      31.784 -24.185 -13.520  0.00  0.00    +0.037 C 
ATOM     28  C   UNL     1      31.265 -23.567 -14.658  0.00  0.00    +0.006 C 
BRANCH  25  29
ATOM     29  O   UNL     1      33.607 -25.184 -12.368  0.00  0.00    -0.505 OA
ATOM     30  H   UNL     1      33.315 -26.042 -12.132  0.00  0.00    +0.292 HD
ENDBRANCH  25  29
BRANCH  24  32
ATOM     31  O   UNL     1      35.725 -25.930 -14.784  0.00  0.00    -0.245 OA
ATOM     32  C   UNL     1      35.336 -24.777 -14.568  0.00  0.00    +0.347 C 
BRANCH  32  33
ATOM     33  O   UNL     1      36.162 -23.729 -14.271  0.00  0.00    -0.441 OA
ATOM     34  C   UNL     1      37.301 -23.547 -15.119  0.00  0.00    +0.256 C 
ENDBRANCH  32  33
ENDBRANCH  24  32
ENDBRANCH  22  23
ENDBRANCH  21  22
ENDBRANCH  20  21
ENDBRANCH   3  19
TORSDOF 12
ENDMDL
MODEL 2
REMARK VINA RESULT:     -10.7      2.517      3.539
REMARK  Name = 449162
REMARK  12 active torsions:
REMARK  status: ('A' for Active; 'I' for Inactive)
REMARK    1  A    between atoms: C_1  and  C_9
REMARK    2  A    between atoms: C_3  and  C_19
REMARK    3  A    between atoms: C_10  and  C_16
REMARK    4  A    between atoms: C_11  and  C_13
REMARK    5  A    between atoms: C_13  and  O_14
REMARK    6  A    between atoms: C_16  and  O_17
REMARK    7  A    between atoms: C_20  and  C_21
REMARK    8  A    between atoms: C_21  and  O_22
REMARK    9  A    between atoms: O_22  and  C_23
REMARK   10  A    between atoms: C_24  and  C_32
REMARK   11  A    between atoms: C_25  and  O_29
REMARK   12  A    between atoms: C_32  and  O_33
REMARK                            x       y       z     vdW  Elec       q    Type
REMARK                         _______ _______ _______ _____ _____    ______ ____
ROOT
ATOM      1  C   UNL     1      34.458 -20.400 -20.671  0.00  0.00    +0.037 C 
ATOM      2  C   UNL     1      35.552 -20.818 -19.914  0.00  0.00    +0.003 C 
ATOM      3  C   UNL     1      35.368 -21.703 -18.851  0.00  0.00    -0.000 C 
ATOM      4  C   UNL     1      33.179 -20.868 -20.366  0.00  0.00    +0.003 C 
ATOM      5  C   UNL     1      34.090 -22.171 -18.546  0.00  0.00    -0.000 C 
ATOM      6  C   UNL     1      32.996 -21.753 -19.303  0.00  0.00    +0.000 C 
ENDROOT
BRANCH   1   9
ATOM      7  O   UNL     1      34.609 -20.050 -23.002  0.00  0.00    -0.353 OA
ATOM      8  N   UNL     1      34.804 -19.061 -23.958  0.00  0.00    -0.071 NA
ATOM      9  C   UNL     1      34.646 -19.485 -21.770  0.00  0.00    +0.175 A 
ATOM     10  C   UNL     1      34.860 -18.142 -21.874  0.00  0.00    +0.071 A 
ATOM     11  C   UNL     1      34.951 -17.930 -23.261  0.00  0.00    +0.196 A 
BRANCH  11  13
ATOM     12  O   UNL     1      35.510 -15.626 -23.418  0.00  0.00    -0.243 OA
ATOM     13  C   UNL     1      35.172 -16.693 -23.953  0.00  0.00    +0.359 C 
BRANCH  13  14
ATOM     14  O   UNL     1      34.983 -16.747 -25.312  0.00  0.00    -0.476 OA
ATOM     15  H   UNL     1      35.605 -17.191 -25.854  0.00  0.00    +0.295 HD
ENDBRANCH  13  14
ENDBRANCH  11  13
BRANCH  10  16
ATOM     16  C   UNL     1      34.971 -17.151 -20.791  0.00  0.00    +0.169 C 
BRANCH  16  17
ATOM     17  O   UNL     1      34.001 -16.103 -20.902  0.00  0.00    -0.377 OA
ATOM     18  H   UNL     1      33.670 -15.874 -20.020  0.00  0.00    +0.211 HD
ENDBRANCH  16  17
ENDBRANCH  10  16
ENDBRANCH   1   9
BRANCH   3  19
ATOM     19  C   UNL     1      36.510 -22.138 -18.062  0.00  0.00    -0.001 C 
ATOM     20  C   UNL     1      36.502 -22.404 -16.736  0.00  0.00    +0.021 C 
BRANCH  20  21
ATOM     21  C   UNL     1      37.700 -22.864 -15.970  0.00  0.00    +0.232 C 
BRANCH  21  22
ATOM     22  O   UNL     1      37.471 -24.192 -15.517  0.00  0.00    -0.470 OA
BRANCH  22  23
ATOM     23  C   UNL     1      37.236 -24.355 -14.177  0.00  0.00    +0.148 C 
ATOM     24  C   UNL     1      37.223 -25.624 -13.609  0.00  0.00    +0.143 C 
ATOM     25  C   UNL     1      36.981 -25.768 -12.241  0.00  0.00    +0.143 C 
ATOM     26  C   UNL     1      37.011 -23.228 -13.394  0.00  0.00    +0.037 C 
ATOM     27  C   UNL     1      36.754 -24.641 -11.452  0.00  0.00    +0.037 C 
ATOM     28  C   UNL     1      36.769 -23.371 -12.028  0.00  0.00    +0.006 C 
BRANCH  25  29
ATOM     29  O   UNL     1      36.964 -27.000 -11.658  0.00  0.00    -0.505 OA
ATOM     30  H   UNL     1      37.690 -27.582 -11.770  0.00  0.00    +0.292 HD
ENDBRANCH  25  29
BRANCH  24  32
ATOM     31  O   UNL     1      36.646 -27.265 -15.240  0.00  0.00    -0.245 OA
ATOM     32  C   UNL     1      37.461 -26.803 -14.435  0.00  0.00    +0.347 C 
BRANCH  32  33
ATOM     33  O   UNL     1      38.701 -27.331 -14.205  0.00  0.00    -0.441 OA
ATOM     34  C   UNL     1      39.819 -26.466 -14.427  0.00  0.00    +0.256 C 
ENDBRANCH  32  33
ENDBRANCH  24  32
ENDBRANCH  22  23
ENDBRANCH  21  22
ENDBRANCH  20  21
ENDBRANCH   3  19
TORSDOF 12
ENDMDL
MODEL 3
REMARK VINA RESULT:     -10.4      1.882      3.859
REMARK  Name = 449162
REMARK  12 active torsions:
REMARK  status: ('A' for Active; 'I' for Inactive)
REMARK    1  A    between atoms: C_1  and  C_9
REMARK    2  A    between atoms: C_3  and  C_19
REMARK    3  A    between atoms: C_10  and  C_16
REMARK    4  A    between atoms: C_11  and  C_13
REMARK    5  A    between atoms: C_13  and  O_14
REMARK    6  A    between atoms: C_16  and  O_17
REMARK    7  A    between atoms: C_20  and  C_21
REMARK    8  A    between atoms: C_21  and  O_22
REMARK    9  A    between atoms: O_22  and  C_23
REMARK   10  A    between atoms: C_24  and  C_32
REMARK   11  A    between atoms: C_25  and  O_29
REMARK   12  A    between atoms: C_32  and  O_33
REMARK                            x       y       z     vdW  Elec       q    Type
REMARK                         _______ _______ _______ _____ _____    ______ ____
ROOT
ATOM      1  C   UNL     1      34.473 -20.301 -20.788  0.00  0.00    +0.037 C 
ATOM      2  C   UNL     1      35.598 -20.754 -20.100  0.00  0.00    +0.003 C 
ATOM      3  C   UNL     1      35.455 -21.645 -19.037  0.00  0.00    -0.000 C 
ATOM      4  C   UNL     1      33.203 -20.740 -20.412  0.00  0.00    +0.003 C 
ATOM      5  C   UNL     1      34.186 -22.084 -18.661  0.00  0.00    -0.000 C 
ATOM      6  C   UNL     1      33.060 -21.631 -19.349  0.00  0.00    +0.000 C 
ENDROOT
BRANCH   1   9
ATOM      7  O   UNL     1      34.514 -19.932 -23.120  0.00  0.00    -0.353 OA
ATOM      8  N   UNL     1      34.675 -18.938 -24.076  0.00  0.00    -0.071 NA
ATOM      9  C   UNL     1      34.619 -19.379 -21.888  0.00  0.00    +0.175 A 
ATOM     10  C   UNL     1      34.847 -18.038 -21.991  0.00  0.00    +0.071 A 
ATOM     11  C   UNL     1      34.873 -17.815 -23.379  0.00  0.00    +0.196 A 
BRANCH  11  13
ATOM     12  O   UNL     1      35.383 -15.500 -23.535  0.00  0.00    -0.243 OA
ATOM     13  C   UNL     1      35.077 -16.575 -24.071  0.00  0.00    +0.359 C 
BRANCH  13  14
ATOM     14  O   UNL     1      34.908 -16.637 -25.433  0.00  0.00    -0.476 OA
ATOM     15  H   UNL     1      34.448 -17.357 -25.815  0.00  0.00    +0.295 HD
ENDBRANCH  13  14
ENDBRANCH  11  13
BRANCH  10  16
ATOM     16  C   UNL     1      35.026 -17.058 -20.907  0.00  0.00    +0.169 C 
BRANCH  16  17
ATOM     17  O   UNL     1      34.042 -16.018 -20.938  0.00  0.00    -0.377 OA
ATOM     18  H   UNL     1      34.179 -15.420 -20.186  0.00  0.00    +0.211 HD
ENDBRANCH  16  17
ENDBRANCH  10  16
ENDBRANCH   1   9
BRANCH   3  19
ATOM     19  C   UNL     1      36.630 -22.117 -18.321  0.00  0.00    -0.001 C 
ATOM     20  C   UNL     1      36.766 -22.181 -16.977  0.00  0.00    +0.021 C 
BRANCH  20  21
ATOM     21  C   UNL     1      37.990 -22.690 -16.286  0.00  0.00    +0.232 C 
BRANCH  21  22
ATOM     22  O   UNL     1      37.646 -23.055 -14.956  0.00  0.00    -0.470 OA
BRANCH  22  23
ATOM     23  C   UNL     1      38.044 -24.296 -14.533  0.00  0.00    +0.148 C 
ATOM     24  C   UNL     1      37.197 -25.091 -13.769  0.00  0.00    +0.143 C 
ATOM     25  C   UNL     1      37.623 -26.352 -13.349  0.00  0.00    +0.143 C 
ATOM     26  C   UNL     1      39.313 -24.747 -14.882  0.00  0.00    +0.037 C 
ATOM     27  C   UNL     1      38.894 -26.809 -13.695  0.00  0.00    +0.037 C 
ATOM     28  C   UNL     1      39.739 -26.007 -14.461  0.00  0.00    +0.006 C 
BRANCH  25  29
ATOM     29  O   UNL     1      36.812 -27.152 -12.600  0.00  0.00    -0.505 OA
ATOM     30  H   UNL     1      36.215 -27.739 -13.021  0.00  0.00    +0.292 HD
ENDBRANCH  25  29
BRANCH  24  32
ATOM     31  O   UNL     1      35.626 -23.905 -12.424  0.00  0.00    -0.245 OA
ATOM     32  C   UNL     1      35.867 -24.612 -13.407  0.00  0.00    +0.347 C 
BRANCH  32  33
ATOM     33  O   UNL     1      34.923 -25.046 -14.295  0.00  0.00    -0.441 OA
ATOM     34  C   UNL     1      34.107 -24.042 -14.907  0.00  0.00    +0.256 C 
ENDBRANCH  32  33
ENDBRANCH  24  32
ENDBRANCH  22  23
ENDBRANCH  21  22
ENDBRANCH  20  21
ENDBRANCH   3  19
TORSDOF 12
ENDMDL
MODEL 4
REMARK VINA RESULT:     -10.2      4.225     11.283
REMARK  Name = 449162
REMARK  12 active torsions:
REMARK  status: ('A' for Active; 'I' for Inactive)
REMARK    1  A    between atoms: C_1  and  C_9
REMARK    2  A    between atoms: C_3  and  C_19
REMARK    3  A    between atoms: C_10  and  C_16
REMARK    4  A    between atoms: C_11  and  C_13
REMARK    5  A    between atoms: C_13  and  O_14
REMARK    6  A    between atoms: C_16  and  O_17
REMARK    7  A    between atoms: C_20  and  C_21
REMARK    8  A    between atoms: C_21  and  O_22
REMARK    9  A    between atoms: O_22  and  C_23
REMARK   10  A    between atoms: C_24  and  C_32
REMARK   11  A    between atoms: C_25  and  O_29
REMARK   12  A    between atoms: C_32  and  O_33
REMARK                            x       y       z     vdW  Elec       q    Type
REMARK                         _______ _______ _______ _____ _____    ______ ____
ROOT
ATOM      1  C   UNL     1      35.083 -18.934 -22.022  0.00  0.00    +0.037 C 
ATOM      2  C   UNL     1      35.027 -17.569 -21.743  0.00  0.00    +0.003 C 
ATOM      3  C   UNL     1      34.771 -16.657 -22.767  0.00  0.00    -0.000 C 
ATOM      4  C   UNL     1      34.882 -19.388 -23.326  0.00  0.00    +0.003 C 
ATOM      5  C   UNL     1      34.571 -17.110 -24.071  0.00  0.00    -0.000 C 
ATOM      6  C   UNL     1      34.627 -18.475 -24.350  0.00  0.00    +0.000 C 
ENDROOT
BRANCH   1   9
ATOM      7  O   UNL     1      36.640 -19.948 -20.565  0.00  0.00    -0.353 OA
ATOM      8  N   UNL     1      36.748 -20.890 -19.550  0.00  0.00    -0.071 NA
ATOM      9  C   UNL     1      35.347 -19.879 -20.965  0.00  0.00    +0.175 A 
ATOM     10  C   UNL     1      34.584 -20.750 -20.244  0.00  0.00    +0.071 A 
ATOM     11  C   UNL     1      35.508 -21.356 -19.375  0.00  0.00    +0.196 A 
BRANCH  11  13
ATOM     12  O   UNL     1      35.684 -22.335 -17.218  0.00  0.00    -0.243 OA
ATOM     13  C   UNL     1      35.260 -22.362 -18.383  0.00  0.00    +0.359 C 
BRANCH  13  14
ATOM     14  O   UNL     1      34.489 -23.416 -18.805  0.00  0.00    -0.476 OA
ATOM     15  H   UNL     1      33.708 -23.641 -18.340  0.00  0.00    +0.295 HD
ENDBRANCH  13  14
ENDBRANCH  11  13
BRANCH  10  16
ATOM     16  C   UNL     1      33.136 -20.999 -20.353  0.00  0.00    +0.169 C 
BRANCH  16  17
ATOM     17  O   UNL     1      32.515 -21.194 -19.078  0.00  0.00    -0.377 OA
ATOM     18  H   UNL     1      33.198 -21.322 -18.401  0.00  0.00    +0.211 HD
ENDBRANCH  16  17
ENDBRANCH  10  16
ENDBRANCH   1   9
BRANCH   3  19
ATOM     19  C   UNL     1      34.714 -15.233 -22.474  0.00  0.00    -0.001 C 
ATOM     20  C   UNL     1      34.009 -14.310 -23.167  0.00  0.00    +0.021 C 
BRANCH  20  21
ATOM     21  C   UNL     1      33.969 -12.857 -22.817  0.00  0.00    +0.232 C 
BRANCH  21  22
ATOM     22  O   UNL     1      32.611 -12.449 -22.714  0.00  0.00    -0.470 OA
BRANCH  22  23
ATOM     23  C   UNL     1      32.231 -11.858 -21.538  0.00  0.00    +0.148 C 
ATOM     24  C   UNL     1      32.141 -10.474 -21.436  0.00  0.00    +0.143 C 
ATOM     25  C   UNL     1      31.752  -9.892 -20.229  0.00  0.00    +0.143 C 
ATOM     26  C   UNL     1      31.937 -12.667 -20.445  0.00  0.00    +0.037 C 
ATOM     27  C   UNL     1      31.456 -10.699 -19.130  0.00  0.00    +0.037 C 
ATOM     28  C   UNL     1      31.549 -12.086 -19.238  0.00  0.00    +0.006 C 
BRANCH  25  29
ATOM     29  O   UNL     1      31.654  -8.539 -20.102  0.00  0.00    -0.505 OA
ATOM     30  H   UNL     1      30.817  -8.122 -20.161  0.00  0.00    +0.292 HD
ENDBRANCH  25  29
BRANCH  24  32
ATOM     31  O   UNL     1      33.586  -9.461 -23.040  0.00  0.00    -0.245 OA
ATOM     32  C   UNL     1      32.450  -9.630 -22.586  0.00  0.00    +0.347 C 
BRANCH  32  33
ATOM     33  O   UNL     1      31.322  -9.051 -23.097  0.00  0.00    -0.441 OA
ATOM     34  C   UNL     1      31.421  -7.675 -23.478  0.00  0.00    +0.256 C 
ENDBRANCH  32  33
ENDBRANCH  24  32
ENDBRANCH  22  23
ENDBRANCH  21  22
ENDBRANCH  20  21
ENDBRANCH   3  19
TORSDOF 12
ENDMDL
MODEL 5
REMARK VINA RESULT:     -10.2      2.557     10.606
REMARK  Name = 449162
REMARK  12 active torsions:
REMARK  status: ('A' for Active; 'I' for Inactive)
REMARK    1  A    between atoms: C_1  and  C_9
REMARK    2  A    between atoms: C_3  and  C_19
REMARK    3  A    between atoms: C_10  and  C_16
REMARK    4  A    between atoms: C_11  and  C_13
REMARK    5  A    between atoms: C_13  and  O_14
REMARK    6  A    between atoms: C_16  and  O_17
REMARK    7  A    between atoms: C_20  and  C_21
REMARK    8  A    between atoms: C_21  and  O_22
REMARK    9  A    between atoms: O_22  and  C_23
REMARK   10  A    between atoms: C_24  and  C_32
REMARK   11  A    between atoms: C_25  and  O_29
REMARK   12  A    between atoms: C_32  and  O_33
REMARK                            x       y       z     vdW  Elec       q    Type
REMARK                         _______ _______ _______ _____ _____    ______ ____
ROOT
ATOM      1  C   UNL     1      34.255 -22.376 -17.969  0.00  0.00    +0.037 C 
ATOM      2  C   UNL     1      33.987 -21.661 -19.136  0.00  0.00    +0.003 C 
ATOM      3  C   UNL     1      35.037 -21.153 -19.901  0.00  0.00    -0.000 C 
ATOM      4  C   UNL     1      35.575 -22.585 -17.567  0.00  0.00    +0.003 C 
ATOM      5  C   UNL     1      36.357 -21.361 -19.499  0.00  0.00    -0.000 C 
ATOM      6  C   UNL     1      36.625 -22.076 -18.332  0.00  0.00    +0.000 C 
ENDROOT
BRANCH   1   9
ATOM      7  O   UNL     1      31.929 -22.611 -17.636  0.00  0.00    -0.353 OA
ATOM      8  N   UNL     1      30.989 -23.175 -16.783  0.00  0.00    -0.071 NA
ATOM      9  C   UNL     1      33.171 -22.902 -17.177  0.00  0.00    +0.175 A 
ATOM     10  C   UNL     1      33.088 -23.646 -16.037  0.00  0.00    +0.071 A 
ATOM     11  C   UNL     1      31.704 -23.788 -15.836  0.00  0.00    +0.196 A 
BRANCH  11  13
ATOM     12  O   UNL     1      30.316 -25.486 -14.924  0.00  0.00    -0.243 OA
ATOM     13  C   UNL     1      31.032 -24.485 -14.777  0.00  0.00    +0.359 C 
BRANCH  13  14
ATOM     14  O   UNL     1      31.228 -23.962 -13.523  0.00  0.00    -0.476 OA
ATOM     15  H   UNL     1      31.933 -24.274 -12.991  0.00  0.00    +0.295 HD
ENDBRANCH  13  14
ENDBRANCH  11  13
BRANCH  10  16
ATOM     16  C   UNL     1      34.188 -24.175 -15.213  0.00  0.00    +0.169 C 
BRANCH  16  17
ATOM     17  O   UNL     1      34.310 -23.496 -13.958  0.00  0.00    -0.377 OA
ATOM     18  H   UNL     1      33.432 -23.401 -13.555  0.00  0.00    +0.211 HD
ENDBRANCH  16  17
ENDBRANCH  10  16
ENDBRANCH   1   9
BRANCH   3  19
ATOM     19  C   UNL     1      34.755 -20.407 -21.117  0.00  0.00    -0.001 C 
ATOM     20  C   UNL     1      35.471 -19.362 -21.590  0.00  0.00    +0.021 C 
BRANCH  20  21
ATOM     21  C   UNL     1      35.151 -18.635 -22.856  0.00  0.00    +0.232 C 
BRANCH  21  22
ATOM     22  O   UNL     1      35.426 -17.253 -22.673  0.00  0.00    -0.470 OA
BRANCH  22  23
ATOM     23  C   UNL     1      34.682 -16.371 -23.412  0.00  0.00    +0.148 C 
ATOM     24  C   UNL     1      34.088 -15.267 -22.812  0.00  0.00    +0.143 C 
ATOM     25  C   UNL     1      33.334 -14.382 -23.584  0.00  0.00    +0.143 C 
ATOM     26  C   UNL     1      34.531 -16.601 -24.776  0.00  0.00    +0.037 C 
ATOM     27  C   UNL     1      33.179 -14.607 -24.952  0.00  0.00    +0.037 C 
ATOM     28  C   UNL     1      33.778 -15.717 -25.547  0.00  0.00    +0.006 C 
BRANCH  25  29
ATOM     29  O   UNL     1      32.742 -13.290 -23.022  0.00  0.00    -0.505 OA
ATOM     30  H   UNL     1      32.595 -12.520 -23.535  0.00  0.00    +0.292 HD
ENDBRANCH  25  29
BRANCH  24  32
ATOM     31  O   UNL     1      34.999 -14.175 -20.897  0.00  0.00    -0.245 OA
ATOM     32  C   UNL     1      34.250 -15.031 -21.381  0.00  0.00    +0.347 C 
BRANCH  32  33
ATOM     33  O   UNL     1      33.468 -15.876 -20.645  0.00  0.00    -0.441 OA
ATOM     34  C   UNL     1      32.396 -15.280 -19.907  0.00  0.00    +0.256 C 
ENDBRANCH  32  33
ENDBRANCH  24  32
ENDBRANCH  22  23
ENDBRANCH  21  22
ENDBRANCH  20  21
ENDBRANCH   3  19
TORSDOF 12
ENDMDL
MODEL 6
REMARK VINA RESULT:     -10.1      3.108     11.255
REMARK  Name = 449162
REMARK  12 active torsions:
REMARK  status: ('A' for Active; 'I' for Inactive)
REMARK    1  A    between atoms: C_1  and  C_9
REMARK    2  A    between atoms: C_3  and  C_19
REMARK    3  A    between atoms: C_10  and  C_16
REMARK    4  A    between atoms: C_11  and  C_13
REMARK    5  A    between atoms: C_13  and  O_14
REMARK    6  A    between atoms: C_16  and  O_17
REMARK    7  A    between atoms: C_20  and  C_21
REMARK    8  A    between atoms: C_21  and  O_22
REMARK    9  A    between atoms: O_22  and  C_23
REMARK   10  A    between atoms: C_24  and  C_32
REMARK   11  A    between atoms: C_25  and  O_29
REMARK   12  A    between atoms: C_32  and  O_33
REMARK                            x       y       z     vdW  Elec       q    Type
REMARK                         _______ _______ _______ _____ _____    ______ ____
ROOT
ATOM      1  C   UNL     1      35.306 -23.148 -16.669  0.00  0.00    +0.037 C 
ATOM      2  C   UNL     1      35.784 -22.375 -17.727  0.00  0.00    +0.003 C 
ATOM      3  C   UNL     1      34.917 -21.965 -18.739  0.00  0.00    -0.000 C 
ATOM      4  C   UNL     1      33.960 -23.511 -16.624  0.00  0.00    +0.003 C 
ATOM      5  C   UNL     1      33.571 -22.328 -18.695  0.00  0.00    -0.000 C 
ATOM      6  C   UNL     1      33.093 -23.101 -17.637  0.00  0.00    +0.000 C 
ENDROOT
BRANCH   1   9
ATOM      7  O   UNL     1      37.086 -22.635 -15.205  0.00  0.00    -0.353 OA
ATOM      8  N   UNL     1      37.880 -23.177 -14.202  0.00  0.00    -0.071 NA
ATOM      9  C   UNL     1      36.202 -23.573 -15.621  0.00  0.00    +0.175 A 
ATOM     10  C   UNL     1      36.381 -24.731 -14.924  0.00  0.00    +0.071 A 
ATOM     11  C   UNL     1      37.440 -24.429 -14.051  0.00  0.00    +0.196 A 
BRANCH  11  13
ATOM     12  O   UNL     1      38.112 -25.053 -11.859  0.00  0.00    -0.243 OA
ATOM     13  C   UNL     1      38.054 -25.285 -13.076  0.00  0.00    +0.359 C 
BRANCH  13  14
ATOM     14  O   UNL     1      38.605 -26.437 -13.580  0.00  0.00    -0.476 OA
ATOM     15  H   UNL     1      38.081 -27.021 -14.092  0.00  0.00    +0.295 HD
ENDBRANCH  13  14
ENDBRANCH  11  13
BRANCH  10  16
ATOM     16  C   UNL     1      35.640 -25.998 -15.055  0.00  0.00    +0.169 C 
BRANCH  16  17
ATOM     17  O   UNL     1      36.427 -27.035 -15.652  0.00  0.00    -0.377 OA
ATOM     18  H   UNL     1      35.980 -27.888 -15.534  0.00  0.00    +0.211 HD
ENDBRANCH  16  17
ENDBRANCH  10  16
ENDBRANCH   1   9
BRANCH   3  19
ATOM     19  C   UNL     1      35.417 -21.159 -19.842  0.00  0.00    -0.001 C 
ATOM     20  C   UNL     1      34.748 -20.160 -20.461  0.00  0.00    +0.021 C 
BRANCH  20  21
ATOM     21  C   UNL     1      35.311 -19.347 -21.582  0.00  0.00    +0.232 C 
BRANCH  21  22
ATOM     22  O   UNL     1      34.975 -17.982 -21.371  0.00  0.00    -0.470 OA
BRANCH  22  23
ATOM     23  C   UNL     1      34.727 -17.227 -22.488  0.00  0.00    +0.148 C 
ATOM     24  C   UNL     1      34.193 -15.948 -22.375  0.00  0.00    +0.143 C 
ATOM     25  C   UNL     1      33.949 -15.197 -23.525  0.00  0.00    +0.143 C 
ATOM     26  C   UNL     1      35.019 -17.764 -23.738  0.00  0.00    +0.037 C 
ATOM     27  C   UNL     1      34.239 -15.730 -24.781  0.00  0.00    +0.037 C 
ATOM     28  C   UNL     1      34.774 -17.013 -24.887  0.00  0.00    +0.006 C 
BRANCH  25  29
ATOM     29  O   UNL     1      33.428 -13.940 -23.444  0.00  0.00    -0.505 OA
ATOM     30  H   UNL     1      33.983 -13.193 -23.558  0.00  0.00    +0.292 HD
ENDBRANCH  25  29
BRANCH  24  32
ATOM     31  O   UNL     1      34.735 -15.161 -20.190  0.00  0.00    -0.245 OA
ATOM     32  C   UNL     1      33.890 -15.391 -21.062  0.00  0.00    +0.347 C 
BRANCH  32  33
ATOM     33  O   UNL     1      32.551 -15.154 -20.918  0.00  0.00    -0.441 OA
ATOM     34  C   UNL     1      32.180 -13.940 -20.257  0.00  0.00    +0.256 C 
ENDBRANCH  32  33
ENDBRANCH  24  32
ENDBRANCH  22  23
ENDBRANCH  21  22
ENDBRANCH  20  21
ENDBRANCH   3  19
TORSDOF 12
ENDMDL
MODEL 7
REMARK VINA RESULT:     -10.0      1.235      2.512
REMARK  Name = 449162
REMARK  12 active torsions:
REMARK  status: ('A' for Active; 'I' for Inactive)
REMARK    1  A    between atoms: C_1  and  C_9
REMARK    2  A    between atoms: C_3  and  C_19
REMARK    3  A    between atoms: C_10  and  C_16
REMARK    4  A    between atoms: C_11  and  C_13
REMARK    5  A    between atoms: C_13  and  O_14
REMARK    6  A    between atoms: C_16  and  O_17
REMARK    7  A    between atoms: C_20  and  C_21
REMARK    8  A    between atoms: C_21  and  O_22
REMARK    9  A    between atoms: O_22  and  C_23
REMARK   10  A    between atoms: C_24  and  C_32
REMARK   11  A    between atoms: C_25  and  O_29
REMARK   12  A    between atoms: C_32  and  O_33
REMARK                            x       y       z     vdW  Elec       q    Type
REMARK                         _______ _______ _______ _____ _____    ______ ____
ROOT
ATOM      1  C   UNL     1      35.467 -18.896 -22.045  0.00  0.00    +0.037 C 
ATOM      2  C   UNL     1      34.622 -19.753 -21.340  0.00  0.00    +0.003 C 
ATOM      3  C   UNL     1      35.134 -20.556 -20.322  0.00  0.00    -0.000 C 
ATOM      4  C   UNL     1      36.825 -18.841 -21.730  0.00  0.00    +0.003 C 
ATOM      5  C   UNL     1      36.492 -20.502 -20.006  0.00  0.00    -0.000 C 
ATOM      6  C   UNL     1      37.337 -19.645 -20.711  0.00  0.00    +0.000 C 
ENDROOT
BRANCH   1   9
ATOM      7  O   UNL     1      34.629 -18.717 -24.245  0.00  0.00    -0.353 OA
ATOM      8  N   UNL     1      34.136 -17.801 -25.166  0.00  0.00    -0.071 NA
ATOM      9  C   UNL     1      34.939 -18.065 -23.099  0.00  0.00    +0.175 A 
ATOM     10  C   UNL     1      34.666 -16.734 -23.226  0.00  0.00    +0.071 A 
ATOM     11  C   UNL     1      34.168 -16.624 -24.535  0.00  0.00    +0.196 A 
BRANCH  11  13
ATOM     12  O   UNL     1      33.071 -14.522 -24.691  0.00  0.00    -0.243 OA
ATOM     13  C   UNL     1      33.717 -15.442 -25.213  0.00  0.00    +0.359 C 
BRANCH  13  14
ATOM     14  O   UNL     1      34.055 -15.372 -26.542  0.00  0.00    -0.476 OA
ATOM     15  H   UNL     1      33.621 -14.761 -27.104  0.00  0.00    +0.295 HD
ENDBRANCH  13  14
ENDBRANCH  11  13
BRANCH  10  16
ATOM     16  C   UNL     1      34.853 -15.667 -22.228  0.00  0.00    +0.169 C 
BRANCH  16  17
ATOM     17  O   UNL     1      34.288 -16.000 -20.955  0.00  0.00    -0.377 OA
ATOM     18  H   UNL     1      34.757 -15.516 -20.256  0.00  0.00    +0.211 HD
ENDBRANCH  16  17
ENDBRANCH  10  16
ENDBRANCH   1   9
BRANCH   3  19
ATOM     19  C   UNL     1      34.251 -21.450 -19.588  0.00  0.00    -0.001 C 
ATOM     20  C   UNL     1      34.610 -22.618 -19.009  0.00  0.00    +0.021 C 
BRANCH  20  21
ATOM     21  C   UNL     1      33.668 -23.497 -18.250  0.00  0.00    +0.232 C 
BRANCH  21  22
ATOM     22  O   UNL     1      33.380 -22.887 -17.000  0.00  0.00    -0.470 OA
BRANCH  22  23
ATOM     23  C   UNL     1      33.855 -23.517 -15.880  0.00  0.00    +0.148 C 
ATOM     24  C   UNL     1      32.990 -23.901 -14.861  0.00  0.00    +0.143 C 
ATOM     25  C   UNL     1      33.496 -24.541 -13.728  0.00  0.00    +0.143 C 
ATOM     26  C   UNL     1      35.220 -23.766 -15.780  0.00  0.00    +0.037 C 
ATOM     27  C   UNL     1      34.864 -24.793 -13.623  0.00  0.00    +0.037 C 
ATOM     28  C   UNL     1      35.725 -24.406 -14.648  0.00  0.00    +0.006 C 
BRANCH  25  29
ATOM     29  O   UNL     1      32.671 -24.929 -12.715  0.00  0.00    -0.505 OA
ATOM     30  H   UNL     1      32.039 -25.607 -12.858  0.00  0.00    +0.292 HD
ENDBRANCH  25  29
BRANCH  24  32
ATOM     31  O   UNL     1      30.987 -22.673 -14.453  0.00  0.00    -0.245 OA
ATOM     32  C   UNL     1      31.560 -23.637 -14.971  0.00  0.00    +0.347 C 
BRANCH  32  33
ATOM     33  O   UNL     1      30.934 -24.592 -15.722  0.00  0.00    -0.441 OA
ATOM     34  C   UNL     1      29.915 -25.358 -15.070  0.00  0.00    +0.256 C 
ENDBRANCH  32  33
ENDBRANCH  24  32
ENDBRANCH  22  23
ENDBRANCH  21  22
ENDBRANCH  20  21
ENDBRANCH   3  19
TORSDOF 12
ENDMDL
MODEL 8
REMARK VINA RESULT:      -9.9      2.552     10.779
REMARK  Name = 449162
REMARK  12 active torsions:
REMARK  status: ('A' for Active; 'I' for Inactive)
REMARK    1  A    between atoms: C_1  and  C_9
REMARK    2  A    between atoms: C_3  and  C_19
REMARK    3  A    between atoms: C_10  and  C_16
REMARK    4  A    between atoms: C_11  and  C_13
REMARK    5  A    between atoms: C_13  and  O_14
REMARK    6  A    between atoms: C_16  and  O_17
REMARK    7  A    between atoms: C_20  and  C_21
REMARK    8  A    between atoms: C_21  and  O_22
REMARK    9  A    between atoms: O_22  and  C_23
REMARK   10  A    between atoms: C_24  and  C_32
REMARK   11  A    between atoms: C_25  and  O_29
REMARK   12  A    between atoms: C_32  and  O_33
REMARK                            x       y       z     vdW  Elec       q    Type
REMARK                         _______ _______ _______ _____ _____    ______ ____
ROOT
ATOM      1  C   UNL     1      33.872 -22.479 -17.840  0.00  0.00    +0.037 C 
ATOM      2  C   UNL     1      33.506 -21.731 -18.958  0.00  0.00    +0.003 C 
ATOM      3  C   UNL     1      34.487 -21.220 -19.807  0.00  0.00    -0.000 C 
ATOM      4  C   UNL     1      35.220 -22.717 -17.570  0.00  0.00    +0.003 C 
ATOM      5  C   UNL     1      35.835 -21.457 -19.539  0.00  0.00    -0.000 C 
ATOM      6  C   UNL     1      36.201 -22.205 -18.420  0.00  0.00    +0.000 C 
ENDROOT
BRANCH   1   9
ATOM      7  O   UNL     1      31.582 -22.777 -17.349  0.00  0.00    -0.353 OA
ATOM      8  N   UNL     1      30.717 -23.337 -16.417  0.00  0.00    -0.071 NA
ATOM      9  C   UNL     1      32.859 -23.009 -16.960  0.00  0.00    +0.175 A 
ATOM     10  C   UNL     1      32.875 -23.711 -15.791  0.00  0.00    +0.071 A 
ATOM     11  C   UNL     1      31.512 -23.890 -15.496  0.00  0.00    +0.196 A 
BRANCH  11  13
ATOM     12  O   UNL     1      30.413 -25.692 -14.406  0.00  0.00    -0.243 OA
ATOM     13  C   UNL     1      30.933 -24.567 -14.371  0.00  0.00    +0.359 C 
BRANCH  13  14
ATOM     14  O   UNL     1      30.983 -23.872 -13.188  0.00  0.00    -0.476 OA
ATOM     15  H   UNL     1      30.211 -23.781 -12.666  0.00  0.00    +0.295 HD
ENDBRANCH  13  14
ENDBRANCH  11  13
BRANCH  10  16
ATOM     16  C   UNL     1      34.043 -24.171 -15.021  0.00  0.00    +0.169 C 
BRANCH  16  17
ATOM     17  O   UNL     1      34.094 -23.603 -13.708  0.00  0.00    -0.377 OA
ATOM     18  H   UNL     1      35.017 -23.430 -13.466  0.00  0.00    +0.211 HD
ENDBRANCH  16  17
ENDBRANCH  10  16
ENDBRANCH   1   9
BRANCH   3  19
ATOM     19  C   UNL     1      34.104 -20.439 -20.973  0.00  0.00    -0.001 C 
ATOM     20  C   UNL     1      34.946 -19.954 -21.914  0.00  0.00    +0.021 C 
BRANCH  20  21
ATOM     21  C   UNL     1      34.502 -19.169 -23.106  0.00  0.00    +0.232 C 
BRANCH  21  22
ATOM     22  O   UNL     1      35.320 -18.012 -23.222  0.00  0.00    -0.470 OA
BRANCH  22  23
ATOM     23  C   UNL     1      34.872 -16.873 -22.607  0.00  0.00    +0.148 C 
ATOM     24  C   UNL     1      34.368 -15.814 -23.354  0.00  0.00    +0.143 C 
ATOM     25  C   UNL     1      33.917 -14.663 -22.706  0.00  0.00    +0.143 C 
ATOM     26  C   UNL     1      34.930 -16.795 -21.219  0.00  0.00    +0.037 C 
ATOM     27  C   UNL     1      33.973 -14.579 -21.315  0.00  0.00    +0.037 C 
ATOM     28  C   UNL     1      34.480 -15.644 -20.572  0.00  0.00    +0.006 C 
BRANCH  25  29
ATOM     29  O   UNL     1      33.418 -13.611 -23.413  0.00  0.00    -0.505 OA
ATOM     30  H   UNL     1      32.977 -13.759 -24.227  0.00  0.00    +0.292 HD
ENDBRANCH  25  29
BRANCH  24  32
ATOM     31  O   UNL     1      35.230 -16.319 -25.519  0.00  0.00    -0.245 OA
ATOM     32  C   UNL     1      34.309 -15.902 -24.809  0.00  0.00    +0.347 C 
BRANCH  32  33
ATOM     33  O   UNL     1      33.105 -15.466 -25.286  0.00  0.00    -0.441 OA
ATOM     34  C   UNL     1      33.140 -14.613 -26.435  0.00  0.00    +0.256 C 
ENDBRANCH  32  33
ENDBRANCH  24  32
ENDBRANCH  22  23
ENDBRANCH  21  22
ENDBRANCH  20  21
ENDBRANCH   3  19
TORSDOF 12
ENDMDL
MODEL 9
REMARK VINA RESULT:      -9.7      3.766     10.998
REMARK  Name = 449162
REMARK  12 active torsions:
REMARK  status: ('A' for Active; 'I' for Inactive)
REMARK    1  A    between atoms: C_1  and  C_9
REMARK    2  A    between atoms: C_3  and  C_19
REMARK    3  A    between atoms: C_10  and  C_16
REMARK    4  A    between atoms: C_11  and  C_13
REMARK    5  A    between atoms: C_13  and  O_14
REMARK    6  A    between atoms: C_16  and  O_17
REMARK    7  A    between atoms: C_20  and  C_21
REMARK    8  A    between atoms: C_21  and  O_22
REMARK    9  A    between atoms: O_22  and  C_23
REMARK   10  A    between atoms: C_24  and  C_32
REMARK   11  A    between atoms: C_25  and  O_29
REMARK   12  A    between atoms: C_32  and  O_33
REMARK                            x       y       z     vdW  Elec       q    Type
REMARK                         _______ _______ _______ _____ _____    ______ ____
ROOT
ATOM      1  C   UNL     1      34.707 -19.732 -21.206  0.00  0.00    +0.037 C 
ATOM      2  C   UNL     1      34.382 -18.391 -20.999  0.00  0.00    +0.003 C 
ATOM      3  C   UNL     1      34.757 -17.429 -21.936  0.00  0.00    -0.000 C 
ATOM      4  C   UNL     1      35.408 -20.110 -22.351  0.00  0.00    +0.003 C 
ATOM      5  C   UNL     1      35.457 -17.807 -23.081  0.00  0.00    -0.000 C 
ATOM      6  C   UNL     1      35.783 -19.147 -23.288  0.00  0.00    +0.000 C 
ENDROOT
BRANCH   1   9
ATOM      7  O   UNL     1      32.985 -20.920 -20.111  0.00  0.00    -0.353 OA
ATOM      8  N   UNL     1      32.758 -21.898 -19.152  0.00  0.00    -0.071 NA
ATOM      9  C   UNL     1      34.320 -20.728 -20.237  0.00  0.00    +0.175 A 
ATOM     10  C   UNL     1      34.996 -21.552 -19.386  0.00  0.00    +0.071 A 
ATOM     11  C   UNL     1      33.974 -22.261 -18.733  0.00  0.00    +0.196 A 
BRANCH  11  13
ATOM     12  O   UNL     1      34.637 -23.111 -16.616  0.00  0.00    -0.243 OA
ATOM     13  C   UNL     1      34.105 -23.273 -17.724  0.00  0.00    +0.359 C 
BRANCH  13  14
ATOM     14  O   UNL     1      33.585 -24.499 -18.061  0.00  0.00    -0.476 OA
ATOM     15  H   UNL     1      33.448 -24.717 -18.961  0.00  0.00    +0.295 HD
ENDBRANCH  13  14
ENDBRANCH  11  13
BRANCH  10  16
ATOM     16  C   UNL     1      36.452 -21.670 -19.197  0.00  0.00    +0.169 C 
BRANCH  16  17
ATOM     17  O   UNL     1      36.872 -21.255 -17.893  0.00  0.00    -0.377 OA
ATOM     18  H   UNL     1      36.251 -21.595 -17.229  0.00  0.00    +0.211 HD
ENDBRANCH  16  17
ENDBRANCH  10  16
ENDBRANCH   1   9
BRANCH   3  19
ATOM     19  C   UNL     1      34.416 -16.032 -21.718  0.00  0.00    -0.001 C 
ATOM     20  C   UNL     1      33.764 -15.532 -20.645  0.00  0.00    +0.021 C 
BRANCH  20  21
ATOM     21  C   UNL     1      33.450 -14.083 -20.458  0.00  0.00    +0.232 C 
BRANCH  21  22
ATOM     22  O   UNL     1      32.494 -13.692 -21.434  0.00  0.00    -0.470 OA
BRANCH  22  23
ATOM     23  C   UNL     1      32.724 -12.510 -22.087  0.00  0.00    +0.148 C 
ATOM     24  C   UNL     1      32.103 -11.337 -21.670  0.00  0.00    +0.143 C 
ATOM     25  C   UNL     1      32.351 -10.144 -22.350  0.00  0.00    +0.143 C 
ATOM     26  C   UNL     1      33.590 -12.503 -23.176  0.00  0.00    +0.037 C 
ATOM     27  C   UNL     1      33.218 -10.131 -23.442  0.00  0.00    +0.037 C 
ATOM     28  C   UNL     1      33.837 -11.310 -23.855  0.00  0.00    +0.006 C 
BRANCH  25  29
ATOM     29  O   UNL     1      31.758  -8.980 -21.961  0.00  0.00    -0.505 OA
ATOM     30  H   UNL     1      30.927  -8.999 -21.528  0.00  0.00    +0.292 HD
ENDBRANCH  25  29
BRANCH  24  32
ATOM     31  O   UNL     1      30.019 -11.723 -20.577  0.00  0.00    -0.245 OA
ATOM     32  C   UNL     1      31.196 -11.351 -20.527  0.00  0.00    +0.347 C 
BRANCH  32  33
ATOM     33  O   UNL     1      31.815 -10.901 -19.395  0.00  0.00    -0.441 OA
ATOM     34  C   UNL     1      31.180 -11.208 -18.149  0.00  0.00    +0.256 C 
ENDBRANCH  32  33
ENDBRANCH  24  32
ENDBRANCH  22  23
ENDBRANCH  21  22
ENDBRANCH  20  21
ENDBRANCH   3  19
TORSDOF 12
ENDMDL
