MODEL 1
REMARK VINA RESULT:     -11.3      0.000      0.000
REMARK  Name = 24779724
REMARK  3 active torsions:
REMARK  status: ('A' for Active; 'I' for Inactive)
REMARK    1  A    between atoms: C_5  and  C_12
REMARK    2  A    between atoms: C_7  and  S_16
REMARK    3  A    between atoms: S_16  and  C_19
REMARK                            x       y       z     vdW  Elec       q    Type
REMARK                         _______ _______ _______ _____ _____    ______ ____
ROOT
ATOM      1  N   UNL     1      34.703 -21.643 -18.951  0.00  0.00    -0.186 N 
ATOM      2  N   UNL     1      35.715 -22.003 -18.123  0.00  0.00    -0.162 NA
ATOM      3  N   UNL     1      32.711 -21.455 -19.856  0.00  0.00    -0.126 NA
ATOM      4  N   UNL     1      33.601 -20.706 -20.597  0.00  0.00    -0.120 NA
ATOM      5  C   UNL     1      35.345 -22.786 -17.149  0.00  0.00    +0.104 C 
ATOM      6  C   UNL     1      33.382 -22.014 -18.870  0.00  0.00    +0.187 A 
ATOM      7  C   UNL     1      34.787 -20.830 -20.044  0.00  0.00    +0.217 A 
ATOM      8  C   UNL     1      33.945 -23.285 -16.948  0.00  0.00    +0.024 C 
ATOM      9  C   UNL     1      33.014 -22.875 -17.818  0.00  0.00    +0.042 C 
ENDROOT
BRANCH   5  12
ATOM     10  N   UNL     1      37.357 -24.281 -14.522  0.00  0.00    -0.208 N 
ATOM     11  N   UNL     1      38.324 -23.496 -15.027  0.00  0.00    -0.176 NA
ATOM     12  C   UNL     1      36.362 -23.247 -16.169  0.00  0.00    +0.056 C 
ATOM     13  C   UNL     1      36.162 -24.168 -15.171  0.00  0.00    +0.087 C 
ATOM     14  C   UNL     1      37.711 -22.867 -16.033  0.00  0.00    +0.121 C 
ATOM     15  C   UNL     1      37.642 -25.135 -13.394  0.00  0.00    +0.140 C 
ENDBRANCH   5  12
BRANCH   7  16
ATOM     16  S   UNL     1      36.307 -20.072 -20.596  0.00  0.00    -0.051 S 
BRANCH  16  19
ATOM     17  N   UNL     1      34.238 -15.549 -23.860  0.00  0.00    -0.248 NA
ATOM     18  C   UNL     1      34.818 -16.450 -21.701  0.00  0.00    -0.003 C 
ATOM     19  C   UNL     1      35.687 -18.711 -21.564  0.00  0.00    +0.011 C 
ATOM     20  C   UNL     1      34.704 -16.560 -23.103  0.00  0.00    +0.060 C 
ATOM     21  C   UNL     1      35.308 -17.525 -20.942  0.00  0.00    +0.060 C 
ATOM     22  C   UNL     1      35.577 -18.827 -22.944  0.00  0.00    -0.017 C 
ATOM     23  C   UNL     1      35.090 -17.758 -23.699  0.00  0.00    +0.072 C 
ATOM     24  C   UNL     1      34.430 -15.244 -21.102  0.00  0.00    -0.001 C 
ATOM     25  C   UNL     1      33.949 -14.200 -21.879  0.00  0.00    +0.020 C 
ATOM     26  C   UNL     1      33.874 -14.403 -23.242  0.00  0.00    +0.098 C 
ENDBRANCH  16  19
ENDBRANCH   7  16
TORSDOF 3
ENDMDL
MODEL 2
REMARK VINA RESULT:     -11.2      0.860      1.590
REMARK  Name = 24779724
REMARK  3 active torsions:
REMARK  status: ('A' for Active; 'I' for Inactive)
REMARK    1  A    between atoms: C_5  and  C_12
REMARK    2  A    between atoms: C_7  and  S_16
REMARK    3  A    between atoms: S_16  and  C_19
REMARK                            x       y       z     vdW  Elec       q    Type
REMARK                         _______ _______ _______ _____ _____    ______ ____
ROOT
ATOM      1  N   UNL     1      34.686 -21.356 -19.261  0.00  0.00    -0.186 N 
ATOM      2  N   UNL     1      35.742 -21.682 -18.475  0.00  0.00    -0.162 NA
ATOM      3  N   UNL     1      32.655 -21.242 -20.091  0.00  0.00    -0.126 NA
ATOM      4  N   UNL     1      33.485 -20.446 -20.854  0.00  0.00    -0.120 NA
ATOM      5  C   UNL     1      35.441 -22.493 -17.500  0.00  0.00    +0.104 C 
ATOM      6  C   UNL     1      33.385 -21.784 -19.138  0.00  0.00    +0.187 A 
ATOM      7  C   UNL     1      34.694 -20.527 -20.346  0.00  0.00    +0.217 A 
ATOM      8  C   UNL     1      34.072 -23.053 -17.255  0.00  0.00    +0.024 C 
ATOM      9  C   UNL     1      33.093 -22.673 -18.085  0.00  0.00    +0.042 C 
ENDROOT
BRANCH   5  12
ATOM     10  N   UNL     1      37.600 -23.902 -14.943  0.00  0.00    -0.208 N 
ATOM     11  N   UNL     1      38.535 -23.132 -15.525  0.00  0.00    -0.176 NA
ATOM     12  C   UNL     1      36.512 -22.921 -16.564  0.00  0.00    +0.056 C 
ATOM     13  C   UNL     1      36.370 -23.811 -15.527  0.00  0.00    +0.087 C 
ATOM     14  C   UNL     1      37.866 -22.536 -16.514  0.00  0.00    +0.121 C 
ATOM     15  C   UNL     1      37.949 -24.720 -13.806  0.00  0.00    +0.140 C 
ENDBRANCH   5  12
BRANCH   7  16
ATOM     16  S   UNL     1      36.160 -19.697 -20.941  0.00  0.00    -0.051 S 
BRANCH  16  19
ATOM     17  N   UNL     1      33.825 -14.753 -23.284  0.00  0.00    -0.248 NA
ATOM     18  C   UNL     1      34.712 -16.972 -23.594  0.00  0.00    -0.003 C 
ATOM     19  C   UNL     1      35.461 -18.222 -21.653  0.00  0.00    +0.011 C 
ATOM     20  C   UNL     1      34.354 -15.881 -22.774  0.00  0.00    +0.060 C 
ATOM     21  C   UNL     1      35.262 -18.134 -23.027  0.00  0.00    +0.060 C 
ATOM     22  C   UNL     1      35.111 -17.151 -20.840  0.00  0.00    -0.017 C 
ATOM     23  C   UNL     1      34.564 -15.995 -21.402  0.00  0.00    +0.072 C 
ATOM     24  C   UNL     1      34.501 -16.856 -24.974  0.00  0.00    -0.001 C 
ATOM     25  C   UNL     1      33.955 -15.695 -25.503  0.00  0.00    +0.020 C 
ATOM     26  C   UNL     1      33.638 -14.681 -24.621  0.00  0.00    +0.098 C 
ENDBRANCH  16  19
ENDBRANCH   7  16
TORSDOF 3
ENDMDL
MODEL 3
REMARK VINA RESULT:     -10.5      2.928      4.360
REMARK  Name = 24779724
REMARK  3 active torsions:
REMARK  status: ('A' for Active; 'I' for Inactive)
REMARK    1  A    between atoms: C_5  and  C_12
REMARK    2  A    between atoms: C_7  and  S_16
REMARK    3  A    between atoms: S_16  and  C_19
REMARK                            x       y       z     vdW  Elec       q    Type
REMARK                         _______ _______ _______ _____ _____    ______ ____
ROOT
ATOM      1  N   UNL     1      32.989 -23.678 -15.764  0.00  0.00    -0.186 N 
ATOM      2  N   UNL     1      34.043 -24.203 -15.091  0.00  0.00    -0.162 NA
ATOM      3  N   UNL     1      31.029 -22.798 -16.218  0.00  0.00    -0.126 NA
ATOM      4  N   UNL     1      31.728 -22.941 -17.399  0.00  0.00    -0.120 NA
ATOM      5  C   UNL     1      33.859 -24.280 -13.803  0.00  0.00    +0.104 C 
ATOM      6  C   UNL     1      31.794 -23.243 -15.243  0.00  0.00    +0.187 A 
ATOM      7  C   UNL     1      32.896 -23.470 -17.110  0.00  0.00    +0.217 A 
ATOM      8  C   UNL     1      32.603 -23.860 -13.100  0.00  0.00    +0.024 C 
ATOM      9  C   UNL     1      31.616 -23.354 -13.850  0.00  0.00    +0.042 C 
ENDROOT
BRANCH   5  12
ATOM     10  N   UNL     1      36.828 -25.712 -12.280  0.00  0.00    -0.208 N 
ATOM     11  N   UNL     1      36.142 -25.533 -11.138  0.00  0.00    -0.176 NA
ATOM     12  C   UNL     1      34.944 -24.832 -12.953  0.00  0.00    +0.056 C 
ATOM     13  C   UNL     1      36.154 -25.309 -13.396  0.00  0.00    +0.087 C 
ATOM     14  C   UNL     1      34.993 -24.995 -11.555  0.00  0.00    +0.121 C 
ATOM     15  C   UNL     1      38.151 -26.286 -12.239  0.00  0.00    +0.140 C 
ENDBRANCH   5  12
BRANCH   7  16
ATOM     16  S   UNL     1      34.200 -23.872 -18.263  0.00  0.00    -0.051 S 
BRANCH  16  19
ATOM     17  N   UNL     1      34.617 -18.790 -21.326  0.00  0.00    -0.248 NA
ATOM     18  C   UNL     1      35.701 -20.618 -20.192  0.00  0.00    -0.003 C 
ATOM     19  C   UNL     1      34.336 -22.351 -19.180  0.00  0.00    +0.011 C 
ATOM     20  C   UNL     1      34.545 -19.941 -20.633  0.00  0.00    +0.060 C 
ATOM     21  C   UNL     1      35.588 -21.818 -19.469  0.00  0.00    +0.060 C 
ATOM     22  C   UNL     1      33.193 -21.689 -19.611  0.00  0.00    -0.017 C 
ATOM     23  C   UNL     1      33.305 -20.497 -20.329  0.00  0.00    +0.072 C 
ATOM     24  C   UNL     1      36.949 -20.059 -20.497  0.00  0.00    -0.001 C 
ATOM     25  C   UNL     1      37.027 -18.873 -21.212  0.00  0.00    +0.020 C 
ATOM     26  C   UNL     1      35.841 -18.283 -21.600  0.00  0.00    +0.098 C 
ENDBRANCH  16  19
ENDBRANCH   7  16
TORSDOF 3
ENDMDL
MODEL 4
REMARK VINA RESULT:     -10.1      5.513     11.641
REMARK  Name = 24779724
REMARK  3 active torsions:
REMARK  status: ('A' for Active; 'I' for Inactive)
REMARK    1  A    between atoms: C_5  and  C_12
REMARK    2  A    between atoms: C_7  and  S_16
REMARK    3  A    between atoms: S_16  and  C_19
REMARK                            x       y       z     vdW  Elec       q    Type
REMARK                         _______ _______ _______ _____ _____    ______ ____
ROOT
ATOM      1  N   UNL     1      32.446 -11.956 -21.835  0.00  0.00    -0.186 N 
ATOM      2  N   UNL     1      32.694 -10.744 -22.391  0.00  0.00    -0.162 NA
ATOM      3  N   UNL     1      31.740 -13.521 -20.465  0.00  0.00    -0.126 NA
ATOM      4  N   UNL     1      32.392 -14.125 -21.521  0.00  0.00    -0.120 NA
ATOM      5  C   UNL     1      32.222  -9.743 -21.703  0.00  0.00    +0.104 C 
ATOM      6  C   UNL     1      31.778 -12.220 -20.663  0.00  0.00    +0.187 A 
ATOM      7  C   UNL     1      32.809 -13.176 -22.329  0.00  0.00    +0.217 A 
ATOM      8  C   UNL     1      31.490  -9.879 -20.401  0.00  0.00    +0.024 C 
ATOM      9  C   UNL     1      31.294 -11.118 -19.931  0.00  0.00    +0.042 C 
ENDROOT
BRANCH   5  12
ATOM     10  N   UNL     1      32.099  -6.278 -22.782  0.00  0.00    -0.208 N 
ATOM     11  N   UNL     1      33.383  -6.495 -23.112  0.00  0.00    -0.176 NA
ATOM     12  C   UNL     1      32.424  -8.362 -22.210  0.00  0.00    +0.056 C 
ATOM     13  C   UNL     1      31.479  -7.366 -22.239  0.00  0.00    +0.087 C 
ATOM     14  C   UNL     1      33.577  -7.768 -22.760  0.00  0.00    +0.121 C 
ATOM     15  C   UNL     1      31.507  -4.983 -23.016  0.00  0.00    +0.140 C 
ENDBRANCH   5  12
BRANCH   7  16
ATOM     16  S   UNL     1      33.713 -13.393 -23.854  0.00  0.00    -0.051 S 
BRANCH  16  19
ATOM     17  N   UNL     1      35.182 -19.151 -23.562  0.00  0.00    -0.248 NA
ATOM     18  C   UNL     1      34.925 -17.021 -22.464  0.00  0.00    -0.003 C 
ATOM     19  C   UNL     1      34.154 -15.116 -23.755  0.00  0.00    +0.011 C 
ATOM     20  C   UNL     1      34.853 -17.846 -23.606  0.00  0.00    +0.060 C 
ATOM     21  C   UNL     1      34.575 -15.663 -22.547  0.00  0.00    +0.060 C 
ATOM     22  C   UNL     1      34.082 -15.922 -24.884  0.00  0.00    -0.017 C 
ATOM     23  C   UNL     1      34.430 -17.272 -24.802  0.00  0.00    +0.072 C 
ATOM     24  C   UNL     1      35.352 -17.598 -21.261  0.00  0.00    -0.001 C 
ATOM     25  C   UNL     1      35.690 -18.942 -21.212  0.00  0.00    +0.020 C 
ATOM     26  C   UNL     1      35.588 -19.668 -22.381  0.00  0.00    +0.098 C 
ENDBRANCH  16  19
ENDBRANCH   7  16
TORSDOF 3
ENDMDL
MODEL 5
REMARK VINA RESULT:      -9.9      3.899      7.640
REMARK  Name = 24779724
REMARK  3 active torsions:
REMARK  status: ('A' for Active; 'I' for Inactive)
REMARK    1  A    between atoms: C_5  and  C_12
REMARK    2  A    between atoms: C_7  and  S_16
REMARK    3  A    between atoms: S_16  and  C_19
REMARK                            x       y       z     vdW  Elec       q    Type
REMARK                         _______ _______ _______ _____ _____    ______ ____
ROOT
ATOM      1  N   UNL     1      33.764 -15.441 -22.431  0.00  0.00    -0.186 N 
ATOM      2  N   UNL     1      34.187 -16.439 -21.616  0.00  0.00    -0.162 NA
ATOM      3  N   UNL     1      33.447 -14.185 -24.205  0.00  0.00    -0.126 NA
ATOM      4  N   UNL     1      32.762 -13.627 -23.145  0.00  0.00    -0.120 NA
ATOM      5  C   UNL     1      34.940 -17.320 -22.211  0.00  0.00    +0.104 C 
ATOM      6  C   UNL     1      34.045 -15.273 -23.767  0.00  0.00    +0.187 A 
ATOM      7  C   UNL     1      32.963 -14.389 -22.093  0.00  0.00    +0.217 A 
ATOM      8  C   UNL     1      35.343 -17.256 -23.654  0.00  0.00    +0.024 C 
ATOM      9  C   UNL     1      34.876 -16.232 -24.379  0.00  0.00    +0.042 C 
ENDROOT
BRANCH   5  12
ATOM     10  N   UNL     1      35.612 -20.340 -20.310  0.00  0.00    -0.208 N 
ATOM     11  N   UNL     1      36.868 -19.862 -20.285  0.00  0.00    -0.176 NA
ATOM     12  C   UNL     1      35.463 -18.468 -21.426  0.00  0.00    +0.056 C 
ATOM     13  C   UNL     1      34.732 -19.542 -20.981  0.00  0.00    +0.087 C 
ATOM     14  C   UNL     1      36.771 -18.719 -20.968  0.00  0.00    +0.121 C 
ATOM     15  C   UNL     1      35.309 -21.593 -19.660  0.00  0.00    +0.140 C 
ENDBRANCH   5  12
BRANCH   7  16
ATOM     16  S   UNL     1      32.310 -14.133 -20.451  0.00  0.00    -0.051 S 
BRANCH  16  19
ATOM     17  N   UNL     1      31.630  -8.225 -20.333  0.00  0.00    -0.248 NA
ATOM     18  C   UNL     1      31.972 -10.245 -21.602  0.00  0.00    -0.003 C 
ATOM     19  C   UNL     1      32.107 -12.364 -20.427  0.00  0.00    +0.011 C 
ATOM     20  C   UNL     1      31.785  -9.561 -20.382  0.00  0.00    +0.060 C 
ATOM     21  C   UNL     1      32.132 -11.641 -21.615  0.00  0.00    +0.060 C 
ATOM     22  C   UNL     1      31.923 -11.698 -19.222  0.00  0.00    -0.017 C 
ATOM     23  C   UNL     1      31.765 -10.310 -19.208  0.00  0.00    +0.072 C 
ATOM     24  C   UNL     1      31.993  -9.492 -22.783  0.00  0.00    -0.001 C 
ATOM     25  C   UNL     1      31.833  -8.114 -22.736  0.00  0.00    +0.020 C 
ATOM     26  C   UNL     1      31.656  -7.535 -21.496  0.00  0.00    +0.098 C 
ENDBRANCH  16  19
ENDBRANCH   7  16
TORSDOF 3
ENDMDL
MODEL 6
REMARK VINA RESULT:      -9.8      3.834      6.483
REMARK  Name = 24779724
REMARK  3 active torsions:
REMARK  status: ('A' for Active; 'I' for Inactive)
REMARK    1  A    between atoms: C_5  and  C_12
REMARK    2  A    between atoms: C_7  and  S_16
REMARK    3  A    between atoms: S_16  and  C_19
REMARK                            x       y       z     vdW  Elec       q    Type
REMARK                         _______ _______ _______ _____ _____    ______ ____
ROOT
ATOM      1  N   UNL     1      32.736 -23.472 -16.007  0.00  0.00    -0.186 N 
ATOM      2  N   UNL     1      31.449 -23.396 -16.426  0.00  0.00    -0.162 NA
ATOM      3  N   UNL     1      34.514 -23.512 -14.718  0.00  0.00    -0.126 NA
ATOM      4  N   UNL     1      34.918 -23.678 -16.028  0.00  0.00    -0.120 NA
ATOM      5  C   UNL     1      30.590 -23.231 -15.460  0.00  0.00    +0.104 C 
ATOM      6  C   UNL     1      33.204 -23.390 -14.716  0.00  0.00    +0.187 A 
ATOM      7  C   UNL     1      33.844 -23.649 -16.784  0.00  0.00    +0.217 A 
ATOM      8  C   UNL     1      30.956 -23.106 -14.011  0.00  0.00    +0.024 C 
ATOM      9  C   UNL     1      32.254 -23.194 -13.694  0.00  0.00    +0.042 C 
ENDROOT
BRANCH   5  12
ATOM     10  N   UNL     1      27.008 -22.687 -15.709  0.00  0.00    -0.208 N 
ATOM     11  N   UNL     1      27.142 -23.354 -16.868  0.00  0.00    -0.176 NA
ATOM     12  C   UNL     1      29.144 -23.138 -15.790  0.00  0.00    +0.056 C 
ATOM     13  C   UNL     1      28.178 -22.531 -15.026  0.00  0.00    +0.087 C 
ATOM     14  C   UNL     1      28.448 -23.627 -16.913  0.00  0.00    +0.121 C 
ATOM     15  C   UNL     1      25.707 -22.213 -15.300  0.00  0.00    +0.140 C 
ENDBRANCH   5  12
BRANCH   7  16
ATOM     16  S   UNL     1      33.785 -23.816 -18.561  0.00  0.00    -0.051 S 
BRANCH  16  19
ATOM     17  N   UNL     1      37.321 -19.339 -20.247  0.00  0.00    -0.248 NA
ATOM     18  C   UNL     1      35.234 -20.524 -20.465  0.00  0.00    -0.003 C 
ATOM     19  C   UNL     1      34.836 -22.471 -19.073  0.00  0.00    +0.011 C 
ATOM     20  C   UNL     1      36.505 -20.344 -19.880  0.00  0.00    +0.060 C 
ATOM     21  C   UNL     1      34.409 -21.585 -20.057  0.00  0.00    +0.060 C 
ATOM     22  C   UNL     1      36.086 -22.301 -18.493  0.00  0.00    -0.017 C 
ATOM     23  C   UNL     1      36.907 -21.246 -18.898  0.00  0.00    +0.072 C 
ATOM     24  C   UNL     1      34.830 -19.616 -21.453  0.00  0.00    -0.001 C 
ATOM     25  C   UNL     1      35.668 -18.578 -21.833  0.00  0.00    +0.020 C 
ATOM     26  C   UNL     1      36.893 -18.485 -21.204  0.00  0.00    +0.098 C 
ENDBRANCH  16  19
ENDBRANCH   7  16
TORSDOF 3
ENDMDL
MODEL 7
REMARK VINA RESULT:      -9.6      3.064      4.692
REMARK  Name = 24779724
REMARK  3 active torsions:
REMARK  status: ('A' for Active; 'I' for Inactive)
REMARK    1  A    between atoms: C_5  and  C_12
REMARK    2  A    between atoms: C_7  and  S_16
REMARK    3  A    between atoms: S_16  and  C_19
REMARK                            x       y       z     vdW  Elec       q    Type
REMARK                         _______ _______ _______ _____ _____    ______ ____
ROOT
ATOM      1  N   UNL     1      33.912 -24.052 -15.622  0.00  0.00    -0.186 N 
ATOM      2  N   UNL     1      35.052 -24.784 -15.687  0.00  0.00    -0.162 NA
ATOM      3  N   UNL     1      32.224 -22.878 -14.849  0.00  0.00    -0.126 NA
ATOM      4  N   UNL     1      32.101 -22.972 -16.221  0.00  0.00    -0.120 NA
ATOM      5  C   UNL     1      35.614 -24.985 -14.529  0.00  0.00    +0.104 C 
ATOM      6  C   UNL     1      33.314 -23.529 -14.500  0.00  0.00    +0.187 A 
ATOM      7  C   UNL     1      33.115 -23.678 -16.666  0.00  0.00    +0.217 A 
ATOM      8  C   UNL     1      35.067 -24.491 -13.223  0.00  0.00    +0.024 C 
ATOM      9  C   UNL     1      33.935 -23.777 -13.260  0.00  0.00    +0.042 C 
ENDROOT
BRANCH   5  12
ATOM     10  N   UNL     1      38.984 -26.327 -14.360  0.00  0.00    -0.208 N 
ATOM     11  N   UNL     1      38.351 -27.511 -14.404  0.00  0.00    -0.176 NA
ATOM     12  C   UNL     1      36.874 -25.769 -14.468  0.00  0.00    +0.056 C 
ATOM     13  C   UNL     1      38.145 -25.252 -14.396  0.00  0.00    +0.087 C 
ATOM     14  C   UNL     1      37.063 -27.165 -14.469  0.00  0.00    +0.121 C 
ATOM     15  C   UNL     1      40.425 -26.286 -14.283  0.00  0.00    +0.140 C 
ENDBRANCH   5  12
BRANCH   7  16
ATOM     16  S   UNL     1      33.451 -24.108 -18.367  0.00  0.00    -0.051 S 
BRANCH  16  19
ATOM     17  N   UNL     1      37.011 -19.634 -20.008  0.00  0.00    -0.248 NA
ATOM     18  C   UNL     1      34.925 -20.815 -20.249  0.00  0.00    -0.003 C 
ATOM     19  C   UNL     1      34.509 -22.765 -18.865  0.00  0.00    +0.011 C 
ATOM     20  C   UNL     1      36.190 -20.639 -19.651  0.00  0.00    +0.060 C 
ATOM     21  C   UNL     1      34.094 -21.876 -19.852  0.00  0.00    +0.060 C 
ATOM     22  C   UNL     1      35.754 -22.598 -18.272  0.00  0.00    -0.017 C 
ATOM     23  C   UNL     1      36.581 -21.544 -18.666  0.00  0.00    +0.072 C 
ATOM     24  C   UNL     1      34.532 -19.905 -21.239  0.00  0.00    -0.001 C 
ATOM     25  C   UNL     1      35.376 -18.868 -21.609  0.00  0.00    +0.020 C 
ATOM     26  C   UNL     1      36.594 -18.778 -20.968  0.00  0.00    +0.098 C 
ENDBRANCH  16  19
ENDBRANCH   7  16
TORSDOF 3
ENDMDL
MODEL 8
REMARK VINA RESULT:      -9.6      2.440      9.141
REMARK  Name = 24779724
REMARK  3 active torsions:
REMARK  status: ('A' for Active; 'I' for Inactive)
REMARK    1  A    between atoms: C_5  and  C_12
REMARK    2  A    between atoms: C_7  and  S_16
REMARK    3  A    between atoms: S_16  and  C_19
REMARK                            x       y       z     vdW  Elec       q    Type
REMARK                         _______ _______ _______ _____ _____    ______ ____
ROOT
ATOM      1  N   UNL     1      35.562 -20.529 -20.283  0.00  0.00    -0.186 N 
ATOM      2  N   UNL     1      34.898 -20.011 -21.346  0.00  0.00    -0.162 NA
ATOM      3  N   UNL     1      37.126 -20.949 -18.800  0.00  0.00    -0.126 NA
ATOM      4  N   UNL     1      36.014 -21.706 -18.490  0.00  0.00    -0.120 NA
ATOM      5  C   UNL     1      35.593 -19.147 -22.030  0.00  0.00    +0.104 C 
ATOM      6  C   UNL     1      36.844 -20.247 -19.877  0.00  0.00    +0.187 A 
ATOM      7  C   UNL     1      35.090 -21.444 -19.387  0.00  0.00    +0.217 A 
ATOM      8  C   UNL     1      37.006 -18.756 -21.716  0.00  0.00    +0.024 C 
ATOM      9  C   UNL     1      37.578 -19.321 -20.645  0.00  0.00    +0.042 C 
ENDROOT
BRANCH   5  12
ATOM     10  N   UNL     1      34.287 -17.023 -24.670  0.00  0.00    -0.208 N 
ATOM     11  N   UNL     1      33.864 -18.188 -25.189  0.00  0.00    -0.176 NA
ATOM     12  C   UNL     1      34.974 -18.503 -23.217  0.00  0.00    +0.056 C 
ATOM     13  C   UNL     1      34.957 -17.157 -23.489  0.00  0.00    +0.087 C 
ATOM     14  C   UNL     1      34.286 -19.088 -24.298  0.00  0.00    +0.121 C 
ATOM     15  C   UNL     1      34.014 -15.787 -25.365  0.00  0.00    +0.140 C 
ENDBRANCH   5  12
BRANCH   7  16
ATOM     16  S   UNL     1      33.450 -22.148 -19.466  0.00  0.00    -0.051 S 
BRANCH  16  19
ATOM     17  N   UNL     1      32.896 -24.354 -13.969  0.00  0.00    -0.248 NA
ATOM     18  C   UNL     1      31.885 -23.324 -15.899  0.00  0.00    -0.003 C 
ATOM     19  C   UNL     1      33.273 -22.807 -17.821  0.00  0.00    +0.011 C 
ATOM     20  C   UNL     1      33.000 -23.851 -15.213  0.00  0.00    +0.060 C 
ATOM     21  C   UNL     1      32.029 -22.807 -17.197  0.00  0.00    +0.060 C 
ATOM     22  C   UNL     1      34.375 -23.323 -17.152  0.00  0.00    -0.017 C 
ATOM     23  C   UNL     1      34.232 -23.838 -15.861  0.00  0.00    +0.072 C 
ATOM     24  C   UNL     1      30.645 -23.337 -15.247  0.00  0.00    -0.001 C 
ATOM     25  C   UNL     1      30.534 -23.856 -13.965  0.00  0.00    +0.020 C 
ATOM     26  C   UNL     1      31.681 -24.348 -13.375  0.00  0.00    +0.098 C 
ENDBRANCH  16  19
ENDBRANCH   7  16
TORSDOF 3
ENDMDL
MODEL 9
REMARK VINA RESULT:      -9.6      3.018      9.843
REMARK  Name = 24779724
REMARK  3 active torsions:
REMARK  status: ('A' for Active; 'I' for Inactive)
REMARK    1  A    between atoms: C_5  and  C_12
REMARK    2  A    between atoms: C_7  and  S_16
REMARK    3  A    between atoms: S_16  and  C_19
REMARK                            x       y       z     vdW  Elec       q    Type
REMARK                         _______ _______ _______ _____ _____    ______ ____
ROOT
ATOM      1  N   UNL     1      34.481 -16.183 -23.861  0.00  0.00    -0.186 N 
ATOM      2  N   UNL     1      34.444 -14.896 -23.435  0.00  0.00    -0.162 NA
ATOM      3  N   UNL     1      34.163 -17.997 -25.058  0.00  0.00    -0.126 NA
ATOM      4  N   UNL     1      34.935 -18.325 -23.962  0.00  0.00    -0.120 NA
ATOM      5  C   UNL     1      33.769 -14.102 -24.217  0.00  0.00    +0.104 C 
ATOM      6  C   UNL     1      33.897 -16.710 -24.989  0.00  0.00    +0.187 A 
ATOM      7  C   UNL     1      35.114 -17.231 -23.257  0.00  0.00    +0.217 A 
ATOM      8  C   UNL     1      33.066 -14.539 -25.467  0.00  0.00    +0.024 C 
ATOM      9  C   UNL     1      33.159 -15.831 -25.807  0.00  0.00    +0.042 C 
ENDROOT
BRANCH   5  12
ATOM     10  N   UNL     1      33.054 -10.784 -22.927  0.00  0.00    -0.208 N 
ATOM     11  N   UNL     1      33.989 -10.404 -23.814  0.00  0.00    -0.176 NA
ATOM     12  C   UNL     1      33.659 -12.664 -23.861  0.00  0.00    +0.056 C 
ATOM     13  C   UNL     1      32.819 -12.128 -22.916  0.00  0.00    +0.087 C 
ATOM     14  C   UNL     1      34.355 -11.556 -24.381  0.00  0.00    +0.121 C 
ATOM     15  C   UNL     1      32.405  -9.795 -22.100  0.00  0.00    +0.140 C 
ENDBRANCH   5  12
BRANCH   7  16
ATOM     16  S   UNL     1      36.037 -17.080 -21.735  0.00  0.00    -0.051 S 
BRANCH  16  19
ATOM     17  N   UNL     1      35.325 -22.494 -19.375  0.00  0.00    -0.248 NA
ATOM     18  C   UNL     1      34.350 -20.453 -20.205  0.00  0.00    -0.003 C 
ATOM     19  C   UNL     1      35.813 -18.700 -21.029  0.00  0.00    +0.011 C 
ATOM     20  C   UNL     1      35.464 -21.267 -19.910  0.00  0.00    +0.060 C 
ATOM     21  C   UNL     1      34.532 -19.176 -20.762  0.00  0.00    +0.060 C 
ATOM     22  C   UNL     1      36.914 -19.496 -20.741  0.00  0.00    -0.017 C 
ATOM     23  C   UNL     1      36.733 -20.765 -20.186  0.00  0.00    +0.072 C 
ATOM     24  C   UNL     1      33.073 -20.957 -19.926  0.00  0.00    -0.001 C 
ATOM     25  C   UNL     1      32.927 -22.222 -19.375  0.00  0.00    +0.020 C 
ATOM     26  C   UNL     1      34.076 -22.944 -19.121  0.00  0.00    +0.098 C 
ENDBRANCH  16  19
ENDBRANCH   7  16
TORSDOF 3
ENDMDL
