MODEL 1
REMARK VINA RESULT:     -12.7      0.000      0.000
REMARK  Name = 24941249
REMARK  6 active torsions:
REMARK  status: ('A' for Active; 'I' for Inactive)
REMARK    1  A    between atoms: N_1  and  C_13
REMARK    2  A    between atoms: N_2  and  C_26
REMARK    3  A    between atoms: C_14  and  C_19
REMARK    4  A    between atoms: C_19  and  C_20
REMARK    5  A    between atoms: C_20  and  C_23
REMARK    6  A    between atoms: C_26  and  C_28
REMARK                            x       y       z     vdW  Elec       q    Type
REMARK                         _______ _______ _______ _____ _____    ______ ____
ROOT
ATOM      1  N   UNL     1      33.166 -13.995 -23.086  0.00  0.00    -0.230 N 
ATOM      2  N   UNL     1      35.203 -17.954 -21.071  0.00  0.00    -0.316 N 
ATOM      3  N   UNL     1      33.024 -13.569 -24.353  0.00  0.00    -0.169 NA
ATOM      4  N   UNL     1      35.150 -17.548 -23.416  0.00  0.00    -0.229 NA
ATOM      5  C   UNL     1      33.817 -15.192 -22.967  0.00  0.00    +0.088 A 
ATOM      6  C   UNL     1      34.123 -15.574 -24.267  0.00  0.00    +0.052 A 
ATOM      7  C   UNL     1      33.608 -14.533 -25.069  0.00  0.00    +0.082 A 
ATOM      8  C   UNL     1      34.159 -15.957 -21.857  0.00  0.00    +0.053 C 
ATOM      9  C   UNL     1      34.828 -17.131 -22.167  0.00  0.00    +0.130 C 
ATOM     10  C   UNL     1      34.801 -16.775 -24.474  0.00  0.00    +0.103 C 
ATOM     11  C   UNL     1      33.653 -14.421 -26.537  0.00  0.00    +0.054 C 
ATOM     12  H   UNL     1      34.975 -17.660 -20.160  0.00  0.00    +0.148 HD
ENDROOT
BRANCH   1  13
ATOM     13  C   UNL     1      32.662 -13.222 -22.039  0.00  0.00    +0.082 C 
ATOM     14  C   UNL     1      31.853 -11.104 -21.204  0.00  0.00    -0.020 C 
ATOM     15  C   UNL     1      32.357 -11.877 -22.250  0.00  0.00    +0.015 C 
ATOM     16  C   UNL     1      32.461 -13.794 -20.783  0.00  0.00    +0.019 C 
ATOM     17  C   UNL     1      31.652 -11.676 -19.948  0.00  0.00    -0.004 C 
ATOM     18  C   UNL     1      31.956 -13.021 -19.737  0.00  0.00    +0.001 C 
BRANCH  14  19
ATOM     19  C   UNL     1      31.529  -9.666 -21.428  0.00  0.00    +0.036 C 
BRANCH  19  20
ATOM     20  C   UNL     1      32.783  -8.819 -21.674  0.00  0.00    +0.089 C 
BRANCH  20  23
ATOM     21  O   UNL     1      32.623  -6.447 -21.191  0.00  0.00    -0.275 OA
ATOM     22  N   UNL     1      33.177  -7.892 -19.489  0.00  0.00    -0.329 N 
ATOM     23  C   UNL     1      32.844  -7.587 -20.792  0.00  0.00    +0.220 C 
ATOM     24  H   UNL     1      33.248  -7.175 -18.820  0.00  0.00    +0.145 HD
ATOM     25  H   UNL     1      33.344  -8.827 -19.231  0.00  0.00    +0.145 HD
ENDBRANCH  20  23
ENDBRANCH  19  20
ENDBRANCH  14  19
ENDBRANCH   1  13
BRANCH   2  26
ATOM     26  C   UNL     1      35.894 -19.189 -21.241  0.00  0.00    +0.093 C 
ATOM     27  C   UNL     1      37.359 -19.008 -20.847  0.00  0.00    +0.026 C 
BRANCH  26  28
ATOM     28  C   UNL     1      35.203 -20.286 -20.460  0.00  0.00    -0.005 C 
ATOM     29  C   UNL     1      33.810 -20.343 -20.420  0.00  0.00    -0.003 C 
ATOM     30  C   UNL     1      35.960 -21.240 -19.781  0.00  0.00    -0.003 C 
ATOM     31  C   UNL     1      33.174 -21.354 -19.699  0.00  0.00    -0.000 C 
ATOM     32  C   UNL     1      35.324 -22.251 -19.060  0.00  0.00    -0.000 C 
ATOM     33  C   UNL     1      33.931 -22.308 -19.020  0.00  0.00    -0.000 C 
ENDBRANCH  26  28
ENDBRANCH   2  26
TORSDOF 6
ENDMDL
MODEL 2
REMARK VINA RESULT:     -11.6      8.050     13.420
REMARK  Name = 24941249
REMARK  6 active torsions:
REMARK  status: ('A' for Active; 'I' for Inactive)
REMARK    1  A    between atoms: N_1  and  C_13
REMARK    2  A    between atoms: N_2  and  C_26
REMARK    3  A    between atoms: C_14  and  C_19
REMARK    4  A    between atoms: C_19  and  C_20
REMARK    5  A    between atoms: C_20  and  C_23
REMARK    6  A    between atoms: C_26  and  C_28
REMARK                            x       y       z     vdW  Elec       q    Type
REMARK                         _______ _______ _______ _____ _____    ______ ____
ROOT
ATOM      1  N   UNL     1      34.232 -24.502 -13.413  0.00  0.00    -0.230 N 
ATOM      2  N   UNL     1      34.804 -22.627 -17.889  0.00  0.00    -0.316 N 
ATOM      3  N   UNL     1      33.171 -24.970 -12.733  0.00  0.00    -0.169 NA
ATOM      4  N   UNL     1      32.711 -23.361 -17.026  0.00  0.00    -0.229 NA
ATOM      5  C   UNL     1      33.939 -24.060 -14.673  0.00  0.00    +0.088 A 
ATOM      6  C   UNL     1      32.572 -24.258 -14.823  0.00  0.00    +0.052 A 
ATOM      7  C   UNL     1      32.163 -24.819 -13.595  0.00  0.00    +0.082 A 
ATOM      8  C   UNL     1      34.735 -23.514 -15.674  0.00  0.00    +0.053 C 
ATOM      9  C   UNL     1      34.042 -23.188 -16.830  0.00  0.00    +0.130 C 
ATOM     10  C   UNL     1      31.967 -23.896 -16.026  0.00  0.00    +0.103 C 
ATOM     11  C   UNL     1      30.804 -25.231 -13.202  0.00  0.00    +0.054 C 
ATOM     12  H   UNL     1      35.771 -22.496 -17.757  0.00  0.00    +0.148 HD
ENDROOT
BRANCH   1  13
ATOM     13  C   UNL     1      35.491 -24.504 -12.810  0.00  0.00    +0.082 C 
ATOM     14  C   UNL     1      37.694 -25.468 -12.569  0.00  0.00    -0.020 C 
ATOM     15  C   UNL     1      36.435 -25.466 -13.171  0.00  0.00    +0.015 C 
ATOM     16  C   UNL     1      35.805 -23.545 -11.848  0.00  0.00    +0.019 C 
ATOM     17  C   UNL     1      38.008 -24.508 -11.607  0.00  0.00    -0.004 C 
ATOM     18  C   UNL     1      37.064 -23.546 -11.246  0.00  0.00    +0.001 C 
BRANCH  14  19
ATOM     19  C   UNL     1      38.703 -26.496 -12.953  0.00  0.00    +0.036 C 
BRANCH  19  20
ATOM     20  C   UNL     1      40.018 -25.869 -13.429  0.00  0.00    +0.089 C 
BRANCH  20  23
ATOM     21  O   UNL     1      40.707 -26.506 -15.667  0.00  0.00    -0.275 OA
ATOM     22  N   UNL     1      39.392 -24.638 -15.399  0.00  0.00    -0.329 N 
ATOM     23  C   UNL     1      40.093 -25.732 -14.938  0.00  0.00    +0.220 C 
ATOM     24  H   UNL     1      39.365 -24.442 -16.363  0.00  0.00    +0.145 HD
ATOM     25  H   UNL     1      38.920 -24.053 -14.764  0.00  0.00    +0.145 HD
ENDBRANCH  20  23
ENDBRANCH  19  20
ENDBRANCH  14  19
ENDBRANCH   1  13
BRANCH   2  26
ATOM     26  C   UNL     1      34.225 -22.246 -19.133  0.00  0.00    +0.093 C 
ATOM     27  C   UNL     1      32.787 -21.783 -18.903  0.00  0.00    +0.026 C 
BRANCH  26  28
ATOM     28  C   UNL     1      35.082 -21.199 -19.811  0.00  0.00    -0.005 C 
ATOM     29  C   UNL     1      36.450 -21.140 -19.547  0.00  0.00    -0.003 C 
ATOM     30  C   UNL     1      34.504 -20.293 -20.699  0.00  0.00    -0.003 C 
ATOM     31  C   UNL     1      37.240 -20.174 -20.171  0.00  0.00    -0.000 C 
ATOM     32  C   UNL     1      35.293 -19.327 -21.323  0.00  0.00    -0.000 C 
ATOM     33  C   UNL     1      36.662 -19.268 -21.059  0.00  0.00    -0.000 C 
ENDBRANCH  26  28
ENDBRANCH   2  26
TORSDOF 6
ENDMDL
MODEL 3
REMARK VINA RESULT:     -10.4      9.477     11.984
REMARK  Name = 24941249
REMARK  6 active torsions:
REMARK  status: ('A' for Active; 'I' for Inactive)
REMARK    1  A    between atoms: N_1  and  C_13
REMARK    2  A    between atoms: N_2  and  C_26
REMARK    3  A    between atoms: C_14  and  C_19
REMARK    4  A    between atoms: C_19  and  C_20
REMARK    5  A    between atoms: C_20  and  C_23
REMARK    6  A    between atoms: C_26  and  C_28
REMARK                            x       y       z     vdW  Elec       q    Type
REMARK                         _______ _______ _______ _____ _____    ______ ____
ROOT
ATOM      1  N   UNL     1      32.272 -23.529 -16.329  0.00  0.00    -0.230 N 
ATOM      2  N   UNL     1      35.583 -23.921 -12.757  0.00  0.00    -0.316 N 
ATOM      3  N   UNL     1      32.342 -23.166 -17.621  0.00  0.00    -0.169 NA
ATOM      4  N   UNL     1      36.110 -23.227 -14.971  0.00  0.00    -0.229 NA
ATOM      5  C   UNL     1      33.471 -23.498 -15.673  0.00  0.00    +0.088 A 
ATOM      6  C   UNL     1      34.397 -23.079 -16.620  0.00  0.00    +0.052 A 
ATOM      7  C   UNL     1      33.637 -22.892 -17.794  0.00  0.00    +0.082 A 
ATOM      8  C   UNL     1      33.819 -23.794 -14.359  0.00  0.00    +0.053 C 
ATOM      9  C   UNL     1      35.168 -23.633 -14.084  0.00  0.00    +0.130 C 
ATOM     10  C   UNL     1      35.733 -22.947 -16.243  0.00  0.00    +0.103 C 
ATOM     11  C   UNL     1      34.115 -22.450 -19.115  0.00  0.00    +0.054 C 
ATOM     12  H   UNL     1      34.907 -24.215 -12.104  0.00  0.00    +0.148 HD
ENDROOT
BRANCH   1  13
ATOM     13  C   UNL     1      31.041 -23.894 -15.782  0.00  0.00    +0.082 C 
ATOM     14  C   UNL     1      28.659 -23.544 -15.569  0.00  0.00    -0.020 C 
ATOM     15  C   UNL     1      29.890 -23.179 -16.115  0.00  0.00    +0.015 C 
ATOM     16  C   UNL     1      30.960 -24.975 -14.904  0.00  0.00    +0.019 C 
ATOM     17  C   UNL     1      28.579 -24.624 -14.691  0.00  0.00    -0.004 C 
ATOM     18  C   UNL     1      29.729 -25.341 -14.359  0.00  0.00    +0.001 C 
BRANCH  14  19
ATOM     19  C   UNL     1      27.430 -22.778 -15.923  0.00  0.00    +0.036 C 
BRANCH  19  20
ATOM     20  C   UNL     1      27.066 -22.918 -17.406  0.00  0.00    +0.089 C 
BRANCH  20  23
ATOM     21  O   UNL     1      26.199 -20.652 -17.376  0.00  0.00    -0.275 OA
ATOM     22  N   UNL     1      25.569 -22.060 -19.082  0.00  0.00    -0.329 N 
ATOM     23  C   UNL     1      26.250 -21.749 -17.924  0.00  0.00    +0.220 C 
ATOM     24  H   UNL     1      25.003 -21.382 -19.516  0.00  0.00    +0.145 HD
ATOM     25  H   UNL     1      25.649 -22.959 -19.474  0.00  0.00    +0.145 HD
ENDBRANCH  20  23
ENDBRANCH  19  20
ENDBRANCH  14  19
ENDBRANCH   1  13
BRANCH   2  26
ATOM     26  C   UNL     1      36.938 -23.801 -12.333  0.00  0.00    +0.093 C 
ATOM     27  C   UNL     1      36.992 -23.781 -10.806  0.00  0.00    +0.026 C 
BRANCH  26  28
ATOM     28  C   UNL     1      37.775 -24.906 -12.939  0.00  0.00    -0.005 C 
ATOM     29  C   UNL     1      37.172 -26.097 -13.345  0.00  0.00    -0.003 C 
ATOM     30  C   UNL     1      39.151 -24.734 -13.094  0.00  0.00    -0.003 C 
ATOM     31  C   UNL     1      37.944 -27.115 -13.903  0.00  0.00    -0.000 C 
ATOM     32  C   UNL     1      39.922 -25.752 -13.653  0.00  0.00    -0.000 C 
ATOM     33  C   UNL     1      39.319 -26.943 -14.058  0.00  0.00    -0.000 C 
ENDBRANCH  26  28
ENDBRANCH   2  26
TORSDOF 6
ENDMDL
MODEL 4
REMARK VINA RESULT:     -10.4      5.954     10.562
REMARK  Name = 24941249
REMARK  6 active torsions:
REMARK  status: ('A' for Active; 'I' for Inactive)
REMARK    1  A    between atoms: N_1  and  C_13
REMARK    2  A    between atoms: N_2  and  C_26
REMARK    3  A    between atoms: C_14  and  C_19
REMARK    4  A    between atoms: C_19  and  C_20
REMARK    5  A    between atoms: C_20  and  C_23
REMARK    6  A    between atoms: C_26  and  C_28
REMARK                            x       y       z     vdW  Elec       q    Type
REMARK                         _______ _______ _______ _____ _____    ______ ____
ROOT
ATOM      1  N   UNL     1      33.410 -22.675 -17.559  0.00  0.00    -0.230 N 
ATOM      2  N   UNL     1      36.375 -25.114 -14.536  0.00  0.00    -0.316 N 
ATOM      3  N   UNL     1      32.079 -22.492 -17.604  0.00  0.00    -0.169 NA
ATOM      4  N   UNL     1      34.011 -25.026 -14.276  0.00  0.00    -0.229 NA
ATOM      5  C   UNL     1      33.835 -23.449 -16.514  0.00  0.00    +0.088 A 
ATOM      6  C   UNL     1      32.680 -23.797 -15.824  0.00  0.00    +0.052 A 
ATOM      7  C   UNL     1      31.639 -23.177 -16.546  0.00  0.00    +0.082 A 
ATOM      8  C   UNL     1      35.102 -23.866 -16.122  0.00  0.00    +0.053 C 
ATOM      9  C   UNL     1      35.107 -24.658 -14.984  0.00  0.00    +0.130 C 
ATOM     10  C   UNL     1      32.792 -24.600 -14.688  0.00  0.00    +0.103 C 
ATOM     11  C   UNL     1      30.196 -23.214 -16.255  0.00  0.00    +0.054 C 
ATOM     12  H   UNL     1      37.177 -24.854 -15.044  0.00  0.00    +0.148 HD
ENDROOT
BRANCH   1  13
ATOM     13  C   UNL     1      34.219 -22.088 -18.533  0.00  0.00    +0.082 C 
ATOM     14  C   UNL     1      34.460 -20.675 -20.478  0.00  0.00    -0.020 C 
ATOM     15  C   UNL     1      33.652 -21.261 -19.504  0.00  0.00    +0.015 C 
ATOM     16  C   UNL     1      35.593 -22.327 -18.536  0.00  0.00    +0.019 C 
ATOM     17  C   UNL     1      35.834 -20.914 -20.481  0.00  0.00    -0.004 C 
ATOM     18  C   UNL     1      36.401 -21.740 -19.510  0.00  0.00    +0.001 C 
BRANCH  14  19
ATOM     19  C   UNL     1      33.855 -19.792 -21.517  0.00  0.00    +0.036 C 
BRANCH  19  20
ATOM     20  C   UNL     1      34.916 -19.124 -22.400  0.00  0.00    +0.089 C 
BRANCH  20  23
ATOM     21  O   UNL     1      35.199 -17.336 -20.784  0.00  0.00    -0.275 OA
ATOM     22  N   UNL     1      35.625 -16.905 -23.003  0.00  0.00    -0.329 N 
ATOM     23  C   UNL     1      35.252 -17.715 -21.951  0.00  0.00    +0.220 C 
ATOM     24  H   UNL     1      35.868 -15.966 -22.838  0.00  0.00    +0.145 HD
ATOM     25  H   UNL     1      35.647 -17.267 -23.918  0.00  0.00    +0.145 HD
ENDBRANCH  20  23
ENDBRANCH  19  20
ENDBRANCH  14  19
ENDBRANCH   1  13
BRANCH   2  26
ATOM     26  C   UNL     1      36.532 -25.933 -13.380  0.00  0.00    +0.093 C 
ATOM     27  C   UNL     1      37.787 -26.790 -13.532  0.00  0.00    +0.026 C 
BRANCH  26  28
ATOM     28  C   UNL     1      36.547 -25.078 -12.132  0.00  0.00    -0.005 C 
ATOM     29  C   UNL     1      37.366 -23.950 -12.068  0.00  0.00    -0.003 C 
ATOM     30  C   UNL     1      35.742 -25.417 -11.045  0.00  0.00    -0.003 C 
ATOM     31  C   UNL     1      37.380 -23.163 -10.918  0.00  0.00    -0.000 C 
ATOM     32  C   UNL     1      35.757 -24.630  -9.894  0.00  0.00    -0.000 C 
ATOM     33  C   UNL     1      36.575 -23.502  -9.830  0.00  0.00    -0.000 C 
ENDBRANCH  26  28
ENDBRANCH   2  26
TORSDOF 6
ENDMDL
MODEL 5
REMARK VINA RESULT:      -9.8      7.063     11.760
REMARK  Name = 24941249
REMARK  6 active torsions:
REMARK  status: ('A' for Active; 'I' for Inactive)
REMARK    1  A    between atoms: N_1  and  C_13
REMARK    2  A    between atoms: N_2  and  C_26
REMARK    3  A    between atoms: C_14  and  C_19
REMARK    4  A    between atoms: C_19  and  C_20
REMARK    5  A    between atoms: C_20  and  C_23
REMARK    6  A    between atoms: C_26  and  C_28
REMARK                            x       y       z     vdW  Elec       q    Type
REMARK                         _______ _______ _______ _____ _____    ______ ____
ROOT
ATOM      1  N   UNL     1      33.753 -24.079 -14.215  0.00  0.00    -0.230 N 
ATOM      2  N   UNL     1      35.326 -22.165 -18.427  0.00  0.00    -0.316 N 
ATOM      3  N   UNL     1      34.358 -24.390 -13.055  0.00  0.00    -0.169 NA
ATOM      4  N   UNL     1      36.740 -22.576 -16.557  0.00  0.00    -0.229 NA
ATOM      5  C   UNL     1      34.589 -23.549 -15.158  0.00  0.00    +0.088 A 
ATOM      6  C   UNL     1      35.842 -23.514 -14.560  0.00  0.00    +0.052 A 
ATOM      7  C   UNL     1      35.630 -24.045 -13.270  0.00  0.00    +0.082 A 
ATOM      8  C   UNL     1      34.363 -23.107 -16.457  0.00  0.00    +0.053 C 
ATOM      9  C   UNL     1      35.497 -22.631 -17.096  0.00  0.00    +0.130 C 
ATOM     10  C   UNL     1      36.922 -23.016 -15.288  0.00  0.00    +0.103 C 
ATOM     11  C   UNL     1      36.625 -24.240 -12.201  0.00  0.00    +0.054 C 
ATOM     12  H   UNL     1      34.428 -22.202 -18.828  0.00  0.00    +0.148 HD
ENDROOT
BRANCH   1  13
ATOM     13  C   UNL     1      32.384 -24.307 -14.360  0.00  0.00    +0.082 C 
ATOM     14  C   UNL     1      30.250 -23.697 -15.315  0.00  0.00    -0.020 C 
ATOM     15  C   UNL     1      31.619 -23.469 -15.170  0.00  0.00    +0.015 C 
ATOM     16  C   UNL     1      31.781 -25.375 -13.694  0.00  0.00    +0.019 C 
ATOM     17  C   UNL     1      29.647 -24.765 -14.650  0.00  0.00    -0.004 C 
ATOM     18  C   UNL     1      30.412 -25.604 -13.840  0.00  0.00    +0.001 C 
BRANCH  14  19
ATOM     19  C   UNL     1      29.431 -22.800 -16.180  0.00  0.00    +0.036 C 
BRANCH  19  20
ATOM     20  C   UNL     1      28.036 -23.373 -16.454  0.00  0.00    +0.089 C 
BRANCH  20  23
ATOM     21  O   UNL     1      26.687 -21.508 -17.221  0.00  0.00    -0.275 OA
ATOM     22  N   UNL     1      26.259 -22.410 -15.150  0.00  0.00    -0.329 N 
ATOM     23  C   UNL     1      26.940 -22.330 -16.346  0.00  0.00    +0.220 C 
ATOM     24  H   UNL     1      25.523 -21.785 -14.961  0.00  0.00    +0.145 HD
ATOM     25  H   UNL     1      26.509 -23.092 -14.486  0.00  0.00    +0.145 HD
ENDBRANCH  20  23
ENDBRANCH  19  20
ENDBRANCH  14  19
ENDBRANCH   1  13
BRANCH   2  26
ATOM     26  C   UNL     1      36.403 -21.647 -19.203  0.00  0.00    +0.093 C 
ATOM     27  C   UNL     1      37.078 -22.790 -19.960  0.00  0.00    +0.026 C 
BRANCH  26  28
ATOM     28  C   UNL     1      35.907 -20.546 -20.115  0.00  0.00    -0.005 C 
ATOM     29  C   UNL     1      34.550 -20.452 -20.423  0.00  0.00    -0.003 C 
ATOM     30  C   UNL     1      36.808 -19.623 -20.647  0.00  0.00    -0.003 C 
ATOM     31  C   UNL     1      34.094 -19.437 -21.264  0.00  0.00    -0.000 C 
ATOM     32  C   UNL     1      36.352 -18.608 -21.488  0.00  0.00    -0.000 C 
ATOM     33  C   UNL     1      34.994 -18.515 -21.796  0.00  0.00    -0.000 C 
ENDBRANCH  26  28
ENDBRANCH   2  26
TORSDOF 6
ENDMDL
MODEL 6
REMARK VINA RESULT:      -9.8      7.723     12.816
REMARK  Name = 24941249
REMARK  6 active torsions:
REMARK  status: ('A' for Active; 'I' for Inactive)
REMARK    1  A    between atoms: N_1  and  C_13
REMARK    2  A    between atoms: N_2  and  C_26
REMARK    3  A    between atoms: C_14  and  C_19
REMARK    4  A    between atoms: C_19  and  C_20
REMARK    5  A    between atoms: C_20  and  C_23
REMARK    6  A    between atoms: C_26  and  C_28
REMARK                            x       y       z     vdW  Elec       q    Type
REMARK                         _______ _______ _______ _____ _____    ______ ____
ROOT
ATOM      1  N   UNL     1      34.099 -24.625 -14.792  0.00  0.00    -0.230 N 
ATOM      2  N   UNL     1      34.627 -22.227 -19.017  0.00  0.00    -0.316 N 
ATOM      3  N   UNL     1      33.041 -24.903 -14.010  0.00  0.00    -0.169 NA
ATOM      4  N   UNL     1      32.536 -22.514 -17.918  0.00  0.00    -0.229 NA
ATOM      5  C   UNL     1      33.791 -23.910 -15.917  0.00  0.00    +0.088 A 
ATOM      6  C   UNL     1      32.418 -23.708 -15.859  0.00  0.00    +0.052 A 
ATOM      7  C   UNL     1      32.020 -24.343 -14.664  0.00  0.00    +0.082 A 
ATOM      8  C   UNL     1      34.580 -23.432 -16.957  0.00  0.00    +0.053 C 
ATOM      9  C   UNL     1      33.872 -22.739 -17.928  0.00  0.00    +0.130 C 
ATOM     10  C   UNL     1      31.799 -22.996 -16.886  0.00  0.00    +0.103 C 
ATOM     11  C   UNL     1      30.660 -24.439 -14.105  0.00  0.00    +0.054 C 
ATOM     12  H   UNL     1      35.598 -22.383 -19.033  0.00  0.00    +0.148 HD
ENDROOT
BRANCH   1  13
ATOM     13  C   UNL     1      35.368 -25.066 -14.415  0.00  0.00    +0.082 C 
ATOM     14  C   UNL     1      37.353 -24.818 -13.060  0.00  0.00    -0.020 C 
ATOM     15  C   UNL     1      36.084 -24.377 -13.437  0.00  0.00    +0.015 C 
ATOM     16  C   UNL     1      35.919 -26.198 -15.016  0.00  0.00    +0.019 C 
ATOM     17  C   UNL     1      37.904 -25.949 -13.661  0.00  0.00    -0.004 C 
ATOM     18  C   UNL     1      37.188 -26.640 -14.639  0.00  0.00    +0.001 C 
BRANCH  14  19
ATOM     19  C   UNL     1      38.119 -24.080 -12.015  0.00  0.00    +0.036 C 
BRANCH  19  20
ATOM     20  C   UNL     1      37.227 -23.142 -11.194  0.00  0.00    +0.089 C 
BRANCH  20  23
ATOM     21  O   UNL     1      36.476 -24.468  -9.306  0.00  0.00    -0.275 OA
ATOM     22  N   UNL     1      34.942 -23.838 -10.900  0.00  0.00    -0.329 N 
ATOM     23  C   UNL     1      36.207 -23.887 -10.353  0.00  0.00    +0.220 C 
ATOM     24  H   UNL     1      34.193 -24.285 -10.445  0.00  0.00    +0.145 HD
ATOM     25  H   UNL     1      34.790 -23.356 -11.744  0.00  0.00    +0.145 HD
ENDBRANCH  20  23
ENDBRANCH  19  20
ENDBRANCH  14  19
ENDBRANCH   1  13
BRANCH   2  26
ATOM     26  C   UNL     1      34.032 -21.497 -20.086  0.00  0.00    +0.093 C 
ATOM     27  C   UNL     1      32.771 -20.796 -19.583  0.00  0.00    +0.026 C 
BRANCH  26  28
ATOM     28  C   UNL     1      35.038 -20.541 -20.690  0.00  0.00    -0.005 C 
ATOM     29  C   UNL     1      36.292 -20.383 -20.100  0.00  0.00    -0.003 C 
ATOM     30  C   UNL     1      34.711 -19.817 -21.836  0.00  0.00    -0.003 C 
ATOM     31  C   UNL     1      37.219 -19.502 -20.655  0.00  0.00    -0.000 C 
ATOM     32  C   UNL     1      35.638 -18.936 -22.392  0.00  0.00    -0.000 C 
ATOM     33  C   UNL     1      36.893 -18.778 -21.802  0.00  0.00    -0.000 C 
ENDBRANCH  26  28
ENDBRANCH   2  26
TORSDOF 6
ENDMDL
