MODEL 1
REMARK VINA RESULT:     -11.7      0.000      0.000
REMARK  Name = 25243828
REMARK  6 active torsions:
REMARK  status: ('A' for Active; 'I' for Inactive)
REMARK    1  A    between atoms: C_1  and  C_18
REMARK    2  A    between atoms: C_4  and  O_7
REMARK    3  A    between atoms: O_7  and  C_9
REMARK    4  A    between atoms: C_11  and  C_17
REMARK    5  A    between atoms: C_18  and  C_21
REMARK    6  A    between atoms: C_26  and  O_27
REMARK                            x       y       z     vdW  Elec       q    Type
REMARK                         _______ _______ _______ _____ _____    ______ ____
ROOT
ATOM      1  C   UNL     1      33.961 -23.765 -14.730  0.00  0.00    -0.019 C 
ATOM      2  C   UNL     1      34.133 -23.894 -16.108  0.00  0.00    +0.033 C 
ATOM      3  C   UNL     1      32.727 -23.370 -14.214  0.00  0.00    -0.004 C 
ATOM      4  C   UNL     1      33.071 -23.626 -16.971  0.00  0.00    +0.147 C 
ATOM      5  C   UNL     1      31.664 -23.102 -15.077  0.00  0.00    +0.003 C 
ATOM      6  C   UNL     1      31.835 -23.231 -16.456  0.00  0.00    +0.038 C 
ENDROOT
BRANCH   4   7
ATOM      7  O   UNL     1      33.238 -23.748 -18.316  0.00  0.00    -0.436 OA
BRANCH   7   9
ATOM      8  N   UNL     1      32.816 -21.814 -19.550  0.00  0.00    -0.210 NA
ATOM      9  C   UNL     1      33.727 -22.652 -19.007  0.00  0.00    +0.230 C 
ATOM     10  C   UNL     1      35.098 -22.475 -19.103  0.00  0.00    +0.058 C 
ATOM     11  C   UNL     1      34.656 -20.480 -20.371  0.00  0.00    +0.091 C 
ATOM     12  C   UNL     1      35.564 -21.365 -19.799  0.00  0.00    +0.010 C 
ATOM     13  C   UNL     1      33.306 -20.746 -20.220  0.00  0.00    +0.106 C 
BRANCH  11  17
ATOM     14  F   UNL     1      34.557 -18.113 -20.705  0.00  0.00    -0.166 F 
ATOM     15  F   UNL     1      36.472 -19.074 -21.040  0.00  0.00    -0.166 F 
ATOM     16  F   UNL     1      34.851 -19.361 -22.461  0.00  0.00    -0.166 F 
ATOM     17  C   UNL     1      35.124 -19.285 -21.125  0.00  0.00    +0.420 C 
ENDBRANCH  11  17
ENDBRANCH   7   9
ENDBRANCH   4   7
BRANCH   1  18
ATOM     18  C   UNL     1      35.106 -24.052 -13.798  0.00  0.00    +0.027 C 
BRANCH  18  21
ATOM     19  O   UNL     1      41.191 -24.949 -14.170  0.00  0.00    -0.226 OA
ATOM     20  N   UNL     1      39.013 -25.662 -14.570  0.00  0.00    -0.246 N 
ATOM     21  C   UNL     1      36.270 -24.721 -14.525  0.00  0.00    +0.008 C 
ATOM     22  C   UNL     1      37.459 -23.756 -14.661  0.00  0.00    +0.022 C 
ATOM     23  C   UNL     1      36.702 -26.005 -13.798  0.00  0.00    +0.022 C 
ATOM     24  C   UNL     1      38.661 -24.445 -15.306  0.00  0.00    +0.097 C 
ATOM     25  C   UNL     1      37.919 -26.637 -14.473  0.00  0.00    +0.097 C 
ATOM     26  C   UNL     1      40.305 -25.796 -14.052  0.00  0.00    +0.402 C 
BRANCH  26  27
ATOM     27  O   UNL     1      40.568 -26.947 -13.369  0.00  0.00    -0.466 OA
ATOM     28  H   UNL     1      40.908 -27.692 -13.823  0.00  0.00    +0.297 HD
ENDBRANCH  26  27
ENDBRANCH  18  21
ENDBRANCH   1  18
TORSDOF 6
ENDMDL
MODEL 2
REMARK VINA RESULT:     -11.0      4.982      8.655
REMARK  Name = 25243828
REMARK  6 active torsions:
REMARK  status: ('A' for Active; 'I' for Inactive)
REMARK    1  A    between atoms: C_1  and  C_18
REMARK    2  A    between atoms: C_4  and  O_7
REMARK    3  A    between atoms: O_7  and  C_9
REMARK    4  A    between atoms: C_11  and  C_17
REMARK    5  A    between atoms: C_18  and  C_21
REMARK    6  A    between atoms: C_26  and  O_27
REMARK                            x       y       z     vdW  Elec       q    Type
REMARK                         _______ _______ _______ _____ _____    ______ ____
ROOT
ATOM      1  C   UNL     1      35.420 -18.658 -22.090  0.00  0.00    -0.019 C 
ATOM      2  C   UNL     1      35.503 -17.269 -22.175  0.00  0.00    +0.033 C 
ATOM      3  C   UNL     1      34.899 -19.393 -23.156  0.00  0.00    -0.004 C 
ATOM      4  C   UNL     1      35.065 -16.613 -23.326  0.00  0.00    +0.147 C 
ATOM      5  C   UNL     1      34.461 -18.737 -24.306  0.00  0.00    +0.003 C 
ATOM      6  C   UNL     1      34.544 -17.347 -24.392  0.00  0.00    +0.038 C 
ENDROOT
BRANCH   4   7
ATOM      7  O   UNL     1      35.144 -15.257 -23.409  0.00  0.00    -0.436 OA
BRANCH   7   9
ATOM      8  N   UNL     1      33.793 -13.370 -23.174  0.00  0.00    -0.210 NA
ATOM      9  C   UNL     1      34.272 -14.512 -22.633  0.00  0.00    +0.230 C 
ATOM     10  C   UNL     1      33.941 -14.969 -21.367  0.00  0.00    +0.058 C 
ATOM     11  C   UNL     1      32.547 -13.022 -21.132  0.00  0.00    +0.091 C 
ATOM     12  C   UNL     1      33.060 -14.204 -20.609  0.00  0.00    +0.010 C 
ATOM     13  C   UNL     1      32.941 -12.652 -22.408  0.00  0.00    +0.106 C 
BRANCH  11  17
ATOM     14  F   UNL     1      30.324 -12.194 -20.823  0.00  0.00    -0.166 F 
ATOM     15  F   UNL     1      31.497 -12.557 -19.034  0.00  0.00    -0.166 F 
ATOM     16  F   UNL     1      31.968 -10.865 -20.317  0.00  0.00    -0.166 F 
ATOM     17  C   UNL     1      31.605 -12.181 -20.345  0.00  0.00    +0.420 C 
ENDBRANCH  11  17
ENDBRANCH   7   9
ENDBRANCH   4   7
BRANCH   1  18
ATOM     18  C   UNL     1      35.890 -19.367 -20.849  0.00  0.00    +0.027 C 
BRANCH  18  21
ATOM     19  O   UNL     1      33.815 -23.564 -16.843  0.00  0.00    -0.226 OA
ATOM     20  N   UNL     1      33.659 -22.471 -18.891  0.00  0.00    -0.246 N 
ATOM     21  C   UNL     1      35.131 -20.673 -20.625  0.00  0.00    +0.008 C 
ATOM     22  C   UNL     1      35.833 -21.540 -19.568  0.00  0.00    +0.022 C 
ATOM     23  C   UNL     1      33.676 -20.395 -20.211  0.00  0.00    +0.022 C 
ATOM     24  C   UNL     1      35.034 -22.807 -19.270  0.00  0.00    +0.097 C 
ATOM     25  C   UNL     1      32.933 -21.695 -19.905  0.00  0.00    +0.097 C 
ATOM     26  C   UNL     1      33.167 -22.905 -17.656  0.00  0.00    +0.402 C 
BRANCH  26  27
ATOM     27  O   UNL     1      31.883 -22.553 -17.357  0.00  0.00    -0.466 OA
ATOM     28  H   UNL     1      31.591 -22.561 -16.467  0.00  0.00    +0.297 HD
ENDBRANCH  26  27
ENDBRANCH  18  21
ENDBRANCH   1  18
TORSDOF 6
ENDMDL
MODEL 3
REMARK VINA RESULT:     -10.7      3.640      5.470
REMARK  Name = 25243828
REMARK  6 active torsions:
REMARK  status: ('A' for Active; 'I' for Inactive)
REMARK    1  A    between atoms: C_1  and  C_18
REMARK    2  A    between atoms: C_4  and  O_7
REMARK    3  A    between atoms: O_7  and  C_9
REMARK    4  A    between atoms: C_11  and  C_17
REMARK    5  A    between atoms: C_18  and  C_21
REMARK    6  A    between atoms: C_26  and  O_27
REMARK                            x       y       z     vdW  Elec       q    Type
REMARK                         _______ _______ _______ _____ _____    ______ ____
ROOT
ATOM      1  C   UNL     1      34.514 -22.105 -19.032  0.00  0.00    -0.019 C 
ATOM      2  C   UNL     1      35.441 -21.287 -19.677  0.00  0.00    +0.033 C 
ATOM      3  C   UNL     1      33.149 -21.931 -19.264  0.00  0.00    -0.004 C 
ATOM      4  C   UNL     1      35.004 -20.293 -20.553  0.00  0.00    +0.147 C 
ATOM      5  C   UNL     1      32.712 -20.937 -20.140  0.00  0.00    +0.003 C 
ATOM      6  C   UNL     1      33.639 -20.118 -20.786  0.00  0.00    +0.038 C 
ENDROOT
BRANCH   4   7
ATOM      7  O   UNL     1      35.908 -19.493 -21.181  0.00  0.00    -0.436 OA
BRANCH   7   9
ATOM      8  N   UNL     1      35.124 -17.335 -20.767  0.00  0.00    -0.210 NA
ATOM      9  C   UNL     1      35.460 -18.279 -21.675  0.00  0.00    +0.230 C 
ATOM     10  C   UNL     1      35.383 -18.098 -23.046  0.00  0.00    +0.058 C 
ATOM     11  C   UNL     1      34.579 -15.874 -22.613  0.00  0.00    +0.091 C 
ATOM     12  C   UNL     1      34.934 -16.869 -23.517  0.00  0.00    +0.010 C 
ATOM     13  C   UNL     1      34.691 -16.153 -21.261  0.00  0.00    +0.106 C 
BRANCH  11  17
ATOM     14  F   UNL     1      32.779 -14.307 -22.789  0.00  0.00    -0.166 F 
ATOM     15  F   UNL     1      34.775 -13.490 -22.553  0.00  0.00    -0.166 F 
ATOM     16  F   UNL     1      34.191 -14.401 -24.440  0.00  0.00    -0.166 F 
ATOM     17  C   UNL     1      34.092 -14.549 -23.086  0.00  0.00    +0.420 C 
ENDBRANCH  11  17
ENDBRANCH   7   9
ENDBRANCH   4   7
BRANCH   1  18
ATOM     18  C   UNL     1      34.983 -23.175 -18.086  0.00  0.00    +0.027 C 
BRANCH  18  21
ATOM     19  O   UNL     1      32.309 -25.430 -13.013  0.00  0.00    -0.226 OA
ATOM     20  N   UNL     1      33.728 -23.900 -14.043  0.00  0.00    -0.246 N 
ATOM     21  C   UNL     1      34.497 -22.920 -16.661  0.00  0.00    +0.008 C 
ATOM     22  C   UNL     1      33.143 -23.604 -16.414  0.00  0.00    +0.022 C 
ATOM     23  C   UNL     1      35.536 -23.400 -15.635  0.00  0.00    +0.022 C 
ATOM     24  C   UNL     1      32.690 -23.431 -14.965  0.00  0.00    +0.097 C 
ATOM     25  C   UNL     1      35.021 -23.224 -14.207  0.00  0.00    +0.097 C 
ATOM     26  C   UNL     1      33.415 -24.900 -13.116  0.00  0.00    +0.402 C 
BRANCH  26  27
ATOM     27  O   UNL     1      34.426 -25.300 -12.292  0.00  0.00    -0.466 OA
ATOM     28  H   UNL     1      34.322 -25.242 -11.363  0.00  0.00    +0.297 HD
ENDBRANCH  26  27
ENDBRANCH  18  21
ENDBRANCH   1  18
TORSDOF 6
ENDMDL
MODEL 4
REMARK VINA RESULT:     -10.6      5.638     10.844
REMARK  Name = 25243828
REMARK  6 active torsions:
REMARK  status: ('A' for Active; 'I' for Inactive)
REMARK    1  A    between atoms: C_1  and  C_18
REMARK    2  A    between atoms: C_4  and  O_7
REMARK    3  A    between atoms: O_7  and  C_9
REMARK    4  A    between atoms: C_11  and  C_17
REMARK    5  A    between atoms: C_18  and  C_21
REMARK    6  A    between atoms: C_26  and  O_27
REMARK                            x       y       z     vdW  Elec       q    Type
REMARK                         _______ _______ _______ _____ _____    ______ ____
ROOT
ATOM      1  C   UNL     1      35.088 -16.980 -23.003  0.00  0.00    -0.019 C 
ATOM      2  C   UNL     1      35.753 -17.682 -21.998  0.00  0.00    +0.033 C 
ATOM      3  C   UNL     1      34.487 -17.670 -24.056  0.00  0.00    -0.004 C 
ATOM      4  C   UNL     1      35.819 -19.075 -22.047  0.00  0.00    +0.147 C 
ATOM      5  C   UNL     1      34.553 -19.063 -24.105  0.00  0.00    +0.003 C 
ATOM      6  C   UNL     1      35.218 -19.766 -23.100  0.00  0.00    +0.038 C 
ENDROOT
BRANCH   4   7
ATOM      7  O   UNL     1      36.470 -19.761 -21.068  0.00  0.00    -0.436 OA
BRANCH   7   9
ATOM      8  N   UNL     1      36.389 -21.342 -19.354  0.00  0.00    -0.210 NA
ATOM      9  C   UNL     1      35.715 -20.576 -20.241  0.00  0.00    +0.230 C 
ATOM     10  C   UNL     1      34.335 -20.562 -20.363  0.00  0.00    +0.058 C 
ATOM     11  C   UNL     1      34.257 -22.189 -18.593  0.00  0.00    +0.091 C 
ATOM     12  C   UNL     1      33.599 -21.387 -19.518  0.00  0.00    +0.010 C 
ATOM     13  C   UNL     1      35.641 -22.131 -18.551  0.00  0.00    +0.106 C 
BRANCH  11  17
ATOM     14  F   UNL     1      32.192 -22.718 -17.507  0.00  0.00    -0.166 F 
ATOM     15  F   UNL     1      33.448 -24.385 -18.096  0.00  0.00    -0.166 F 
ATOM     16  F   UNL     1      34.029 -23.128 -16.420  0.00  0.00    -0.166 F 
ATOM     17  C   UNL     1      33.498 -23.084 -17.677  0.00  0.00    +0.420 C 
ENDBRANCH  11  17
ENDBRANCH   7   9
ENDBRANCH   4   7
BRANCH   1  18
ATOM     18  C   UNL     1      35.018 -15.479 -22.953  0.00  0.00    +0.027 C 
BRANCH  18  21
ATOM     19  O   UNL     1      31.787 -12.095 -18.943  0.00  0.00    -0.226 OA
ATOM     20  N   UNL     1      32.004 -13.096 -21.032  0.00  0.00    -0.246 N 
ATOM     21  C   UNL     1      33.649 -14.994 -22.481  0.00  0.00    +0.008 C 
ATOM     22  C   UNL     1      33.566 -14.996 -20.947  0.00  0.00    +0.022 C 
ATOM     23  C   UNL     1      33.346 -13.592 -23.034  0.00  0.00    +0.022 C 
ATOM     24  C   UNL     1      32.233 -14.427 -20.463  0.00  0.00    +0.097 C 
ATOM     25  C   UNL     1      32.014 -13.066 -22.500  0.00  0.00    +0.097 C 
ATOM     26  C   UNL     1      31.795 -12.014 -20.171  0.00  0.00    +0.402 C 
BRANCH  26  27
ATOM     27  O   UNL     1      31.597 -10.800 -20.761  0.00  0.00    -0.466 OA
ATOM     28  H   UNL     1      30.728 -10.507 -20.949  0.00  0.00    +0.297 HD
ENDBRANCH  26  27
ENDBRANCH  18  21
ENDBRANCH   1  18
TORSDOF 6
ENDMDL
MODEL 5
REMARK VINA RESULT:     -10.6      6.303     11.364
REMARK  Name = 25243828
REMARK  6 active torsions:
REMARK  status: ('A' for Active; 'I' for Inactive)
REMARK    1  A    between atoms: C_1  and  C_18
REMARK    2  A    between atoms: C_4  and  O_7
REMARK    3  A    between atoms: O_7  and  C_9
REMARK    4  A    between atoms: C_11  and  C_17
REMARK    5  A    between atoms: C_18  and  C_21
REMARK    6  A    between atoms: C_26  and  O_27
REMARK                            x       y       z     vdW  Elec       q    Type
REMARK                         _______ _______ _______ _____ _____    ______ ____
ROOT
ATOM      1  C   UNL     1      34.772 -16.476 -21.568  0.00  0.00    -0.019 C 
ATOM      2  C   UNL     1      35.427 -17.539 -20.948  0.00  0.00    +0.033 C 
ATOM      3  C   UNL     1      34.532 -16.509 -22.942  0.00  0.00    -0.004 C 
ATOM      4  C   UNL     1      35.843 -18.637 -21.702  0.00  0.00    +0.147 C 
ATOM      5  C   UNL     1      34.948 -17.606 -23.696  0.00  0.00    +0.003 C 
ATOM      6  C   UNL     1      35.603 -18.671 -23.077  0.00  0.00    +0.038 C 
ENDROOT
BRANCH   4   7
ATOM      7  O   UNL     1      36.484 -19.675 -21.099  0.00  0.00    -0.436 OA
BRANCH   7   9
ATOM      8  N   UNL     1      36.414 -21.212 -19.346  0.00  0.00    -0.210 NA
ATOM      9  C   UNL     1      35.738 -20.503 -20.277  0.00  0.00    +0.230 C 
ATOM     10  C   UNL     1      34.364 -20.559 -20.448  0.00  0.00    +0.058 C 
ATOM     11  C   UNL     1      34.298 -22.141 -18.638  0.00  0.00    +0.091 C 
ATOM     12  C   UNL     1      33.637 -21.396 -19.608  0.00  0.00    +0.010 C 
ATOM     13  C   UNL     1      35.674 -22.015 -18.548  0.00  0.00    +0.106 C 
BRANCH  11  17
ATOM     14  F   UNL     1      33.486 -24.341 -18.163  0.00  0.00    -0.166 F 
ATOM     15  F   UNL     1      34.080 -23.124 -16.468  0.00  0.00    -0.166 F 
ATOM     16  F   UNL     1      32.250 -22.662 -17.547  0.00  0.00    -0.166 F 
ATOM     17  C   UNL     1      33.548 -23.047 -17.726  0.00  0.00    +0.420 C 
ENDBRANCH  11  17
ENDBRANCH   7   9
ENDBRANCH   4   7
BRANCH   1  18
ATOM     18  C   UNL     1      34.325 -15.291 -20.757  0.00  0.00    +0.027 C 
BRANCH  18  21
ATOM     19  O   UNL     1      31.626  -9.776 -21.283  0.00  0.00    -0.226 OA
ATOM     20  N   UNL     1      32.443 -11.729 -22.248  0.00  0.00    -0.246 N 
ATOM     21  C   UNL     1      33.398 -14.379 -21.557  0.00  0.00    +0.008 C 
ATOM     22  C   UNL     1      32.480 -13.575 -20.621  0.00  0.00    +0.022 C 
ATOM     23  C   UNL     1      34.207 -13.432 -22.459  0.00  0.00    +0.022 C 
ATOM     24  C   UNL     1      31.611 -12.593 -21.406  0.00  0.00    +0.097 C 
ATOM     25  C   UNL     1      33.290 -12.461 -23.200  0.00  0.00    +0.097 C 
ATOM     26  C   UNL     1      32.361 -10.342 -22.092  0.00  0.00    +0.402 C 
BRANCH  26  27
ATOM     27  O   UNL     1      33.167  -9.593 -22.898  0.00  0.00    -0.466 OA
ATOM     28  H   UNL     1      33.102  -8.658 -22.886  0.00  0.00    +0.297 HD
ENDBRANCH  26  27
ENDBRANCH  18  21
ENDBRANCH   1  18
TORSDOF 6
ENDMDL
MODEL 6
REMARK VINA RESULT:     -10.5      3.544      5.346
REMARK  Name = 25243828
REMARK  6 active torsions:
REMARK  status: ('A' for Active; 'I' for Inactive)
REMARK    1  A    between atoms: C_1  and  C_18
REMARK    2  A    between atoms: C_4  and  O_7
REMARK    3  A    between atoms: O_7  and  C_9
REMARK    4  A    between atoms: C_11  and  C_17
REMARK    5  A    between atoms: C_18  and  C_21
REMARK    6  A    between atoms: C_26  and  O_27
REMARK                            x       y       z     vdW  Elec       q    Type
REMARK                         _______ _______ _______ _____ _____    ______ ____
ROOT
ATOM      1  C   UNL     1      34.896 -21.690 -19.488  0.00  0.00    -0.019 C 
ATOM      2  C   UNL     1      35.684 -20.795 -20.211  0.00  0.00    +0.033 C 
ATOM      3  C   UNL     1      33.507 -21.559 -19.493  0.00  0.00    -0.004 C 
ATOM      4  C   UNL     1      35.083 -19.768 -20.939  0.00  0.00    +0.147 C 
ATOM      5  C   UNL     1      32.906 -20.532 -20.221  0.00  0.00    +0.003 C 
ATOM      6  C   UNL     1      33.694 -19.637 -20.945  0.00  0.00    +0.038 C 
ENDROOT
BRANCH   4   7
ATOM      7  O   UNL     1      35.851 -18.892 -21.643  0.00  0.00    -0.436 OA
BRANCH   7   9
ATOM      8  N   UNL     1      35.164 -17.413 -23.312  0.00  0.00    -0.210 NA
ATOM      9  C   UNL     1      35.287 -17.676 -21.991  0.00  0.00    +0.230 C 
ATOM     10  C   UNL     1      34.885 -16.810 -20.987  0.00  0.00    +0.058 C 
ATOM     11  C   UNL     1      34.176 -15.290 -22.711  0.00  0.00    +0.091 C 
ATOM     12  C   UNL     1      34.318 -15.596 -21.363  0.00  0.00    +0.010 C 
ATOM     13  C   UNL     1      34.610 -16.224 -23.638  0.00  0.00    +0.106 C 
BRANCH  11  17
ATOM     14  F   UNL     1      32.834 -13.383 -22.175  0.00  0.00    -0.166 F 
ATOM     15  F   UNL     1      34.499 -13.066 -23.530  0.00  0.00    -0.166 F 
ATOM     16  F   UNL     1      32.734 -14.138 -24.211  0.00  0.00    -0.166 F 
ATOM     17  C   UNL     1      33.576 -13.999 -23.145  0.00  0.00    +0.420 C 
ENDBRANCH  11  17
ENDBRANCH   7   9
ENDBRANCH   4   7
BRANCH   1  18
ATOM     18  C   UNL     1      35.543 -22.796 -18.701  0.00  0.00    +0.027 C 
BRANCH  18  21
ATOM     19  O   UNL     1      35.969 -24.757 -12.875  0.00  0.00    -0.226 OA
ATOM     20  N   UNL     1      36.380 -23.146 -14.502  0.00  0.00    -0.246 N 
ATOM     21  C   UNL     1      35.674 -22.434 -17.223  0.00  0.00    +0.008 C 
ATOM     22  C   UNL     1      34.774 -23.330 -16.358  0.00  0.00    +0.022 C 
ATOM     23  C   UNL     1      37.137 -22.539 -16.763  0.00  0.00    +0.022 C 
ATOM     24  C   UNL     1      34.966 -23.037 -14.870  0.00  0.00    +0.097 C 
ATOM     25  C   UNL     1      37.265 -22.258 -15.267  0.00  0.00    +0.097 C 
ATOM     26  C   UNL     1      36.755 -24.039 -13.493  0.00  0.00    +0.402 C 
BRANCH  26  27
ATOM     27  O   UNL     1      38.086 -24.102 -13.203  0.00  0.00    -0.466 OA
ATOM     28  H   UNL     1      38.647 -23.386 -13.426  0.00  0.00    +0.297 HD
ENDBRANCH  26  27
ENDBRANCH  18  21
ENDBRANCH   1  18
TORSDOF 6
ENDMDL
MODEL 7
REMARK VINA RESULT:      -9.8      7.174     12.121
REMARK  Name = 25243828
REMARK  6 active torsions:
REMARK  status: ('A' for Active; 'I' for Inactive)
REMARK    1  A    between atoms: C_1  and  C_18
REMARK    2  A    between atoms: C_4  and  O_7
REMARK    3  A    between atoms: O_7  and  C_9
REMARK    4  A    between atoms: C_11  and  C_17
REMARK    5  A    between atoms: C_18  and  C_21
REMARK    6  A    between atoms: C_26  and  O_27
REMARK                            x       y       z     vdW  Elec       q    Type
REMARK                         _______ _______ _______ _____ _____    ______ ____
ROOT
ATOM      1  C   UNL     1      33.469 -14.902 -22.005  0.00  0.00    -0.019 C 
ATOM      2  C   UNL     1      34.460 -15.882 -22.004  0.00  0.00    +0.033 C 
ATOM      3  C   UNL     1      32.963 -14.421 -23.214  0.00  0.00    -0.004 C 
ATOM      4  C   UNL     1      34.947 -16.383 -23.212  0.00  0.00    +0.147 C 
ATOM      5  C   UNL     1      33.450 -14.922 -24.421  0.00  0.00    +0.003 C 
ATOM      6  C   UNL     1      34.442 -15.903 -24.421  0.00  0.00    +0.038 C 
ENDROOT
BRANCH   4   7
ATOM      7  O   UNL     1      35.917 -17.338 -23.212  0.00  0.00    -0.436 OA
BRANCH   7   9
ATOM      8  N   UNL     1      36.867 -18.608 -21.502  0.00  0.00    -0.210 NA
ATOM      9  C   UNL     1      35.801 -18.373 -22.300  0.00  0.00    +0.230 C 
ATOM     10  C   UNL     1      34.622 -19.099 -22.252  0.00  0.00    +0.058 C 
ATOM     11  C   UNL     1      35.606 -20.403 -20.487  0.00  0.00    +0.091 C 
ATOM     12  C   UNL     1      34.530 -20.132 -21.325  0.00  0.00    +0.010 C 
ATOM     13  C   UNL     1      36.741 -19.620 -20.614  0.00  0.00    +0.106 C 
BRANCH  11  17
ATOM     14  F   UNL     1      34.315 -21.631 -18.891  0.00  0.00    -0.166 F 
ATOM     15  F   UNL     1      35.810 -22.738 -20.007  0.00  0.00    -0.166 F 
ATOM     16  F   UNL     1      36.425 -21.339 -18.460  0.00  0.00    -0.166 F 
ATOM     17  C   UNL     1      35.539 -21.502 -19.486  0.00  0.00    +0.420 C 
ENDBRANCH  11  17
ENDBRANCH   7   9
ENDBRANCH   4   7
BRANCH   1  18
ATOM     18  C   UNL     1      32.944 -14.360 -20.704  0.00  0.00    +0.027 C 
BRANCH  18  21
ATOM     19  O   UNL     1      31.800  -8.539 -19.037  0.00  0.00    -0.226 OA
ATOM     20  N   UNL     1      31.756 -10.233 -20.631  0.00  0.00    -0.246 N 
ATOM     21  C   UNL     1      32.113 -13.096 -20.915  0.00  0.00    +0.008 C 
ATOM     22  C   UNL     1      31.745 -12.452 -19.569  0.00  0.00    +0.022 C 
ATOM     23  C   UNL     1      32.862 -12.091 -21.804  0.00  0.00    +0.022 C 
ATOM     24  C   UNL     1      30.991 -11.138 -19.770  0.00  0.00    +0.097 C 
ATOM     25  C   UNL     1      32.073 -10.791 -21.952  0.00  0.00    +0.097 C 
ATOM     26  C   UNL     1      32.099  -8.964 -20.153  0.00  0.00    +0.402 C 
BRANCH  26  27
ATOM     27  O   UNL     1      32.819  -8.172 -20.997  0.00  0.00    -0.466 OA
ATOM     28  H   UNL     1      32.397  -7.758 -21.724  0.00  0.00    +0.297 HD
ENDBRANCH  26  27
ENDBRANCH  18  21
ENDBRANCH   1  18
TORSDOF 6
ENDMDL
MODEL 8
REMARK VINA RESULT:      -9.7     10.685     14.324
REMARK  Name = 25243828
REMARK  6 active torsions:
REMARK  status: ('A' for Active; 'I' for Inactive)
REMARK    1  A    between atoms: C_1  and  C_18
REMARK    2  A    between atoms: C_4  and  O_7
REMARK    3  A    between atoms: O_7  and  C_9
REMARK    4  A    between atoms: C_11  and  C_17
REMARK    5  A    between atoms: C_18  and  C_21
REMARK    6  A    between atoms: C_26  and  O_27
REMARK                            x       y       z     vdW  Elec       q    Type
REMARK                         _______ _______ _______ _____ _____    ______ ____
ROOT
ATOM      1  C   UNL     1      31.985 -12.435 -20.578  0.00  0.00    -0.019 C 
ATOM      2  C   UNL     1      32.230 -11.707 -21.742  0.00  0.00    +0.033 C 
ATOM      3  C   UNL     1      31.636 -11.772 -19.400  0.00  0.00    -0.004 C 
ATOM      4  C   UNL     1      32.128 -10.316 -21.729  0.00  0.00    +0.147 C 
ATOM      5  C   UNL     1      31.534 -10.381 -19.387  0.00  0.00    +0.003 C 
ATOM      6  C   UNL     1      31.779  -9.652 -20.552  0.00  0.00    +0.038 C 
ENDROOT
BRANCH   4   7
ATOM      7  O   UNL     1      32.369  -9.604 -22.863  0.00  0.00    -0.436 OA
BRANCH   7   9
ATOM      8  N   UNL     1      30.734  -7.942 -22.931  0.00  0.00    -0.210 NA
ATOM      9  C   UNL     1      32.047  -8.257 -22.860  0.00  0.00    +0.230 C 
ATOM     10  C   UNL     1      33.066  -7.323 -22.785  0.00  0.00    +0.058 C 
ATOM     11  C   UNL     1      31.376  -5.613 -22.851  0.00  0.00    +0.091 C 
ATOM     12  C   UNL     1      32.716  -5.976 -22.780  0.00  0.00    +0.010 C 
ATOM     13  C   UNL     1      30.432  -6.624 -22.925  0.00  0.00    +0.106 C 
BRANCH  11  17
ATOM     14  F   UNL     1      32.017  -3.311 -22.721  0.00  0.00    -0.166 F 
ATOM     15  F   UNL     1      30.327  -3.791 -23.993  0.00  0.00    -0.166 F 
ATOM     16  F   UNL     1      30.115  -3.874 -21.831  0.00  0.00    -0.166 F 
ATOM     17  C   UNL     1      30.970  -4.181 -22.851  0.00  0.00    +0.420 C 
ENDBRANCH  11  17
ENDBRANCH   7   9
ENDBRANCH   4   7
BRANCH   1  18
ATOM     18  C   UNL     1      32.096 -13.935 -20.590  0.00  0.00    +0.027 C 
BRANCH  18  21
ATOM     19  O   UNL     1      35.129 -18.554 -23.317  0.00  0.00    -0.226 OA
ATOM     20  N   UNL     1      34.716 -16.278 -23.058  0.00  0.00    -0.246 N 
ATOM     21  C   UNL     1      33.355 -14.400 -21.318  0.00  0.00    +0.008 C 
ATOM     22  C   UNL     1      33.786 -15.793 -20.833  0.00  0.00    +0.022 C 
ATOM     23  C   UNL     1      33.134 -14.406 -22.840  0.00  0.00    +0.022 C 
ATOM     24  C   UNL     1      34.991 -16.306 -21.619  0.00  0.00    +0.097 C 
ATOM     25  C   UNL     1      34.361 -14.949 -23.572  0.00  0.00    +0.097 C 
ATOM     26  C   UNL     1      34.818 -17.463 -23.795  0.00  0.00    +0.402 C 
BRANCH  26  27
ATOM     27  O   UNL     1      34.540 -17.373 -25.128  0.00  0.00    -0.466 OA
ATOM     28  H   UNL     1      34.111 -18.082 -25.564  0.00  0.00    +0.297 HD
ENDBRANCH  26  27
ENDBRANCH  18  21
ENDBRANCH   1  18
TORSDOF 6
ENDMDL
MODEL 9
REMARK VINA RESULT:      -9.7      4.157      7.920
REMARK  Name = 25243828
REMARK  6 active torsions:
REMARK  status: ('A' for Active; 'I' for Inactive)
REMARK    1  A    between atoms: C_1  and  C_18
REMARK    2  A    between atoms: C_4  and  O_7
REMARK    3  A    between atoms: O_7  and  C_9
REMARK    4  A    between atoms: C_11  and  C_17
REMARK    5  A    between atoms: C_18  and  C_21
REMARK    6  A    between atoms: C_26  and  O_27
REMARK                            x       y       z     vdW  Elec       q    Type
REMARK                         _______ _______ _______ _____ _____    ______ ____
ROOT
ATOM      1  C   UNL     1      33.382 -23.343 -17.238  0.00  0.00    -0.019 C 
ATOM      2  C   UNL     1      34.087 -23.690 -16.087  0.00  0.00    +0.033 C 
ATOM      3  C   UNL     1      32.021 -23.046 -17.161  0.00  0.00    -0.004 C 
ATOM      4  C   UNL     1      33.431 -23.742 -14.856  0.00  0.00    +0.147 C 
ATOM      5  C   UNL     1      31.365 -23.098 -15.931  0.00  0.00    +0.003 C 
ATOM      6  C   UNL     1      32.070 -23.445 -14.778  0.00  0.00    +0.038 C 
ENDROOT
BRANCH   4   7
ATOM      7  O   UNL     1      34.117 -24.082 -13.732  0.00  0.00    -0.436 OA
BRANCH   7   9
ATOM      8  N   UNL     1      36.388 -23.642 -13.431  0.00  0.00    -0.210 NA
ATOM      9  C   UNL     1      35.433 -24.488 -13.878  0.00  0.00    +0.230 C 
ATOM     10  C   UNL     1      35.697 -25.716 -14.463  0.00  0.00    +0.058 C 
ATOM     11  C   UNL     1      38.037 -25.259 -14.148  0.00  0.00    +0.091 C 
ATOM     12  C   UNL     1      37.026 -26.102 -14.596  0.00  0.00    +0.010 C 
ATOM     13  C   UNL     1      37.669 -24.051 -13.578  0.00  0.00    +0.106 C 
BRANCH  11  17
ATOM     14  F   UNL     1      39.663 -26.975 -14.517  0.00  0.00    -0.166 F 
ATOM     15  F   UNL     1      40.119 -25.002 -15.296  0.00  0.00    -0.166 F 
ATOM     16  F   UNL     1      40.194 -25.367 -13.154  0.00  0.00    -0.166 F 
ATOM     17  C   UNL     1      39.469 -25.642 -14.278  0.00  0.00    +0.420 C 
ENDBRANCH  11  17
ENDBRANCH   7   9
ENDBRANCH   4   7
BRANCH   1  18
ATOM     18  C   UNL     1      34.087 -23.288 -18.566  0.00  0.00    +0.027 C 
BRANCH  18  21
ATOM     19  O   UNL     1      36.558 -19.488 -22.740  0.00  0.00    -0.226 OA
ATOM     20  N   UNL     1      35.011 -19.912 -21.055  0.00  0.00    -0.246 N 
ATOM     21  C   UNL     1      34.366 -21.851 -18.997  0.00  0.00    +0.008 C 
ATOM     22  C   UNL     1      35.785 -21.716 -19.572  0.00  0.00    +0.022 C 
ATOM     23  C   UNL     1      33.324 -21.376 -20.023  0.00  0.00    +0.022 C 
ATOM     24  C   UNL     1      36.042 -20.302 -20.090  0.00  0.00    +0.097 C 
ATOM     25  C   UNL     1      33.643 -19.967 -20.521  0.00  0.00    +0.097 C 
ATOM     26  C   UNL     1      35.393 -19.526 -22.343  0.00  0.00    +0.402 C 
BRANCH  26  27
ATOM     27  O   UNL     1      34.386 -19.183 -23.197  0.00  0.00    -0.466 OA
ATOM     28  H   UNL     1      33.504 -19.137 -22.886  0.00  0.00    +0.297 HD
ENDBRANCH  26  27
ENDBRANCH  18  21
ENDBRANCH   1  18
TORSDOF 6
ENDMDL
