MODEL 1
REMARK VINA RESULT:     -11.9      0.000      0.000
REMARK  Name = 59473233
REMARK  3 active torsions:
REMARK  status: ('A' for Active; 'I' for Inactive)
REMARK    1  A    between atoms: N_1  and  C_25
REMARK    2  A    between atoms: C_7  and  C_14
REMARK    3  A    between atoms: C_22  and  N_29
REMARK                            x       y       z     vdW  Elec       q    Type
REMARK                         _______ _______ _______ _____ _____    ______ ____
ROOT
ATOM      1  N   UNL     1      36.578 -23.553 -15.744  0.00  0.00    -0.286 N 
ATOM      2  N   UNL     1      35.070 -24.346 -12.458  0.00  0.00    -0.260 N 
ATOM      3  N   UNL     1      34.359 -23.892 -15.095  0.00  0.00    -0.387 NA
ATOM      4  N   UNL     1      37.237 -24.059 -12.899  0.00  0.00    -0.224 NA
ATOM      5  C   UNL     1      35.638 -23.835 -14.779  0.00  0.00    +0.216 C 
ATOM      6  C   UNL     1      36.025 -24.073 -13.403  0.00  0.00    +0.180 C 
ATOM      7  C   UNL     1      33.415 -24.179 -14.110  0.00  0.00    +0.131 C 
ATOM      8  C   UNL     1      33.738 -24.399 -12.816  0.00  0.00    +0.156 C 
ATOM      9  C   UNL     1      35.717 -24.518 -11.267  0.00  0.00    +0.088 C 
ATOM     10  C   UNL     1      37.051 -24.337 -11.565  0.00  0.00    +0.117 C 
ATOM     11  H   UNL     1      37.472 -23.945 -15.616  0.00  0.00    +0.155 HD
ENDROOT
BRANCH   7  14
ATOM     12  N   UNL     1      29.465 -22.734 -16.807  0.00  0.00    -0.236 N 
ATOM     13  N   UNL     1      28.173 -23.097 -16.859  0.00  0.00    -0.180 NA
ATOM     14  C   UNL     1      31.995 -24.216 -14.526  0.00  0.00    +0.028 C 
ATOM     15  C   UNL     1      30.205 -23.424 -15.884  0.00  0.00    +0.067 C 
ATOM     16  C   UNL     1      31.553 -23.347 -15.529  0.00  0.00    +0.018 C 
ATOM     17  C   UNL     1      29.313 -24.311 -15.289  0.00  0.00    +0.035 C 
ATOM     18  C   UNL     1      31.121 -25.115 -13.912  0.00  0.00    +0.002 C 
ATOM     19  C   UNL     1      29.772 -25.177 -14.283  0.00  0.00    +0.003 C 
ATOM     20  C   UNL     1      28.084 -24.055 -15.935  0.00  0.00    +0.119 C 
ATOM     21  H   UNL     1      29.847 -22.032 -17.381  0.00  0.00    +0.174 HD
ENDBRANCH   7  14
BRANCH   1  25
ATOM     22  C   UNL     1      36.029 -21.211 -19.165  0.00  0.00    +0.048 C 
ATOM     23  C   UNL     1      37.172 -21.046 -18.382  0.00  0.00    +0.016 C 
ATOM     24  C   UNL     1      35.069 -22.158 -18.805  0.00  0.00    +0.016 C 
ATOM     25  C   UNL     1      36.394 -22.772 -16.882  0.00  0.00    +0.050 C 
ATOM     26  C   UNL     1      37.355 -21.826 -17.240  0.00  0.00    +0.016 C 
ATOM     27  C   UNL     1      35.251 -22.938 -17.665  0.00  0.00    +0.016 C 
BRANCH  22  29
ATOM     28  O   UNL     1      35.434 -18.639 -22.436  0.00  0.00    -0.350 OA
ATOM     29  N   UNL     1      35.846 -20.428 -20.309  0.00  0.00    -0.303 N 
ATOM     30  C   UNL     1      36.822 -19.366 -20.585  0.00  0.00    +0.123 C 
ATOM     31  C   UNL     1      34.492 -20.180 -20.817  0.00  0.00    +0.123 C 
ATOM     32  C   UNL     1      36.767 -18.987 -22.061  0.00  0.00    +0.164 C 
ATOM     33  C   UNL     1      34.561 -19.756 -22.280  0.00  0.00    +0.164 C 
ENDBRANCH  22  29
ENDBRANCH   1  25
TORSDOF 3
ENDMDL
MODEL 2
REMARK VINA RESULT:     -10.5      6.324     11.642
REMARK  Name = 59473233
REMARK  3 active torsions:
REMARK  status: ('A' for Active; 'I' for Inactive)
REMARK    1  A    between atoms: N_1  and  C_25
REMARK    2  A    between atoms: C_7  and  C_14
REMARK    3  A    between atoms: C_22  and  N_29
REMARK                            x       y       z     vdW  Elec       q    Type
REMARK                         _______ _______ _______ _____ _____    ______ ____
ROOT
ATOM      1  N   UNL     1      35.109 -16.657 -24.021  0.00  0.00    -0.286 N 
ATOM      2  N   UNL     1      33.237 -13.763 -25.370  0.00  0.00    -0.260 N 
ATOM      3  N   UNL     1      33.885 -14.971 -22.965  0.00  0.00    -0.387 NA
ATOM      4  N   UNL     1      34.366 -15.288 -26.543  0.00  0.00    -0.224 NA
ATOM      5  C   UNL     1      34.340 -15.518 -24.075  0.00  0.00    +0.216 C 
ATOM      6  C   UNL     1      34.010 -14.894 -25.341  0.00  0.00    +0.180 C 
ATOM      7  C   UNL     1      33.107 -13.815 -23.030  0.00  0.00    +0.131 C 
ATOM      8  C   UNL     1      32.774 -13.211 -24.193  0.00  0.00    +0.156 C 
ATOM      9  C   UNL     1      33.088 -13.408 -26.681  0.00  0.00    +0.088 C 
ATOM     10  C   UNL     1      33.793 -14.363 -27.384  0.00  0.00    +0.117 C 
ATOM     11  H   UNL     1      35.774 -16.775 -24.737  0.00  0.00    +0.155 HD
ENDROOT
BRANCH   7  14
ATOM     12  N   UNL     1      31.445 -10.177 -20.036  0.00  0.00    -0.236 N 
ATOM     13  N   UNL     1      31.063 -10.112 -18.750  0.00  0.00    -0.180 NA
ATOM     14  C   UNL     1      32.618 -13.257 -21.750  0.00  0.00    +0.028 C 
ATOM     15  C   UNL     1      31.839 -11.424 -20.442  0.00  0.00    +0.067 C 
ATOM     16  C   UNL     1      32.296 -11.898 -21.673  0.00  0.00    +0.018 C 
ATOM     17  C   UNL     1      31.698 -12.236 -19.322  0.00  0.00    +0.035 C 
ATOM     18  C   UNL     1      32.487 -14.094 -20.640  0.00  0.00    +0.002 C 
ATOM     19  C   UNL     1      32.026 -13.599 -19.414  0.00  0.00    +0.003 C 
ATOM     20  C   UNL     1      31.218 -11.366 -18.319  0.00  0.00    +0.119 C 
ATOM     21  H   UNL     1      31.444  -9.395 -20.634  0.00  0.00    +0.174 HD
ENDBRANCH   7  14
BRANCH   1  25
ATOM     22  C   UNL     1      34.908 -19.671 -21.129  0.00  0.00    +0.048 C 
ATOM     23  C   UNL     1      35.250 -18.370 -20.759  0.00  0.00    +0.016 C 
ATOM     24  C   UNL     1      34.634 -19.966 -22.465  0.00  0.00    +0.016 C 
ATOM     25  C   UNL     1      35.044 -17.661 -23.059  0.00  0.00    +0.050 C 
ATOM     26  C   UNL     1      35.318 -17.364 -21.724  0.00  0.00    +0.016 C 
ATOM     27  C   UNL     1      34.702 -18.962 -23.429  0.00  0.00    +0.016 C 
BRANCH  22  29
ATOM     28  O   UNL     1      34.767 -22.884 -18.422  0.00  0.00    -0.350 OA
ATOM     29  N   UNL     1      34.841 -20.679 -20.162  0.00  0.00    -0.303 N 
ATOM     30  C   UNL     1      36.075 -21.400 -19.824  0.00  0.00    +0.123 C 
ATOM     31  C   UNL     1      33.602 -21.446 -19.990  0.00  0.00    +0.123 C 
ATOM     32  C   UNL     1      35.930 -22.057 -18.457  0.00  0.00    +0.164 C 
ATOM     33  C   UNL     1      33.589 -22.102 -18.614  0.00  0.00    +0.164 C 
ENDBRANCH  22  29
ENDBRANCH   1  25
TORSDOF 3
ENDMDL
MODEL 3
REMARK VINA RESULT:      -9.9      2.515      7.085
REMARK  Name = 59473233
REMARK  3 active torsions:
REMARK  status: ('A' for Active; 'I' for Inactive)
REMARK    1  A    between atoms: N_1  and  C_25
REMARK    2  A    between atoms: C_7  and  C_14
REMARK    3  A    between atoms: C_22  and  N_29
REMARK                            x       y       z     vdW  Elec       q    Type
REMARK                         _______ _______ _______ _____ _____    ______ ____
ROOT
ATOM      1  N   UNL     1      33.918 -24.370 -12.877  0.00  0.00    -0.286 N 
ATOM      2  N   UNL     1      37.460 -25.120 -13.642  0.00  0.00    -0.260 N 
ATOM      3  N   UNL     1      35.367 -23.526 -14.503  0.00  0.00    -0.387 NA
ATOM      4  N   UNL     1      36.221 -26.030 -12.026  0.00  0.00    -0.224 NA
ATOM      5  C   UNL     1      35.153 -24.332 -13.482  0.00  0.00    +0.216 C 
ATOM      6  C   UNL     1      36.241 -25.170 -13.019  0.00  0.00    +0.180 C 
ATOM      7  C   UNL     1      36.623 -23.495 -15.110  0.00  0.00    +0.131 C 
ATOM      8  C   UNL     1      37.657 -24.268 -14.710  0.00  0.00    +0.156 C 
ATOM      9  C   UNL     1      38.278 -26.009 -13.003  0.00  0.00    +0.088 C 
ATOM     10  C   UNL     1      37.492 -26.557 -12.012  0.00  0.00    +0.117 C 
ATOM     11  H   UNL     1      33.903 -24.592 -11.918  0.00  0.00    +0.155 HD
ENDROOT
BRANCH   7  14
ATOM     12  N   UNL     1      35.508 -21.653 -19.618  0.00  0.00    -0.236 N 
ATOM     13  N   UNL     1      36.003 -20.668 -20.385  0.00  0.00    -0.180 NA
ATOM     14  C   UNL     1      36.795 -22.578 -16.258  0.00  0.00    +0.028 C 
ATOM     15  C   UNL     1      36.150 -21.806 -18.418  0.00  0.00    +0.067 C 
ATOM     16  C   UNL     1      35.944 -22.696 -17.362  0.00  0.00    +0.018 C 
ATOM     17  C   UNL     1      37.144 -20.835 -18.408  0.00  0.00    +0.035 C 
ATOM     18  C   UNL     1      37.803 -21.613 -16.224  0.00  0.00    +0.002 C 
ATOM     19  C   UNL     1      37.993 -20.729 -17.293  0.00  0.00    +0.003 C 
ATOM     20  C   UNL     1      36.998 -20.173 -19.647  0.00  0.00    +0.119 C 
ATOM     21  H   UNL     1      34.751 -22.217 -19.895  0.00  0.00    +0.174 HD
ENDBRANCH   7  14
BRANCH   1  25
ATOM     22  C   UNL     1      30.222 -23.640 -14.692  0.00  0.00    +0.048 C 
ATOM     23  C   UNL     1      31.333 -22.869 -15.037  0.00  0.00    +0.016 C 
ATOM     24  C   UNL     1      30.345 -24.653 -13.741  0.00  0.00    +0.016 C 
ATOM     25  C   UNL     1      32.687 -24.126 -13.480  0.00  0.00    +0.050 C 
ATOM     26  C   UNL     1      32.566 -23.112 -14.430  0.00  0.00    +0.016 C 
ATOM     27  C   UNL     1      31.576 -24.896 -13.135  0.00  0.00    +0.016 C 
BRANCH  22  29
ATOM     28  O   UNL     1      26.626 -22.690 -16.651  0.00  0.00    -0.350 OA
ATOM     29  N   UNL     1      28.986 -23.396 -15.300  0.00  0.00    -0.303 N 
ATOM     30  C   UNL     1      28.884 -23.568 -16.755  0.00  0.00    +0.123 C 
ATOM     31  C   UNL     1      28.068 -22.408 -14.721  0.00  0.00    +0.123 C 
ATOM     32  C   UNL     1      27.424 -23.763 -17.149  0.00  0.00    +0.164 C 
ATOM     33  C   UNL     1      26.652 -22.664 -15.224  0.00  0.00    +0.164 C 
ENDBRANCH  22  29
ENDBRANCH   1  25
TORSDOF 3
ENDMDL
