MODEL 1
REMARK VINA RESULT:     -12.1      0.000      0.000
REMARK  Name = 23635314
REMARK  9 active torsions:
REMARK  status: ('A' for Active; 'I' for Inactive)
REMARK    1  A    between atoms: C_2  and  C_8
REMARK    2  A    between atoms: C_3  and  C_23
REMARK    3  A    between atoms: C_7  and  O_13
REMARK    4  A    between atoms: O_13  and  C_14
REMARK    5  A    between atoms: C_14  and  C_15
REMARK    6  A    between atoms: C_15  and  N_17
REMARK    7  A    between atoms: C_23  and  C_26
REMARK    8  A    between atoms: N_25  and  C_28
REMARK    9  A    between atoms: C_28  and  C_29
REMARK                            x       y       z     vdW  Elec       q    Type
REMARK                         _______ _______ _______ _____ _____    ______ ____
ROOT
ATOM      1  N   UNL     1      35.264 -17.194 -22.694  0.00  0.00    -0.248 NA
ATOM      2  C   UNL     1      34.838 -19.420 -21.858  0.00  0.00    +0.019 C 
ATOM      3  C   UNL     1      34.919 -17.641 -23.922  0.00  0.00    +0.068 C 
ATOM      4  C   UNL     1      34.491 -19.844 -23.135  0.00  0.00    +0.003 C 
ATOM      5  C   UNL     1      35.213 -18.098 -21.690  0.00  0.00    +0.098 C 
ATOM      6  C   UNL     1      34.530 -18.943 -24.193  0.00  0.00    +0.015 C 
ENDROOT
BRANCH   2   8
ATOM      7  C   UNL     1      34.749 -22.089 -18.581  0.00  0.00    +0.138 C 
ATOM      8  C   UNL     1      34.807 -20.333 -20.737  0.00  0.00    +0.002 C 
ATOM      9  C   UNL     1      33.556 -21.649 -19.143  0.00  0.00    +0.037 C 
ATOM     10  C   UNL     1      35.972 -21.658 -19.086  0.00  0.00    +0.037 C 
ATOM     11  C   UNL     1      33.585 -20.769 -20.225  0.00  0.00    +0.003 C 
ATOM     12  C   UNL     1      36.000 -20.778 -20.167  0.00  0.00    +0.003 C 
BRANCH   7  13
ATOM     13  O   UNL     1      34.721 -22.953 -17.518  0.00  0.00    -0.478 OA
BRANCH  13  14
ATOM     14  C   UNL     1      35.773 -22.837 -16.569  0.00  0.00    +0.183 C 
BRANCH  14  15
ATOM     15  C   UNL     1      35.498 -23.786 -15.415  0.00  0.00    -0.029 C 
BRANCH  15  17
ATOM     16  O   UNL     1      38.156 -26.638 -13.860  0.00  0.00    -0.358 OA
ATOM     17  N   UNL     1      36.546 -24.801 -15.320  0.00  0.00    +0.393 N 
ATOM     18  C   UNL     1      37.640 -24.343 -14.452  0.00  0.00    -0.044 C 
ATOM     19  C   UNL     1      36.001 -26.069 -14.817  0.00  0.00    -0.044 C 
ATOM     20  C   UNL     1      38.714 -25.422 -14.360  0.00  0.00    +0.119 C 
ATOM     21  C   UNL     1      37.114 -27.108 -14.715  0.00  0.00    +0.119 C 
ATOM     22  H   UNL     1      36.917 -24.955 -16.258  0.00  0.00    -0.079 HD
ENDBRANCH  15  17
ENDBRANCH  14  15
ENDBRANCH  13  14
ENDBRANCH   7  13
ENDBRANCH   2   8
BRANCH   3  23
ATOM     23  C   UNL     1      34.973 -16.647 -25.034  0.00  0.00    +0.131 C 
BRANCH  23  26
ATOM     24  O   UNL     1      32.926 -15.603 -25.801  0.00  0.00    -0.275 OA
ATOM     25  N   UNL     1      34.011 -14.718 -23.950  0.00  0.00    -0.300 N 
ATOM     26  C   UNL     1      33.852 -15.619 -24.993  0.00  0.00    +0.229 C 
ATOM     27  H   UNL     1      34.790 -14.817 -23.355  0.00  0.00    +0.150 HD
BRANCH  25  28
ATOM     28  C   UNL     1      33.080 -13.643 -23.700  0.00  0.00    +0.116 C 
BRANCH  28  29
ATOM     29  C   UNL     1      32.692 -13.561 -22.252  0.00  0.00    -0.003 C 
ATOM     30  C   UNL     1      32.924 -14.646 -21.416  0.00  0.00    -0.003 C 
ATOM     31  C   UNL     1      32.106 -12.399 -21.762  0.00  0.00    -0.003 C 
ATOM     32  C   UNL     1      32.564 -14.570 -20.070  0.00  0.00    -0.000 C 
ATOM     33  C   UNL     1      31.746 -12.323 -20.416  0.00  0.00    -0.000 C 
ATOM     34  C   UNL     1      31.975 -13.410 -19.571  0.00  0.00    -0.000 C 
ENDBRANCH  28  29
ENDBRANCH  25  28
ENDBRANCH  23  26
ENDBRANCH   3  23
TORSDOF 9
ENDMDL
MODEL 2
REMARK VINA RESULT:     -11.9      2.315      3.323
REMARK  Name = 23635314
REMARK  9 active torsions:
REMARK  status: ('A' for Active; 'I' for Inactive)
REMARK    1  A    between atoms: C_2  and  C_8
REMARK    2  A    between atoms: C_3  and  C_23
REMARK    3  A    between atoms: C_7  and  O_13
REMARK    4  A    between atoms: O_13  and  C_14
REMARK    5  A    between atoms: C_14  and  C_15
REMARK    6  A    between atoms: C_15  and  N_17
REMARK    7  A    between atoms: C_23  and  C_26
REMARK    8  A    between atoms: N_25  and  C_28
REMARK    9  A    between atoms: C_28  and  C_29
REMARK                            x       y       z     vdW  Elec       q    Type
REMARK                         _______ _______ _______ _____ _____    ______ ____
ROOT
ATOM      1  N   UNL     1      35.214 -17.189 -22.479  0.00  0.00    -0.248 NA
ATOM      2  C   UNL     1      34.832 -19.456 -21.739  0.00  0.00    +0.019 C 
ATOM      3  C   UNL     1      34.982 -17.612 -23.741  0.00  0.00    +0.068 C 
ATOM      4  C   UNL     1      34.600 -19.855 -23.050  0.00  0.00    +0.003 C 
ATOM      5  C   UNL     1      35.132 -18.125 -21.507  0.00  0.00    +0.098 C 
ATOM      6  C   UNL     1      34.675 -18.921 -24.076  0.00  0.00    +0.015 C 
ENDROOT
BRANCH   2   8
ATOM      7  C   UNL     1      34.625 -22.227 -18.554  0.00  0.00    +0.138 C 
ATOM      8  C   UNL     1      34.761 -20.404 -20.649  0.00  0.00    +0.002 C 
ATOM      9  C   UNL     1      35.865 -21.830 -19.042  0.00  0.00    +0.037 C 
ATOM     10  C   UNL     1      33.452 -21.722 -19.104  0.00  0.00    +0.037 C 
ATOM     11  C   UNL     1      35.933 -20.916 -20.092  0.00  0.00    +0.003 C 
ATOM     12  C   UNL     1      33.521 -20.808 -20.155  0.00  0.00    +0.003 C 
BRANCH   7  13
ATOM     13  O   UNL     1      34.557 -23.126 -17.521  0.00  0.00    -0.478 OA
BRANCH  13  14
ATOM     14  C   UNL     1      33.275 -23.352 -16.952  0.00  0.00    +0.183 C 
BRANCH  14  15
ATOM     15  C   UNL     1      33.438 -23.593 -15.460  0.00  0.00    -0.029 C 
BRANCH  15  17
ATOM     16  O   UNL     1      29.631 -24.847 -14.215  0.00  0.00    -0.358 OA
ATOM     17  N   UNL     1      32.136 -23.628 -14.797  0.00  0.00    +0.393 N 
ATOM     18  C   UNL     1      31.048 -23.656 -15.784  0.00  0.00    -0.044 C 
ATOM     19  C   UNL     1      32.036 -24.790 -13.903  0.00  0.00    -0.044 C 
ATOM     20  C   UNL     1      29.701 -23.703 -15.068  0.00  0.00    +0.119 C 
ATOM     21  C   UNL     1      30.666 -24.811 -13.232  0.00  0.00    +0.119 C 
ATOM     22  H   UNL     1      32.048 -22.779 -14.239  0.00  0.00    -0.079 HD
ENDBRANCH  15  17
ENDBRANCH  14  15
ENDBRANCH  13  14
ENDBRANCH   7  13
ENDBRANCH   2   8
BRANCH   3  23
ATOM     23  C   UNL     1      35.072 -16.583 -24.819  0.00  0.00    +0.131 C 
BRANCH  23  26
ATOM     24  O   UNL     1      33.038 -15.678 -25.774  0.00  0.00    -0.275 OA
ATOM     25  N   UNL     1      33.851 -14.768 -23.799  0.00  0.00    -0.300 N 
ATOM     26  C   UNL     1      33.873 -15.647 -24.874  0.00  0.00    +0.229 C 
ATOM     27  H   UNL     1      34.570 -14.825 -23.128  0.00  0.00    +0.150 HD
BRANCH  25  28
ATOM     28  C   UNL     1      32.815 -13.777 -23.625  0.00  0.00    +0.116 C 
BRANCH  28  29
ATOM     29  C   UNL     1      32.505 -13.537 -22.176  0.00  0.00    -0.003 C 
ATOM     30  C   UNL     1      32.043 -12.291 -21.769  0.00  0.00    -0.003 C 
ATOM     31  C   UNL     1      32.682 -14.565 -21.256  0.00  0.00    -0.003 C 
ATOM     32  C   UNL     1      31.754 -12.069 -20.422  0.00  0.00    -0.000 C 
ATOM     33  C   UNL     1      32.393 -14.342 -19.910  0.00  0.00    -0.000 C 
ATOM     34  C   UNL     1      31.930 -13.093 -19.493  0.00  0.00    -0.000 C 
ENDBRANCH  28  29
ENDBRANCH  25  28
ENDBRANCH  23  26
ENDBRANCH   3  23
TORSDOF 9
ENDMDL
MODEL 3
REMARK VINA RESULT:     -11.4      3.347     11.021
REMARK  Name = 23635314
REMARK  9 active torsions:
REMARK  status: ('A' for Active; 'I' for Inactive)
REMARK    1  A    between atoms: C_2  and  C_8
REMARK    2  A    between atoms: C_3  and  C_23
REMARK    3  A    between atoms: C_7  and  O_13
REMARK    4  A    between atoms: O_13  and  C_14
REMARK    5  A    between atoms: C_14  and  C_15
REMARK    6  A    between atoms: C_15  and  N_17
REMARK    7  A    between atoms: C_23  and  C_26
REMARK    8  A    between atoms: N_25  and  C_28
REMARK    9  A    between atoms: C_28  and  C_29
REMARK                            x       y       z     vdW  Elec       q    Type
REMARK                         _______ _______ _______ _____ _____    ______ ____
ROOT
ATOM      1  N   UNL     1      34.196 -24.003 -16.100  0.00  0.00    -0.248 NA
ATOM      2  C   UNL     1      35.210 -22.478 -17.675  0.00  0.00    +0.019 C 
ATOM      3  C   UNL     1      35.359 -23.989 -15.411  0.00  0.00    +0.068 C 
ATOM      4  C   UNL     1      36.390 -22.489 -16.941  0.00  0.00    +0.003 C 
ATOM      5  C   UNL     1      34.151 -23.243 -17.217  0.00  0.00    +0.098 C 
ATOM      6  C   UNL     1      36.474 -23.258 -15.786  0.00  0.00    +0.015 C 
ENDROOT
BRANCH   2   8
ATOM      7  C   UNL     1      34.864 -20.171 -21.200  0.00  0.00    +0.138 C 
ATOM      8  C   UNL     1      35.091 -21.688 -18.881  0.00  0.00    +0.002 C 
ATOM      9  C   UNL     1      33.717 -20.624 -20.558  0.00  0.00    +0.037 C 
ATOM     10  C   UNL     1      36.124 -20.471 -20.694  0.00  0.00    +0.037 C 
ATOM     11  C   UNL     1      33.831 -21.384 -19.395  0.00  0.00    +0.003 C 
ATOM     12  C   UNL     1      36.238 -21.231 -19.531  0.00  0.00    +0.003 C 
BRANCH   7  13
ATOM     13  O   UNL     1      34.752 -19.424 -22.344  0.00  0.00    -0.478 OA
BRANCH  13  14
ATOM     14  C   UNL     1      35.634 -18.318 -22.475  0.00  0.00    +0.183 C 
BRANCH  14  15
ATOM     15  C   UNL     1      34.989 -17.282 -23.381  0.00  0.00    -0.029 C 
BRANCH  15  17
ATOM     16  O   UNL     1      33.638 -13.768 -21.528  0.00  0.00    -0.358 OA
ATOM     17  N   UNL     1      34.973 -15.971 -22.738  0.00  0.00    +0.393 N 
ATOM     18  C   UNL     1      34.203 -15.006 -23.535  0.00  0.00    -0.044 C 
ATOM     19  C   UNL     1      34.416 -16.061 -21.381  0.00  0.00    -0.044 C 
ATOM     20  C   UNL     1      34.192 -13.649 -22.838  0.00  0.00    +0.119 C 
ATOM     21  C   UNL     1      34.400 -14.679 -20.735  0.00  0.00    +0.119 C 
ATOM     22  H   UNL     1      35.937 -15.643 -22.673  0.00  0.00    -0.079 HD
ENDBRANCH  15  17
ENDBRANCH  14  15
ENDBRANCH  13  14
ENDBRANCH   7  13
ENDBRANCH   2   8
BRANCH   3  23
ATOM     23  C   UNL     1      35.415 -24.826 -14.176  0.00  0.00    +0.131 C 
BRANCH  23  26
ATOM     24  O   UNL     1      34.159 -24.057 -12.253  0.00  0.00    -0.275 OA
ATOM     25  N   UNL     1      33.101 -25.410 -13.815  0.00  0.00    -0.300 N 
ATOM     26  C   UNL     1      34.178 -24.705 -13.297  0.00  0.00    +0.229 C 
ATOM     27  H   UNL     1      33.219 -25.898 -14.662  0.00  0.00    +0.150 HD
BRANCH  25  28
ATOM     28  C   UNL     1      31.813 -25.454 -13.163  0.00  0.00    +0.116 C 
BRANCH  28  29
ATOM     29  C   UNL     1      30.742 -24.806 -13.991  0.00  0.00    -0.003 C 
ATOM     30  C   UNL     1      29.773 -25.594 -14.600  0.00  0.00    -0.003 C 
ATOM     31  C   UNL     1      30.730 -23.424 -14.140  0.00  0.00    -0.003 C 
ATOM     32  C   UNL     1      28.777 -24.992 -15.370  0.00  0.00    -0.000 C 
ATOM     33  C   UNL     1      29.734 -22.822 -14.910  0.00  0.00    -0.000 C 
ATOM     34  C   UNL     1      28.758 -23.607 -15.525  0.00  0.00    -0.000 C 
ENDBRANCH  28  29
ENDBRANCH  25  28
ENDBRANCH  23  26
ENDBRANCH   3  23
TORSDOF 9
ENDMDL
MODEL 4
REMARK VINA RESULT:     -11.1      4.324      7.287
REMARK  Name = 23635314
REMARK  9 active torsions:
REMARK  status: ('A' for Active; 'I' for Inactive)
REMARK    1  A    between atoms: C_2  and  C_8
REMARK    2  A    between atoms: C_3  and  C_23
REMARK    3  A    between atoms: C_7  and  O_13
REMARK    4  A    between atoms: O_13  and  C_14
REMARK    5  A    between atoms: C_14  and  C_15
REMARK    6  A    between atoms: C_15  and  N_17
REMARK    7  A    between atoms: C_23  and  C_26
REMARK    8  A    between atoms: N_25  and  C_28
REMARK    9  A    between atoms: C_28  and  C_29
REMARK                            x       y       z     vdW  Elec       q    Type
REMARK                         _______ _______ _______ _____ _____    ______ ____
ROOT
ATOM      1  N   UNL     1      32.729 -11.587 -22.490  0.00  0.00    -0.248 NA
ATOM      2  C   UNL     1      33.210 -13.836 -21.750  0.00  0.00    +0.019 C 
ATOM      3  C   UNL     1      31.901 -11.466 -21.429  0.00  0.00    +0.068 C 
ATOM      4  C   UNL     1      32.350 -13.675 -20.671  0.00  0.00    +0.003 C 
ATOM      5  C   UNL     1      33.365 -12.773 -22.624  0.00  0.00    +0.098 C 
ATOM      6  C   UNL     1      31.679 -12.470 -20.500  0.00  0.00    +0.015 C 
ENDROOT
BRANCH   2   8
ATOM      7  C   UNL     1      35.295 -17.464 -22.351  0.00  0.00    +0.138 C 
ATOM      8  C   UNL     1      33.923 -15.077 -21.955  0.00  0.00    +0.002 C 
ATOM      9  C   UNL     1      34.949 -17.074 -21.062  0.00  0.00    +0.037 C 
ATOM     10  C   UNL     1      34.962 -16.672 -23.444  0.00  0.00    +0.037 C 
ATOM     11  C   UNL     1      34.261 -15.877 -20.863  0.00  0.00    +0.003 C 
ATOM     12  C   UNL     1      34.274 -15.475 -23.245  0.00  0.00    +0.003 C 
BRANCH   7  13
ATOM     13  O   UNL     1      35.971 -18.640 -22.545  0.00  0.00    -0.478 OA
BRANCH  13  14
ATOM     14  C   UNL     1      35.369 -19.819 -22.028  0.00  0.00    +0.183 C 
BRANCH  14  15
ATOM     15  C   UNL     1      36.061 -20.190 -20.727  0.00  0.00    -0.029 C 
BRANCH  15  17
ATOM     16  O   UNL     1      33.079 -22.621 -19.049  0.00  0.00    -0.358 OA
ATOM     17  N   UNL     1      35.107 -20.762 -19.779  0.00  0.00    +0.393 N 
ATOM     18  C   UNL     1      33.732 -20.636 -20.282  0.00  0.00    -0.044 C 
ATOM     19  C   UNL     1      35.418 -22.173 -19.511  0.00  0.00    -0.044 C 
ATOM     20  C   UNL     1      32.757 -21.249 -19.281  0.00  0.00    +0.119 C 
ATOM     21  C   UNL     1      34.403 -22.750 -18.529  0.00  0.00    +0.119 C 
ATOM     22  H   UNL     1      35.183 -20.240 -18.906  0.00  0.00    -0.079 HD
ENDBRANCH  15  17
ENDBRANCH  14  15
ENDBRANCH  13  14
ENDBRANCH   7  13
ENDBRANCH   2   8
BRANCH   3  23
ATOM     23  C   UNL     1      31.196 -10.160 -21.277  0.00  0.00    +0.131 C 
BRANCH  23  26
ATOM     24  O   UNL     1      32.249  -8.426 -19.952  0.00  0.00    -0.275 OA
ATOM     25  N   UNL     1      32.814  -8.622 -22.196  0.00  0.00    -0.300 N 
ATOM     26  C   UNL     1      32.131  -8.982 -21.042  0.00  0.00    +0.229 C 
ATOM     27  H   UNL     1      32.648  -9.133 -23.021  0.00  0.00    +0.150 HD
BRANCH  25  28
ATOM     28  C   UNL     1      33.758  -7.531 -22.233  0.00  0.00    +0.116 C 
BRANCH  28  29
ATOM     29  C   UNL     1      33.307  -6.430 -23.150  0.00  0.00    -0.003 C 
ATOM     30  C   UNL     1      33.944  -6.250 -24.372  0.00  0.00    -0.003 C 
ATOM     31  C   UNL     1      32.258  -5.603 -22.767  0.00  0.00    -0.003 C 
ATOM     32  C   UNL     1      33.526  -5.228 -25.224  0.00  0.00    -0.000 C 
ATOM     33  C   UNL     1      31.839  -4.581 -23.619  0.00  0.00    -0.000 C 
ATOM     34  C   UNL     1      32.474  -4.393 -24.848  0.00  0.00    -0.000 C 
ENDBRANCH  28  29
ENDBRANCH  25  28
ENDBRANCH  23  26
ENDBRANCH   3  23
TORSDOF 9
ENDMDL
MODEL 5
REMARK VINA RESULT:     -11.0      1.860     11.316
REMARK  Name = 23635314
REMARK  9 active torsions:
REMARK  status: ('A' for Active; 'I' for Inactive)
REMARK    1  A    between atoms: C_2  and  C_8
REMARK    2  A    between atoms: C_3  and  C_23
REMARK    3  A    between atoms: C_7  and  O_13
REMARK    4  A    between atoms: O_13  and  C_14
REMARK    5  A    between atoms: C_14  and  C_15
REMARK    6  A    between atoms: C_15  and  N_17
REMARK    7  A    between atoms: C_23  and  C_26
REMARK    8  A    between atoms: N_25  and  C_28
REMARK    9  A    between atoms: C_28  and  C_29
REMARK                            x       y       z     vdW  Elec       q    Type
REMARK                         _______ _______ _______ _____ _____    ______ ____
ROOT
ATOM      1  N   UNL     1      35.729 -22.248 -18.826  0.00  0.00    -0.248 NA
ATOM      2  C   UNL     1      34.692 -20.672 -20.334  0.00  0.00    +0.019 C 
ATOM      3  C   UNL     1      34.489 -22.601 -18.419  0.00  0.00    +0.068 C 
ATOM      4  C   UNL     1      33.434 -21.060 -19.890  0.00  0.00    +0.003 C 
ATOM      5  C   UNL     1      35.799 -21.290 -19.777  0.00  0.00    +0.098 C 
ATOM      6  C   UNL     1      33.322 -22.042 -18.914  0.00  0.00    +0.015 C 
ENDROOT
BRANCH   2   8
ATOM      7  C   UNL     1      35.129 -17.692 -23.301  0.00  0.00    +0.138 C 
ATOM      8  C   UNL     1      34.841 -19.652 -21.349  0.00  0.00    +0.002 C 
ATOM      9  C   UNL     1      35.569 -17.444 -22.006  0.00  0.00    +0.037 C 
ATOM     10  C   UNL     1      34.545 -18.911 -23.630  0.00  0.00    +0.037 C 
ATOM     11  C   UNL     1      35.425 -18.427 -21.027  0.00  0.00    +0.003 C 
ATOM     12  C   UNL     1      34.402 -19.894 -22.651  0.00  0.00    +0.003 C 
BRANCH   7  13
ATOM     13  O   UNL     1      35.269 -16.726 -24.263  0.00  0.00    -0.478 OA
BRANCH  13  14
ATOM     14  C   UNL     1      34.208 -15.789 -24.389  0.00  0.00    +0.183 C 
BRANCH  14  15
ATOM     15  C   UNL     1      34.492 -14.603 -23.482  0.00  0.00    -0.029 C 
BRANCH  15  17
ATOM     16  O   UNL     1      32.157 -13.151 -20.311  0.00  0.00    -0.358 OA
ATOM     17  N   UNL     1      33.355 -14.340 -22.604  0.00  0.00    +0.393 N 
ATOM     18  C   UNL     1      33.611 -14.851 -21.250  0.00  0.00    -0.044 C 
ATOM     19  C   UNL     1      33.057 -12.902 -22.550  0.00  0.00    -0.044 C 
ATOM     20  C   UNL     1      32.416 -14.556 -20.350  0.00  0.00    +0.119 C 
ATOM     21  C   UNL     1      31.875 -12.651 -21.619  0.00  0.00    +0.119 C 
ATOM     22  H   UNL     1      32.545 -14.827 -22.987  0.00  0.00    -0.079 HD
ENDBRANCH  15  17
ENDBRANCH  14  15
ENDBRANCH  13  14
ENDBRANCH   7  13
ENDBRANCH   2   8
BRANCH   3  23
ATOM     23  C   UNL     1      34.406 -23.658 -17.369  0.00  0.00    +0.131 C 
BRANCH  23  26
ATOM     24  O   UNL     1      34.571 -22.815 -15.104  0.00  0.00    -0.275 OA
ATOM     25  N   UNL     1      36.491 -23.588 -16.156  0.00  0.00    -0.300 N 
ATOM     26  C   UNL     1      35.135 -23.302 -16.081  0.00  0.00    +0.229 C 
ATOM     27  H   UNL     1      36.847 -23.978 -16.987  0.00  0.00    +0.150 HD
BRANCH  25  28
ATOM     28  C   UNL     1      37.401 -23.336 -15.063  0.00  0.00    +0.116 C 
BRANCH  28  29
ATOM     29  C   UNL     1      37.423 -24.470 -14.079  0.00  0.00    -0.003 C 
ATOM     30  C   UNL     1      37.591 -24.203 -12.725  0.00  0.00    -0.003 C 
ATOM     31  C   UNL     1      37.274 -25.776 -14.532  0.00  0.00    -0.003 C 
ATOM     32  C   UNL     1      37.611 -25.256 -11.811  0.00  0.00    -0.000 C 
ATOM     33  C   UNL     1      37.295 -26.830 -13.617  0.00  0.00    -0.000 C 
ATOM     34  C   UNL     1      37.464 -26.569 -12.257  0.00  0.00    -0.000 C 
ENDBRANCH  28  29
ENDBRANCH  25  28
ENDBRANCH  23  26
ENDBRANCH   3  23
TORSDOF 9
ENDMDL
MODEL 6
REMARK VINA RESULT:     -11.0      2.506      3.253
REMARK  Name = 23635314
REMARK  9 active torsions:
REMARK  status: ('A' for Active; 'I' for Inactive)
REMARK    1  A    between atoms: C_2  and  C_8
REMARK    2  A    between atoms: C_3  and  C_23
REMARK    3  A    between atoms: C_7  and  O_13
REMARK    4  A    between atoms: O_13  and  C_14
REMARK    5  A    between atoms: C_14  and  C_15
REMARK    6  A    between atoms: C_15  and  N_17
REMARK    7  A    between atoms: C_23  and  C_26
REMARK    8  A    between atoms: N_25  and  C_28
REMARK    9  A    between atoms: C_28  and  C_29
REMARK                            x       y       z     vdW  Elec       q    Type
REMARK                         _______ _______ _______ _____ _____    ______ ____
ROOT
ATOM      1  N   UNL     1      35.002 -16.754 -21.761  0.00  0.00    -0.248 NA
ATOM      2  C   UNL     1      34.763 -19.141 -21.485  0.00  0.00    +0.019 C 
ATOM      3  C   UNL     1      35.031 -16.959 -23.097  0.00  0.00    +0.068 C 
ATOM      4  C   UNL     1      34.797 -19.314 -22.863  0.00  0.00    +0.003 C 
ATOM      5  C   UNL     1      34.868 -17.854 -20.987  0.00  0.00    +0.098 C 
ATOM      6  C   UNL     1      34.933 -18.206 -23.692  0.00  0.00    +0.015 C 
ENDROOT
BRANCH   2   8
ATOM      7  C   UNL     1      34.352 -22.450 -18.887  0.00  0.00    +0.138 C 
ATOM      8  C   UNL     1      34.622 -20.274 -20.596  0.00  0.00    +0.002 C 
ATOM      9  C   UNL     1      33.217 -21.792 -19.348  0.00  0.00    +0.037 C 
ATOM     10  C   UNL     1      35.621 -22.030 -19.271  0.00  0.00    +0.037 C 
ATOM     11  C   UNL     1      33.353 -20.701 -20.206  0.00  0.00    +0.003 C 
ATOM     12  C   UNL     1      35.755 -20.938 -20.128  0.00  0.00    +0.003 C 
BRANCH   7  13
ATOM     13  O   UNL     1      34.219 -23.522 -18.044  0.00  0.00    -0.478 OA
BRANCH  13  14
ATOM     14  C   UNL     1      33.988 -23.233 -16.671  0.00  0.00    +0.183 C 
BRANCH  14  15
ATOM     15  C   UNL     1      32.515 -23.447 -16.367  0.00  0.00    -0.029 C 
BRANCH  15  17
ATOM     16  O   UNL     1      32.108 -25.558 -12.761  0.00  0.00    -0.358 OA
ATOM     17  N   UNL     1      32.319 -23.751 -14.951  0.00  0.00    +0.393 N 
ATOM     18  C   UNL     1      31.126 -24.587 -14.756  0.00  0.00    -0.044 C 
ATOM     19  C   UNL     1      33.501 -24.421 -14.391  0.00  0.00    -0.044 C 
ATOM     20  C   UNL     1      30.949 -24.899 -13.273  0.00  0.00    +0.119 C 
ATOM     21  C   UNL     1      33.268 -24.738 -12.917  0.00  0.00    +0.119 C 
ATOM     22  H   UNL     1      32.181 -22.868 -14.459  0.00  0.00    -0.079 HD
ENDBRANCH  15  17
ENDBRANCH  14  15
ENDBRANCH  13  14
ENDBRANCH   7  13
ENDBRANCH   2   8
BRANCH   3  23
ATOM     23  C   UNL     1      35.179 -15.748 -23.957  0.00  0.00    +0.131 C 
BRANCH  23  26
ATOM     24  O   UNL     1      33.123 -14.935 -24.946  0.00  0.00    -0.275 OA
ATOM     25  N   UNL     1      33.822 -14.043 -22.919  0.00  0.00    -0.300 N 
ATOM     26  C   UNL     1      33.928 -14.883 -24.019  0.00  0.00    +0.229 C 
ATOM     27  H   UNL     1      34.523 -14.079 -22.228  0.00  0.00    +0.150 HD
BRANCH  25  28
ATOM     28  C   UNL     1      32.724 -13.121 -22.747  0.00  0.00    +0.116 C 
BRANCH  28  29
ATOM     29  C   UNL     1      33.151 -11.696 -22.951  0.00  0.00    -0.003 C 
ATOM     30  C   UNL     1      34.259 -11.417 -23.741  0.00  0.00    -0.003 C 
ATOM     31  C   UNL     1      32.432 -10.671 -22.348  0.00  0.00    -0.003 C 
ATOM     32  C   UNL     1      34.656 -10.093 -23.931  0.00  0.00    -0.000 C 
ATOM     33  C   UNL     1      32.829  -9.347 -22.538  0.00  0.00    -0.000 C 
ATOM     34  C   UNL     1      33.942  -9.058 -23.329  0.00  0.00    -0.000 C 
ENDBRANCH  28  29
ENDBRANCH  25  28
ENDBRANCH  23  26
ENDBRANCH   3  23
TORSDOF 9
ENDMDL
MODEL 7
REMARK VINA RESULT:     -10.9      2.951     11.586
REMARK  Name = 23635314
REMARK  9 active torsions:
REMARK  status: ('A' for Active; 'I' for Inactive)
REMARK    1  A    between atoms: C_2  and  C_8
REMARK    2  A    between atoms: C_3  and  C_23
REMARK    3  A    between atoms: C_7  and  O_13
REMARK    4  A    between atoms: O_13  and  C_14
REMARK    5  A    between atoms: C_14  and  C_15
REMARK    6  A    between atoms: C_15  and  N_17
REMARK    7  A    between atoms: C_23  and  C_26
REMARK    8  A    between atoms: N_25  and  C_28
REMARK    9  A    between atoms: C_28  and  C_29
REMARK                            x       y       z     vdW  Elec       q    Type
REMARK                         _______ _______ _______ _____ _____    ______ ____
ROOT
ATOM      1  N   UNL     1      36.958 -20.113 -20.284  0.00  0.00    -0.248 NA
ATOM      2  C   UNL     1      35.337 -18.609 -21.257  0.00  0.00    +0.019 C 
ATOM      3  C   UNL     1      35.935 -20.941 -19.978  0.00  0.00    +0.068 C 
ATOM      4  C   UNL     1      34.311 -19.486 -20.925  0.00  0.00    +0.003 C 
ATOM      5  C   UNL     1      36.632 -18.964 -20.918  0.00  0.00    +0.098 C 
ATOM      6  C   UNL     1      34.608 -20.677 -20.273  0.00  0.00    +0.015 C 
ENDROOT
BRANCH   2   8
ATOM      7  C   UNL     1      34.530 -14.965 -23.240  0.00  0.00    +0.138 C 
ATOM      8  C   UNL     1      35.061 -17.362 -21.935  0.00  0.00    +0.002 C 
ATOM      9  C   UNL     1      34.876 -16.089 -23.980  0.00  0.00    +0.037 C 
ATOM     10  C   UNL     1      34.448 -15.027 -21.852  0.00  0.00    +0.037 C 
ATOM     11  C   UNL     1      35.142 -17.292 -23.326  0.00  0.00    +0.003 C 
ATOM     12  C   UNL     1      34.714 -16.230 -21.199  0.00  0.00    +0.003 C 
BRANCH   7  13
ATOM     13  O   UNL     1      34.269 -13.783 -23.882  0.00  0.00    -0.478 OA
BRANCH  13  14
ATOM     14  C   UNL     1      33.724 -12.732 -23.095  0.00  0.00    +0.183 C 
BRANCH  14  15
ATOM     15  C   UNL     1      33.790 -11.439 -23.891  0.00  0.00    -0.029 C 
BRANCH  15  17
ATOM     16  O   UNL     1      32.430  -8.605 -21.110  0.00  0.00    -0.358 OA
ATOM     17  N   UNL     1      32.993 -10.396 -23.249  0.00  0.00    +0.393 N 
ATOM     18  C   UNL     1      32.438 -10.872 -21.975  0.00  0.00    -0.044 C 
ATOM     19  C   UNL     1      33.797  -9.186 -23.028  0.00  0.00    -0.044 C 
ATOM     20  C   UNL     1      31.620  -9.763 -21.320  0.00  0.00    +0.119 C 
ATOM     21  C   UNL     1      32.947  -8.116 -22.348  0.00  0.00    +0.119 C 
ATOM     22  H   UNL     1      32.220 -10.165 -23.874  0.00  0.00    -0.079 HD
ENDBRANCH  15  17
ENDBRANCH  14  15
ENDBRANCH  13  14
ENDBRANCH   7  13
ENDBRANCH   2   8
BRANCH   3  23
ATOM     23  C   UNL     1      36.290 -22.211 -19.277  0.00  0.00    +0.131 C 
BRANCH  23  26
ATOM     24  O   UNL     1      36.893 -21.322 -17.106  0.00  0.00    -0.275 OA
ATOM     25  N   UNL     1      35.317 -23.023 -17.223  0.00  0.00    -0.300 N 
ATOM     26  C   UNL     1      36.219 -22.114 -17.760  0.00  0.00    +0.229 C 
ATOM     27  H   UNL     1      34.824 -23.617 -17.835  0.00  0.00    +0.150 HD
BRANCH  25  28
ATOM     28  C   UNL     1      35.072 -23.130 -15.804  0.00  0.00    +0.116 C 
BRANCH  28  29
ATOM     29  C   UNL     1      33.623 -23.382 -15.503  0.00  0.00    -0.003 C 
ATOM     30  C   UNL     1      33.243 -23.761 -14.221  0.00  0.00    -0.003 C 
ATOM     31  C   UNL     1      32.675 -23.233 -16.509  0.00  0.00    -0.003 C 
ATOM     32  C   UNL     1      31.897 -23.994 -13.940  0.00  0.00    -0.000 C 
ATOM     33  C   UNL     1      31.329 -23.466 -16.229  0.00  0.00    -0.000 C 
ATOM     34  C   UNL     1      30.940 -23.848 -14.944  0.00  0.00    -0.000 C 
ENDBRANCH  28  29
ENDBRANCH  25  28
ENDBRANCH  23  26
ENDBRANCH   3  23
TORSDOF 9
ENDMDL
MODEL 8
REMARK VINA RESULT:     -10.9      1.655      2.454
REMARK  Name = 23635314
REMARK  9 active torsions:
REMARK  status: ('A' for Active; 'I' for Inactive)
REMARK    1  A    between atoms: C_2  and  C_8
REMARK    2  A    between atoms: C_3  and  C_23
REMARK    3  A    between atoms: C_7  and  O_13
REMARK    4  A    between atoms: O_13  and  C_14
REMARK    5  A    between atoms: C_14  and  C_15
REMARK    6  A    between atoms: C_15  and  N_17
REMARK    7  A    between atoms: C_23  and  C_26
REMARK    8  A    between atoms: N_25  and  C_28
REMARK    9  A    between atoms: C_28  and  C_29
REMARK                            x       y       z     vdW  Elec       q    Type
REMARK                         _______ _______ _______ _____ _____    ______ ____
ROOT
ATOM      1  N   UNL     1      34.769 -18.405 -23.760  0.00  0.00    -0.248 NA
ATOM      2  C   UNL     1      34.790 -19.221 -21.487  0.00  0.00    +0.019 C 
ATOM      3  C   UNL     1      34.980 -17.164 -23.266  0.00  0.00    +0.068 C 
ATOM      4  C   UNL     1      35.005 -17.932 -21.015  0.00  0.00    +0.003 C 
ATOM      5  C   UNL     1      34.680 -19.405 -22.855  0.00  0.00    +0.098 C 
ATOM      6  C   UNL     1      35.103 -16.878 -21.916  0.00  0.00    +0.015 C 
ENDROOT
BRANCH   2   8
ATOM      7  C   UNL     1      34.480 -22.489 -18.824  0.00  0.00    +0.138 C 
ATOM      8  C   UNL     1      34.683 -20.340 -20.576  0.00  0.00    +0.002 C 
ATOM      9  C   UNL     1      33.328 -21.844 -19.259  0.00  0.00    +0.037 C 
ATOM     10  C   UNL     1      35.733 -22.069 -19.255  0.00  0.00    +0.037 C 
ATOM     11  C   UNL     1      33.430 -20.766 -20.138  0.00  0.00    +0.003 C 
ATOM     12  C   UNL     1      35.835 -20.991 -20.134  0.00  0.00    +0.003 C 
BRANCH   7  13
ATOM     13  O   UNL     1      34.379 -23.548 -17.959  0.00  0.00    -0.478 OA
BRANCH  13  14
ATOM     14  C   UNL     1      33.332 -23.495 -17.000  0.00  0.00    +0.183 C 
BRANCH  14  15
ATOM     15  C   UNL     1      33.942 -23.520 -15.608  0.00  0.00    -0.029 C 
BRANCH  15  17
ATOM     16  O   UNL     1      37.984 -23.970 -14.569  0.00  0.00    -0.358 OA
ATOM     17  N   UNL     1      35.363 -23.856 -15.673  0.00  0.00    +0.393 N 
ATOM     18  C   UNL     1      36.192 -22.651 -15.535  0.00  0.00    -0.044 C 
ATOM     19  C   UNL     1      35.717 -24.833 -14.634  0.00  0.00    -0.044 C 
ATOM     20  C   UNL     1      37.669 -23.028 -15.595  0.00  0.00    +0.119 C 
ATOM     21  C   UNL     1      37.205 -25.159 -14.714  0.00  0.00    +0.119 C 
ATOM     22  H   UNL     1      35.543 -24.273 -16.587  0.00  0.00    -0.079 HD
ENDBRANCH  15  17
ENDBRANCH  14  15
ENDBRANCH  13  14
ENDBRANCH   7  13
ENDBRANCH   2   8
BRANCH   3  23
ATOM     23  C   UNL     1      35.079 -16.056 -24.261  0.00  0.00    +0.131 C 
BRANCH  23  26
ATOM     24  O   UNL     1      33.052 -15.119 -25.199  0.00  0.00    -0.275 OA
ATOM     25  N   UNL     1      33.803 -14.337 -23.146  0.00  0.00    -0.300 N 
ATOM     26  C   UNL     1      33.866 -15.138 -24.279  0.00  0.00    +0.229 C 
ATOM     27  H   UNL     1      34.507 -14.429 -22.463  0.00  0.00    +0.150 HD
BRANCH  25  28
ATOM     28  C   UNL     1      32.746 -13.378 -22.928  0.00  0.00    +0.116 C 
BRANCH  28  29
ATOM     29  C   UNL     1      33.222 -11.966 -23.119  0.00  0.00    -0.003 C 
ATOM     30  C   UNL     1      32.547 -10.924 -22.495  0.00  0.00    -0.003 C 
ATOM     31  C   UNL     1      34.333 -11.717 -23.916  0.00  0.00    -0.003 C 
ATOM     32  C   UNL     1      32.989  -9.612 -22.672  0.00  0.00    -0.000 C 
ATOM     33  C   UNL     1      34.775 -10.406 -24.093  0.00  0.00    -0.000 C 
ATOM     34  C   UNL     1      34.102  -9.353 -23.471  0.00  0.00    -0.000 C 
ENDBRANCH  28  29
ENDBRANCH  25  28
ENDBRANCH  23  26
ENDBRANCH   3  23
TORSDOF 9
ENDMDL
MODEL 9
REMARK VINA RESULT:     -10.9      2.259      2.936
REMARK  Name = 23635314
REMARK  9 active torsions:
REMARK  status: ('A' for Active; 'I' for Inactive)
REMARK    1  A    between atoms: C_2  and  C_8
REMARK    2  A    between atoms: C_3  and  C_23
REMARK    3  A    between atoms: C_7  and  O_13
REMARK    4  A    between atoms: O_13  and  C_14
REMARK    5  A    between atoms: C_14  and  C_15
REMARK    6  A    between atoms: C_15  and  N_17
REMARK    7  A    between atoms: C_23  and  C_26
REMARK    8  A    between atoms: N_25  and  C_28
REMARK    9  A    between atoms: C_28  and  C_29
REMARK                            x       y       z     vdW  Elec       q    Type
REMARK                         _______ _______ _______ _____ _____    ______ ____
ROOT
ATOM      1  N   UNL     1      35.124 -18.521 -23.585  0.00  0.00    -0.248 NA
ATOM      2  C   UNL     1      34.706 -19.297 -21.336  0.00  0.00    +0.019 C 
ATOM      3  C   UNL     1      35.156 -17.263 -23.093  0.00  0.00    +0.068 C 
ATOM      4  C   UNL     1      34.745 -17.990 -20.867  0.00  0.00    +0.003 C 
ATOM      5  C   UNL     1      34.899 -19.510 -22.690  0.00  0.00    +0.098 C 
ATOM      6  C   UNL     1      34.973 -16.947 -21.757  0.00  0.00    +0.015 C 
ENDROOT
BRANCH   2   8
ATOM      7  C   UNL     1      34.017 -22.532 -18.703  0.00  0.00    +0.138 C 
ATOM      8  C   UNL     1      34.470 -20.404 -20.435  0.00  0.00    +0.002 C 
ATOM      9  C   UNL     1      32.938 -21.859 -19.264  0.00  0.00    +0.037 C 
ATOM     10  C   UNL     1      35.322 -22.151 -19.000  0.00  0.00    +0.037 C 
ATOM     11  C   UNL     1      33.165 -20.792 -20.133  0.00  0.00    +0.003 C 
ATOM     12  C   UNL     1      35.548 -21.083 -19.868  0.00  0.00    +0.003 C 
BRANCH   7  13
ATOM     13  O   UNL     1      33.794 -23.580 -17.849  0.00  0.00    -0.478 OA
BRANCH  13  14
ATOM     14  C   UNL     1      34.434 -23.521 -16.581  0.00  0.00    +0.183 C 
BRANCH  14  15
ATOM     15  C   UNL     1      33.427 -23.046 -15.547  0.00  0.00    -0.029 C 
BRANCH  15  17
ATOM     16  O   UNL     1      30.471 -25.245 -13.537  0.00  0.00    -0.358 OA
ATOM     17  N   UNL     1      32.578 -24.150 -15.108  0.00  0.00    +0.393 N 
ATOM     18  C   UNL     1      32.738 -24.392 -13.667  0.00  0.00    -0.044 C 
ATOM     19  C   UNL     1      31.167 -23.880 -15.418  0.00  0.00    -0.044 C 
ATOM     20  C   UNL     1      31.835 -25.541 -13.231  0.00  0.00    +0.119 C 
ATOM     21  C   UNL     1      30.299 -25.041 -14.940  0.00  0.00    +0.119 C 
ATOM     22  H   UNL     1      32.868 -24.987 -15.613  0.00  0.00    -0.079 HD
ENDBRANCH  15  17
ENDBRANCH  14  15
ENDBRANCH  13  14
ENDBRANCH   7  13
ENDBRANCH   2   8
BRANCH   3  23
ATOM     23  C   UNL     1      35.403 -16.167 -24.077  0.00  0.00    +0.131 C 
BRANCH  23  26
ATOM     24  O   UNL     1      33.227 -15.474 -24.884  0.00  0.00    -0.275 OA
ATOM     25  N   UNL     1      34.449 -14.012 -23.558  0.00  0.00    -0.300 N 
ATOM     26  C   UNL     1      34.232 -15.206 -24.232  0.00  0.00    +0.229 C 
ATOM     27  H   UNL     1      35.291 -13.895 -23.062  0.00  0.00    +0.150 HD
BRANCH  25  28
ATOM     28  C   UNL     1      33.486 -12.935 -23.555  0.00  0.00    +0.116 C 
BRANCH  28  29
ATOM     29  C   UNL     1      32.800 -12.799 -22.227  0.00  0.00    -0.003 C 
ATOM     30  C   UNL     1      32.916 -13.816 -21.286  0.00  0.00    -0.003 C 
ATOM     31  C   UNL     1      32.057 -11.658 -21.950  0.00  0.00    -0.003 C 
ATOM     32  C   UNL     1      32.279 -13.690 -20.052  0.00  0.00    -0.000 C 
ATOM     33  C   UNL     1      31.419 -11.532 -20.716  0.00  0.00    -0.000 C 
ATOM     34  C   UNL     1      31.530 -12.549 -19.767  0.00  0.00    -0.000 C 
ENDBRANCH  28  29
ENDBRANCH  25  28
ENDBRANCH  23  26
ENDBRANCH   3  23
TORSDOF 9
ENDMDL
