MODEL 1
REMARK VINA RESULT:     -10.9      0.000      0.000
REMARK  Name = 46861612
REMARK  7 active torsions:
REMARK  status: ('A' for Active; 'I' for Inactive)
REMARK    1  A    between atoms: C_1  and  N_2
REMARK    2  A    between atoms: C_1  and  C_17
REMARK    3  A    between atoms: N_3  and  C_11
REMARK    4  A    between atoms: C_17  and  C_18
REMARK    5  A    between atoms: C_18  and  C_19
REMARK    6  A    between atoms: C_19  and  O_20
REMARK    7  A    between atoms: O_20  and  C_24
REMARK                            x       y       z     vdW  Elec       q    Type
REMARK                         _______ _______ _______ _____ _____    ______ ____
ROOT
ATOM      1  C   UNL     1      31.679 -10.668 -19.444  0.00  0.00    -0.077 C 
ENDROOT
BRANCH   1   2
ATOM      2  N   UNL     1      32.248  -9.751 -20.430  0.00  0.00    +0.389 N 
ATOM      3  N   UNL     1      32.282  -7.488 -22.172  0.00  0.00    -0.311 N 
ATOM      4  C   UNL     1      31.442  -9.747 -21.656  0.00  0.00    -0.055 C 
ATOM      5  C   UNL     1      32.330  -8.392 -19.881  0.00  0.00    -0.055 C 
ATOM      6  C   UNL     1      32.977  -7.432 -20.882  0.00  0.00    +0.068 C 
ATOM      7  C   UNL     1      32.060  -8.834 -22.717  0.00  0.00    +0.068 C 
ATOM      8  H   UNL     1      33.190 -10.072 -20.655  0.00  0.00    -0.080 HD
BRANCH   3  11
ATOM      9 CL   UNL     1      30.316  -5.255 -21.809  0.00  0.00    -0.080 Cl
ATOM     10 CL   UNL     1      30.697  -2.879 -23.934  0.00  0.00    -0.081 Cl
ATOM     11  C   UNL     1      32.406  -6.426 -23.075  0.00  0.00    +0.059 C 
ATOM     12  C   UNL     1      31.557  -5.320 -23.023  0.00  0.00    +0.081 C 
ATOM     13  C   UNL     1      33.408  -6.492 -24.042  0.00  0.00    +0.015 C 
ATOM     14  C   UNL     1      31.712  -4.280 -23.940  0.00  0.00    +0.069 C 
ATOM     15  C   UNL     1      33.562  -5.451 -24.959  0.00  0.00    +0.002 C 
ATOM     16  C   UNL     1      32.713  -4.346 -24.908  0.00  0.00    +0.012 C 
ENDBRANCH   3  11
ENDBRANCH   1   2
BRANCH   1  17
ATOM     17  C   UNL     1      31.003 -11.847 -20.142  0.00  0.00    -0.019 C 
BRANCH  17  18
ATOM     18  C   UNL     1      31.950 -13.039 -20.257  0.00  0.00    +0.045 C 
BRANCH  18  19
ATOM     19  C   UNL     1      32.357 -13.296 -21.702  0.00  0.00    +0.205 C 
BRANCH  19  20
ATOM     20  O   UNL     1      33.760 -13.508 -21.777  0.00  0.00    -0.475 OA
BRANCH  20  24
ATOM     21  O   UNL     1      35.479 -18.465 -23.510  0.00  0.00    -0.464 OA
ATOM     22  O   UNL     1      36.021 -20.093 -20.329  0.00  0.00    -0.271 OA
ATOM     23  N   UNL     1      35.290 -17.951 -20.735  0.00  0.00    -0.278 N 
ATOM     24  C   UNL     1      34.177 -14.747 -22.190  0.00  0.00    +0.140 C 
ATOM     25  C   UNL     1      34.506 -15.722 -21.248  0.00  0.00    +0.055 C 
ATOM     26  C   UNL     1      34.924 -16.983 -21.676  0.00  0.00    +0.088 C 
ATOM     27  C   UNL     1      34.277 -15.029 -23.553  0.00  0.00    +0.040 C 
ATOM     28  C   UNL     1      35.021 -17.268 -23.037  0.00  0.00    +0.153 C 
ATOM     29  C   UNL     1      34.706 -16.287 -23.978  0.00  0.00    +0.041 C 
ATOM     30  C   UNL     1      35.387 -19.529 -22.581  0.00  0.00    +0.290 C 
ATOM     31  C   UNL     1      35.629 -19.230 -21.111  0.00  0.00    +0.271 C 
ATOM     32  H   UNL     1      35.305 -17.712 -19.781  0.00  0.00    +0.155 HD
ENDBRANCH  20  24
ENDBRANCH  19  20
ENDBRANCH  18  19
ENDBRANCH  17  18
ENDBRANCH   1  17
TORSDOF 7
ENDMDL
MODEL 2
REMARK VINA RESULT:     -10.9      5.058     11.847
REMARK  Name = 46861612
REMARK  7 active torsions:
REMARK  status: ('A' for Active; 'I' for Inactive)
REMARK    1  A    between atoms: C_1  and  N_2
REMARK    2  A    between atoms: C_1  and  C_17
REMARK    3  A    between atoms: N_3  and  C_11
REMARK    4  A    between atoms: C_17  and  C_18
REMARK    5  A    between atoms: C_18  and  C_19
REMARK    6  A    between atoms: C_19  and  O_20
REMARK    7  A    between atoms: O_20  and  C_24
REMARK                            x       y       z     vdW  Elec       q    Type
REMARK                         _______ _______ _______ _____ _____    ______ ____
ROOT
ATOM      1  C   UNL     1      34.595 -16.072 -24.125  0.00  0.00    -0.077 C 
ENDROOT
BRANCH   1   2
ATOM      2  N   UNL     1      35.188 -17.120 -23.296  0.00  0.00    +0.389 N 
ATOM      3  N   UNL     1      35.193 -19.250 -21.394  0.00  0.00    -0.311 N 
ATOM      4  C   UNL     1      34.956 -16.844 -21.873  0.00  0.00    -0.055 C 
ATOM      5  C   UNL     1      34.632 -18.431 -23.648  0.00  0.00    -0.055 C 
ATOM      6  C   UNL     1      35.286 -19.545 -22.827  0.00  0.00    +0.068 C 
ATOM      7  C   UNL     1      35.622 -17.904 -20.993  0.00  0.00    +0.068 C 
ATOM      8  H   UNL     1      36.194 -17.131 -23.470  0.00  0.00    -0.080 HD
BRANCH   3  11
ATOM      9 CL   UNL     1      32.617 -20.410 -20.394  0.00  0.00    -0.080 Cl
ATOM     10 CL   UNL     1      33.038 -22.774 -18.263  0.00  0.00    -0.081 Cl
ATOM     11  C   UNL     1      35.322 -20.286 -20.462  0.00  0.00    +0.059 C 
ATOM     12  C   UNL     1      34.206 -20.918 -19.912  0.00  0.00    +0.081 C 
ATOM     13  C   UNL     1      36.605 -20.683 -20.085  0.00  0.00    +0.015 C 
ATOM     14  C   UNL     1      34.374 -21.947 -18.985  0.00  0.00    +0.069 C 
ATOM     15  C   UNL     1      36.773 -21.712 -19.159  0.00  0.00    +0.002 C 
ATOM     16  C   UNL     1      35.657 -22.344 -18.609  0.00  0.00    +0.012 C 
ENDBRANCH   3  11
ENDBRANCH   1   2
BRANCH   1  17
ATOM     17  C   UNL     1      34.566 -14.746 -23.368  0.00  0.00    -0.019 C 
BRANCH  17  18
ATOM     18  C   UNL     1      33.142 -14.209 -23.244  0.00  0.00    +0.045 C 
BRANCH  18  19
ATOM     19  C   UNL     1      32.768 -13.936 -21.793  0.00  0.00    +0.205 C 
BRANCH  19  20
ATOM     20  O   UNL     1      31.611 -13.112 -21.742  0.00  0.00    -0.475 OA
BRANCH  20  24
ATOM     21  O   UNL     1      32.245  -8.150 -19.396  0.00  0.00    -0.464 OA
ATOM     22  O   UNL     1      32.973  -6.157 -22.321  0.00  0.00    -0.271 OA
ATOM     23  N   UNL     1      32.544  -8.412 -22.196  0.00  0.00    -0.278 N 
ATOM     24  C   UNL     1      31.760 -11.871 -21.177  0.00  0.00    +0.140 C 
ATOM     25  C   UNL     1      32.061 -10.771 -21.980  0.00  0.00    +0.055 C 
ATOM     26  C   UNL     1      32.205  -9.510 -21.399  0.00  0.00    +0.088 C 
ATOM     27  C   UNL     1      31.615 -11.713 -19.798  0.00  0.00    +0.040 C 
ATOM     28  C   UNL     1      32.057  -9.349 -20.023  0.00  0.00    +0.153 C 
ATOM     29  C   UNL     1      31.770 -10.453 -19.219  0.00  0.00    +0.041 C 
ATOM     30  C   UNL     1      32.118  -7.025 -20.245  0.00  0.00    +0.290 C 
ATOM     31  C   UNL     1      32.615  -7.140 -21.677  0.00  0.00    +0.271 C 
ATOM     32  H   UNL     1      32.734  -8.552 -23.151  0.00  0.00    +0.155 HD
ENDBRANCH  20  24
ENDBRANCH  19  20
ENDBRANCH  18  19
ENDBRANCH  17  18
ENDBRANCH   1  17
TORSDOF 7
ENDMDL
MODEL 3
REMARK VINA RESULT:     -10.8      7.168     11.303
REMARK  Name = 46861612
REMARK  7 active torsions:
REMARK  status: ('A' for Active; 'I' for Inactive)
REMARK    1  A    between atoms: C_1  and  N_2
REMARK    2  A    between atoms: C_1  and  C_17
REMARK    3  A    between atoms: N_3  and  C_11
REMARK    4  A    between atoms: C_17  and  C_18
REMARK    5  A    between atoms: C_18  and  C_19
REMARK    6  A    between atoms: C_19  and  O_20
REMARK    7  A    between atoms: O_20  and  C_24
REMARK                            x       y       z     vdW  Elec       q    Type
REMARK                         _______ _______ _______ _____ _____    ______ ____
ROOT
ATOM      1  C   UNL     1      36.050 -21.528 -19.348  0.00  0.00    -0.077 C 
ENDROOT
BRANCH   1   2
ATOM      2  N   UNL     1      35.861 -20.720 -20.552  0.00  0.00    +0.389 N 
ATOM      3  N   UNL     1      35.190 -18.377 -22.041  0.00  0.00    -0.311 N 
ATOM      4  C   UNL     1      34.463 -20.292 -20.671  0.00  0.00    -0.055 C 
ATOM      5  C   UNL     1      36.742 -19.546 -20.527  0.00  0.00    -0.055 C 
ATOM      6  C   UNL     1      36.597 -18.722 -21.808  0.00  0.00    +0.068 C 
ATOM      7  C   UNL     1      34.240 -19.494 -21.958  0.00  0.00    +0.068 C 
ATOM      8  H   UNL     1      36.101 -21.295 -21.360  0.00  0.00    -0.080 HD
BRANCH   3  11
ATOM      9 CL   UNL     1      34.608 -15.793 -20.641  0.00  0.00    -0.080 Cl
ATOM     10 CL   UNL     1      33.882 -13.400 -22.655  0.00  0.00    -0.081 Cl
ATOM     11  C   UNL     1      34.869 -17.301 -22.876  0.00  0.00    +0.059 C 
ATOM     12  C   UNL     1      34.574 -16.039 -22.360  0.00  0.00    +0.081 C 
ATOM     13  C   UNL     1      34.846 -17.515 -24.254  0.00  0.00    +0.015 C 
ATOM     14  C   UNL     1      34.257 -14.990 -23.224  0.00  0.00    +0.069 C 
ATOM     15  C   UNL     1      34.530 -16.465 -25.117  0.00  0.00    +0.002 C 
ATOM     16  C   UNL     1      34.235 -15.203 -24.602  0.00  0.00    +0.012 C 
ENDBRANCH   3  11
ENDBRANCH   1   2
BRANCH   1  17
ATOM     17  C   UNL     1      35.113 -22.734 -19.364  0.00  0.00    -0.019 C 
BRANCH  17  18
ATOM     18  C   UNL     1      33.882 -22.491 -18.494  0.00  0.00    +0.045 C 
BRANCH  18  19
ATOM     19  C   UNL     1      33.716 -23.575 -17.438  0.00  0.00    +0.205 C 
BRANCH  19  20
ATOM     20  O   UNL     1      33.967 -23.034 -16.148  0.00  0.00    -0.475 OA
BRANCH  20  24
ATOM     21  O   UNL     1      38.586 -24.656 -13.588  0.00  0.00    -0.464 OA
ATOM     22  O   UNL     1      37.209 -27.050 -11.257  0.00  0.00    -0.271 OA
ATOM     23  N   UNL     1      36.105 -25.773 -12.818  0.00  0.00    -0.278 N 
ATOM     24  C   UNL     1      35.105 -23.456 -15.511  0.00  0.00    +0.140 C 
ATOM     25  C   UNL     1      35.024 -24.412 -14.499  0.00  0.00    +0.055 C 
ATOM     26  C   UNL     1      36.187 -24.842 -13.858  0.00  0.00    +0.088 C 
ATOM     27  C   UNL     1      36.343 -22.924 -15.872  0.00  0.00    +0.040 C 
ATOM     28  C   UNL     1      37.425 -24.314 -14.220  0.00  0.00    +0.153 C 
ATOM     29  C   UNL     1      37.503 -23.347 -15.223  0.00  0.00    +0.041 C 
ATOM     30  C   UNL     1      38.531 -25.893 -12.902  0.00  0.00    +0.290 C 
ATOM     31  C   UNL     1      37.232 -26.282 -12.217  0.00  0.00    +0.271 C 
ATOM     32  H   UNL     1      35.219 -26.071 -12.509  0.00  0.00    +0.155 HD
ENDBRANCH  20  24
ENDBRANCH  19  20
ENDBRANCH  18  19
ENDBRANCH  17  18
ENDBRANCH   1  17
TORSDOF 7
ENDMDL
MODEL 4
REMARK VINA RESULT:     -10.8      3.981      7.110
REMARK  Name = 46861612
REMARK  7 active torsions:
REMARK  status: ('A' for Active; 'I' for Inactive)
REMARK    1  A    between atoms: C_1  and  N_2
REMARK    2  A    between atoms: C_1  and  C_17
REMARK    3  A    between atoms: N_3  and  C_11
REMARK    4  A    between atoms: C_17  and  C_18
REMARK    5  A    between atoms: C_18  and  C_19
REMARK    6  A    between atoms: C_19  and  O_20
REMARK    7  A    between atoms: O_20  and  C_24
REMARK                            x       y       z     vdW  Elec       q    Type
REMARK                         _______ _______ _______ _____ _____    ______ ____
ROOT
ATOM      1  C   UNL     1      34.881 -16.884 -24.474  0.00  0.00    -0.077 C 
ENDROOT
BRANCH   1   2
ATOM      2  N   UNL     1      34.689 -15.499 -24.048  0.00  0.00    +0.389 N 
ATOM      3  N   UNL     1      33.325 -13.318 -22.808  0.00  0.00    -0.311 N 
ATOM      4  C   UNL     1      33.481 -14.934 -24.661  0.00  0.00    -0.055 C 
ATOM      5  C   UNL     1      34.592 -15.419 -22.586  0.00  0.00    -0.055 C 
ATOM      6  C   UNL     1      34.447 -13.967 -22.123  0.00  0.00    +0.068 C 
ATOM      7  C   UNL     1      33.300 -13.467 -24.269  0.00  0.00    +0.068 C 
ATOM      8  H   UNL     1      35.498 -14.957 -24.355  0.00  0.00    -0.080 HD
BRANCH   3  11
ATOM      9 CL   UNL     1      31.953 -13.718 -20.174  0.00  0.00    -0.080 Cl
ATOM     10 CL   UNL     1      30.656 -11.026 -19.002  0.00  0.00    -0.081 Cl
ATOM     11  C   UNL     1      32.743 -12.172 -22.253  0.00  0.00    +0.059 C 
ATOM     12  C   UNL     1      32.071 -12.212 -21.031  0.00  0.00    +0.081 C 
ATOM     13  C   UNL     1      32.847 -10.970 -22.953  0.00  0.00    +0.015 C 
ATOM     14  C   UNL     1      31.503 -11.050 -20.510  0.00  0.00    +0.069 C 
ATOM     15  C   UNL     1      32.280  -9.808 -22.431  0.00  0.00    +0.002 C 
ATOM     16  C   UNL     1      31.607  -9.848 -21.210  0.00  0.00    +0.012 C 
ENDBRANCH   3  11
ENDBRANCH   1   2
BRANCH   1  17
ATOM     17  C   UNL     1      35.244 -17.763 -23.279  0.00  0.00    -0.019 C 
BRANCH  17  18
ATOM     18  C   UNL     1      34.731 -19.190 -23.465  0.00  0.00    +0.045 C 
BRANCH  18  19
ATOM     19  C   UNL     1      35.134 -20.088 -22.302  0.00  0.00    +0.205 C 
BRANCH  19  20
ATOM     20  O   UNL     1      34.074 -20.156 -21.357  0.00  0.00    -0.475 OA
BRANCH  20  24
ATOM     21  O   UNL     1      35.004 -23.213 -16.850  0.00  0.00    -0.464 OA
ATOM     22  O   UNL     1      31.603 -23.949 -15.874  0.00  0.00    -0.271 OA
ATOM     23  N   UNL     1      32.342 -22.707 -17.662  0.00  0.00    -0.278 N 
ATOM     24  C   UNL     1      34.288 -20.926 -20.244  0.00  0.00    +0.140 C 
ATOM     25  C   UNL     1      33.203 -21.436 -19.530  0.00  0.00    +0.055 C 
ATOM     26  C   UNL     1      33.428 -22.225 -18.401  0.00  0.00    +0.088 C 
ATOM     27  C   UNL     1      35.590 -21.194 -19.822  0.00  0.00    +0.040 C 
ATOM     28  C   UNL     1      34.728 -22.497 -17.980  0.00  0.00    +0.153 C 
ATOM     29  C   UNL     1      35.812 -21.973 -18.686  0.00  0.00    +0.041 C 
ATOM     30  C   UNL     1      33.945 -24.048 -16.420  0.00  0.00    +0.290 C 
ATOM     31  C   UNL     1      32.519 -23.554 -16.592  0.00  0.00    +0.271 C 
ATOM     32  H   UNL     1      31.431 -22.436 -17.915  0.00  0.00    +0.155 HD
ENDBRANCH  20  24
ENDBRANCH  19  20
ENDBRANCH  18  19
ENDBRANCH  17  18
ENDBRANCH   1  17
TORSDOF 7
ENDMDL
MODEL 5
REMARK VINA RESULT:     -10.7      7.332     11.245
REMARK  Name = 46861612
REMARK  7 active torsions:
REMARK  status: ('A' for Active; 'I' for Inactive)
REMARK    1  A    between atoms: C_1  and  N_2
REMARK    2  A    between atoms: C_1  and  C_17
REMARK    3  A    between atoms: N_3  and  C_11
REMARK    4  A    between atoms: C_17  and  C_18
REMARK    5  A    between atoms: C_18  and  C_19
REMARK    6  A    between atoms: C_19  and  O_20
REMARK    7  A    between atoms: O_20  and  C_24
REMARK                            x       y       z     vdW  Elec       q    Type
REMARK                         _______ _______ _______ _____ _____    ______ ____
ROOT
ATOM      1  C   UNL     1      36.588 -21.669 -19.363  0.00  0.00    -0.077 C 
ENDROOT
BRANCH   1   2
ATOM      2  N   UNL     1      36.112 -20.376 -19.854  0.00  0.00    +0.389 N 
ATOM      3  N   UNL     1      35.319 -18.466 -21.823  0.00  0.00    -0.311 N 
ATOM      4  C   UNL     1      37.111 -19.758 -20.733  0.00  0.00    -0.055 C 
ATOM      5  C   UNL     1      34.843 -20.536 -20.575  0.00  0.00    -0.055 C 
ATOM      6  C   UNL     1      34.304 -19.182 -21.044  0.00  0.00    +0.068 C 
ATOM      7  C   UNL     1      36.649 -18.379 -21.207  0.00  0.00    +0.068 C 
ATOM      8  H   UNL     1      35.959 -19.768 -19.049  0.00  0.00    -0.080 HD
BRANCH   3  11
ATOM      9 CL   UNL     1      34.609 -15.864 -20.518  0.00  0.00    -0.080 Cl
ATOM     10 CL   UNL     1      33.732 -13.596 -22.614  0.00  0.00    -0.081 Cl
ATOM     11  C   UNL     1      34.930 -17.443 -22.696  0.00  0.00    +0.059 C 
ATOM     12  C   UNL     1      34.571 -16.179 -22.225  0.00  0.00    +0.081 C 
ATOM     13  C   UNL     1      34.906 -17.712 -24.064  0.00  0.00    +0.015 C 
ATOM     14  C   UNL     1      34.188 -15.184 -23.125  0.00  0.00    +0.069 C 
ATOM     15  C   UNL     1      34.523 -16.716 -24.963  0.00  0.00    +0.002 C 
ATOM     16  C   UNL     1      34.164 -15.453 -24.493  0.00  0.00    +0.012 C 
ENDBRANCH   3  11
ENDBRANCH   1   2
BRANCH   1  17
ATOM     17  C   UNL     1      35.852 -22.055 -18.081  0.00  0.00    -0.019 C 
BRANCH  17  18
ATOM     18  C   UNL     1      36.831 -22.457 -16.980  0.00  0.00    +0.045 C 
BRANCH  18  19
ATOM     19  C   UNL     1      36.115 -22.734 -15.665  0.00  0.00    +0.205 C 
BRANCH  19  20
ATOM     20  O   UNL     1      35.461 -23.994 -15.729  0.00  0.00    -0.475 OA
BRANCH  20  24
ATOM     21  O   UNL     1      30.213 -24.140 -14.007  0.00  0.00    -0.464 OA
ATOM     22  O   UNL     1      28.595 -22.465 -16.770  0.00  0.00    -0.271 OA
ATOM     23  N   UNL     1      30.829 -22.928 -16.487  0.00  0.00    -0.278 N 
ATOM     24  C   UNL     1      34.152 -24.032 -15.322  0.00  0.00    +0.140 C 
ATOM     25  C   UNL     1      33.156 -23.473 -16.122  0.00  0.00    +0.055 C 
ATOM     26  C   UNL     1      31.825 -23.521 -15.705  0.00  0.00    +0.088 C 
ATOM     27  C   UNL     1      33.819 -24.626 -14.104  0.00  0.00    +0.040 C 
ATOM     28  C   UNL     1      31.490 -24.117 -14.491  0.00  0.00    +0.153 C 
ATOM     29  C   UNL     1      32.489 -24.663 -13.684  0.00  0.00    +0.041 C 
ATOM     30  C   UNL     1      29.215 -23.968 -14.996  0.00  0.00    +0.290 C 
ATOM     31  C   UNL     1      29.498 -23.024 -16.152  0.00  0.00    +0.271 C 
ATOM     32  H   UNL     1      31.086 -22.432 -17.297  0.00  0.00    +0.155 HD
ENDBRANCH  20  24
ENDBRANCH  19  20
ENDBRANCH  18  19
ENDBRANCH  17  18
ENDBRANCH   1  17
TORSDOF 7
ENDMDL
MODEL 6
REMARK VINA RESULT:     -10.7      4.062      7.302
REMARK  Name = 46861612
REMARK  7 active torsions:
REMARK  status: ('A' for Active; 'I' for Inactive)
REMARK    1  A    between atoms: C_1  and  N_2
REMARK    2  A    between atoms: C_1  and  C_17
REMARK    3  A    between atoms: N_3  and  C_11
REMARK    4  A    between atoms: C_17  and  C_18
REMARK    5  A    between atoms: C_18  and  C_19
REMARK    6  A    between atoms: C_19  and  O_20
REMARK    7  A    between atoms: O_20  and  C_24
REMARK                            x       y       z     vdW  Elec       q    Type
REMARK                         _______ _______ _______ _____ _____    ______ ____
ROOT
ATOM      1  C   UNL     1      34.740 -17.381 -24.262  0.00  0.00    -0.077 C 
ENDROOT
BRANCH   1   2
ATOM      2  N   UNL     1      34.644 -15.956 -23.949  0.00  0.00    +0.389 N 
ATOM      3  N   UNL     1      33.426 -13.590 -22.913  0.00  0.00    -0.311 N 
ATOM      4  C   UNL     1      33.492 -15.355 -24.631  0.00  0.00    -0.055 C 
ATOM      5  C   UNL     1      34.528 -15.754 -22.501  0.00  0.00    -0.055 C 
ATOM      6  C   UNL     1      34.485 -14.264 -22.155  0.00  0.00    +0.068 C 
ATOM      7  C   UNL     1      33.415 -13.852 -24.358  0.00  0.00    +0.068 C 
ATOM      8  H   UNL     1      35.497 -15.501 -24.279  0.00  0.00    -0.080 HD
BRANCH   3  11
ATOM      9 CL   UNL     1      31.900 -13.697 -20.336  0.00  0.00    -0.080 Cl
ATOM     10 CL   UNL     1      30.791 -10.832 -19.404  0.00  0.00    -0.081 Cl
ATOM     11  C   UNL     1      32.922 -12.365 -22.463  0.00  0.00    +0.059 C 
ATOM     12  C   UNL     1      32.191 -12.266 -21.278  0.00  0.00    +0.081 C 
ATOM     13  C   UNL     1      33.165 -11.225 -23.229  0.00  0.00    +0.015 C 
ATOM     14  C   UNL     1      31.704 -11.028 -20.861  0.00  0.00    +0.069 C 
ATOM     15  C   UNL     1      32.678  -9.987 -22.811  0.00  0.00    +0.002 C 
ATOM     16  C   UNL     1      31.946  -9.888 -21.628  0.00  0.00    +0.012 C 
ENDBRANCH   3  11
ENDBRANCH   1   2
BRANCH   1  17
ATOM     17  C   UNL     1      35.467 -18.124 -23.143  0.00  0.00    -0.019 C 
BRANCH  17  18
ATOM     18  C   UNL     1      34.808 -19.472 -22.854  0.00  0.00    +0.045 C 
BRANCH  18  19
ATOM     19  C   UNL     1      34.602 -19.689 -21.361  0.00  0.00    +0.205 C 
BRANCH  19  20
ATOM     20  O   UNL     1      35.595 -20.575 -20.862  0.00  0.00    -0.475 OA
BRANCH  20  24
ATOM     21  O   UNL     1      34.197 -23.610 -16.462  0.00  0.00    -0.464 OA
ATOM     22  O   UNL     1      37.423 -23.932 -14.866  0.00  0.00    -0.271 OA
ATOM     23  N   UNL     1      36.893 -22.833 -16.815  0.00  0.00    -0.278 N 
ATOM     24  C   UNL     1      35.263 -21.318 -19.759  0.00  0.00    +0.140 C 
ATOM     25  C   UNL     1      36.248 -21.683 -18.842  0.00  0.00    +0.055 C 
ATOM     26  C   UNL     1      35.902 -22.434 -17.717  0.00  0.00    +0.088 C 
ATOM     27  C   UNL     1      33.940 -21.713 -19.558  0.00  0.00    +0.040 C 
ATOM     28  C   UNL     1      34.580 -22.826 -17.513  0.00  0.00    +0.153 C 
ATOM     29  C   UNL     1      33.598 -22.473 -18.439  0.00  0.00    +0.041 C 
ATOM     30  C   UNL     1      35.094 -23.592 -15.368  0.00  0.00    +0.290 C 
ATOM     31  C   UNL     1      36.583 -23.503 -15.654  0.00  0.00    +0.271 C 
ATOM     32  H   UNL     1      37.835 -22.628 -17.014  0.00  0.00    +0.155 HD
ENDBRANCH  20  24
ENDBRANCH  19  20
ENDBRANCH  18  19
ENDBRANCH  17  18
ENDBRANCH   1  17
TORSDOF 7
ENDMDL
MODEL 7
REMARK VINA RESULT:     -10.5      1.246      1.783
REMARK  Name = 46861612
REMARK  7 active torsions:
REMARK  status: ('A' for Active; 'I' for Inactive)
REMARK    1  A    between atoms: C_1  and  N_2
REMARK    2  A    between atoms: C_1  and  C_17
REMARK    3  A    between atoms: N_3  and  C_11
REMARK    4  A    between atoms: C_17  and  C_18
REMARK    5  A    between atoms: C_18  and  C_19
REMARK    6  A    between atoms: C_19  and  O_20
REMARK    7  A    between atoms: O_20  and  C_24
REMARK                            x       y       z     vdW  Elec       q    Type
REMARK                         _______ _______ _______ _____ _____    ______ ____
ROOT
ATOM      1  C   UNL     1      32.142 -10.647 -19.610  0.00  0.00    -0.077 C 
ENDROOT
BRANCH   1   2
ATOM      2  N   UNL     1      31.671  -9.449 -20.303  0.00  0.00    +0.389 N 
ATOM      3  N   UNL     1      31.875  -7.192 -22.041  0.00  0.00    -0.311 N 
ATOM      4  C   UNL     1      32.468  -8.280 -19.911  0.00  0.00    -0.055 C 
ATOM      5  C   UNL     1      31.739  -9.635 -21.757  0.00  0.00    -0.055 C 
ATOM      6  C   UNL     1      31.195  -8.409 -22.495  0.00  0.00    +0.068 C 
ATOM      7  C   UNL     1      31.948  -7.009 -20.586  0.00  0.00    +0.068 C 
ATOM      8  H   UNL     1      30.699  -9.289 -20.036  0.00  0.00    -0.080 HD
BRANCH   3  11
ATOM      9 CL   UNL     1      34.007  -7.077 -24.144  0.00  0.00    -0.080 Cl
ATOM     10 CL   UNL     1      33.880  -4.412 -25.929  0.00  0.00    -0.081 Cl
ATOM     11  C   UNL     1      31.862  -6.048 -22.848  0.00  0.00    +0.059 C 
ATOM     12  C   UNL     1      32.797  -5.862 -23.867  0.00  0.00    +0.081 C 
ATOM     13  C   UNL     1      30.884  -5.082 -22.613  0.00  0.00    +0.015 C 
ATOM     14  C   UNL     1      32.754  -4.709 -24.650  0.00  0.00    +0.069 C 
ATOM     15  C   UNL     1      30.840  -3.929 -23.397  0.00  0.00    +0.002 C 
ATOM     16  C   UNL     1      31.776  -3.743 -24.415  0.00  0.00    +0.012 C 
ENDBRANCH   3  11
ENDBRANCH   1   2
BRANCH   1  17
ATOM     17  C   UNL     1      31.265 -11.846 -19.965  0.00  0.00    -0.019 C 
BRANCH  17  18
ATOM     18  C   UNL     1      32.112 -13.082 -20.262  0.00  0.00    +0.045 C 
BRANCH  18  19
ATOM     19  C   UNL     1      32.350 -13.254 -21.756  0.00  0.00    +0.205 C 
BRANCH  19  20
ATOM     20  O   UNL     1      33.738 -13.431 -22.005  0.00  0.00    -0.475 OA
BRANCH  20  24
ATOM     21  O   UNL     1      35.420 -18.469 -23.528  0.00  0.00    -0.464 OA
ATOM     22  O   UNL     1      36.030 -19.939 -20.284  0.00  0.00    -0.271 OA
ATOM     23  N   UNL     1      35.291 -17.819 -20.779  0.00  0.00    -0.278 N 
ATOM     24  C   UNL     1      34.146 -14.690 -22.365  0.00  0.00    +0.140 C 
ATOM     25  C   UNL     1      34.496 -15.617 -21.384  0.00  0.00    +0.055 C 
ATOM     26  C   UNL     1      34.904 -16.899 -21.758  0.00  0.00    +0.088 C 
ATOM     27  C   UNL     1      34.217 -15.038 -23.714  0.00  0.00    +0.040 C 
ATOM     28  C   UNL     1      34.972 -17.250 -23.105  0.00  0.00    +0.153 C 
ATOM     29  C   UNL     1      34.636 -16.316 -24.086  0.00  0.00    +0.041 C 
ATOM     30  C   UNL     1      35.347 -19.486 -22.547  0.00  0.00    +0.290 C 
ATOM     31  C   UNL     1      35.621 -19.115 -21.099  0.00  0.00    +0.271 C 
ATOM     32  H   UNL     1      35.326 -17.533 -19.838  0.00  0.00    +0.155 HD
ENDBRANCH  20  24
ENDBRANCH  19  20
ENDBRANCH  18  19
ENDBRANCH  17  18
ENDBRANCH   1  17
TORSDOF 7
ENDMDL
MODEL 8
REMARK VINA RESULT:     -10.5      3.870      7.148
REMARK  Name = 46861612
REMARK  7 active torsions:
REMARK  status: ('A' for Active; 'I' for Inactive)
REMARK    1  A    between atoms: C_1  and  N_2
REMARK    2  A    between atoms: C_1  and  C_17
REMARK    3  A    between atoms: N_3  and  C_11
REMARK    4  A    between atoms: C_17  and  C_18
REMARK    5  A    between atoms: C_18  and  C_19
REMARK    6  A    between atoms: C_19  and  O_20
REMARK    7  A    between atoms: O_20  and  C_24
REMARK                            x       y       z     vdW  Elec       q    Type
REMARK                         _______ _______ _______ _____ _____    ______ ____
ROOT
ATOM      1  C   UNL     1      34.678 -17.382 -24.331  0.00  0.00    -0.077 C 
ENDROOT
BRANCH   1   2
ATOM      2  N   UNL     1      34.574 -15.953 -24.037  0.00  0.00    +0.389 N 
ATOM      3  N   UNL     1      33.331 -13.577 -23.054  0.00  0.00    -0.311 N 
ATOM      4  C   UNL     1      33.436 -15.361 -24.750  0.00  0.00    -0.055 C 
ATOM      5  C   UNL     1      34.426 -15.735 -22.593  0.00  0.00    -0.055 C 
ATOM      6  C   UNL     1      34.374 -14.241 -22.265  0.00  0.00    +0.068 C 
ATOM      7  C   UNL     1      33.351 -13.855 -24.496  0.00  0.00    +0.068 C 
ATOM      8  H   UNL     1      35.432 -15.501 -24.353  0.00  0.00    -0.080 HD
BRANCH   3  11
ATOM      9 CL   UNL     1      34.581 -11.158 -24.304  0.00  0.00    -0.080 Cl
ATOM     10 CL   UNL     1      33.324  -8.398 -23.251  0.00  0.00    -0.081 Cl
ATOM     11  C   UNL     1      32.816 -12.347 -22.628  0.00  0.00    +0.059 C 
ATOM     12  C   UNL     1      33.305 -11.139 -23.127  0.00  0.00    +0.081 C 
ATOM     13  C   UNL     1      31.791 -12.349 -21.683  0.00  0.00    +0.015 C 
ATOM     14  C   UNL     1      32.768  -9.932 -22.678  0.00  0.00    +0.069 C 
ATOM     15  C   UNL     1      31.254 -11.142 -21.235  0.00  0.00    +0.002 C 
ATOM     16  C   UNL     1      31.743  -9.934 -21.732  0.00  0.00    +0.012 C 
ENDBRANCH   3  11
ENDBRANCH   1   2
BRANCH   1  17
ATOM     17  C   UNL     1      35.421 -18.104 -23.209  0.00  0.00    -0.019 C 
BRANCH  17  18
ATOM     18  C   UNL     1      34.798 -19.469 -22.921  0.00  0.00    +0.045 C 
BRANCH  18  19
ATOM     19  C   UNL     1      34.625 -19.704 -21.426  0.00  0.00    +0.205 C 
BRANCH  19  20
ATOM     20  O   UNL     1      35.684 -20.518 -20.942  0.00  0.00    -0.475 OA
BRANCH  20  24
ATOM     21  O   UNL     1      34.624 -23.496 -16.410  0.00  0.00    -0.464 OA
ATOM     22  O   UNL     1      37.884 -23.453 -14.850  0.00  0.00    -0.271 OA
ATOM     23  N   UNL     1      37.232 -22.486 -16.831  0.00  0.00    -0.278 N 
ATOM     24  C   UNL     1      35.435 -21.245 -19.806  0.00  0.00    +0.140 C 
ATOM     25  C   UNL     1      36.460 -21.481 -18.890  0.00  0.00    +0.055 C 
ATOM     26  C   UNL     1      36.198 -22.216 -17.733  0.00  0.00    +0.088 C 
ATOM     27  C   UNL     1      34.157 -21.754 -19.572  0.00  0.00    +0.040 C 
ATOM     28  C   UNL     1      34.921 -22.722 -17.495  0.00  0.00    +0.153 C 
ATOM     29  C   UNL     1      33.900 -22.498 -18.420  0.00  0.00    +0.041 C 
ATOM     30  C   UNL     1      35.527 -23.352 -15.330  0.00  0.00    +0.290 C 
ATOM     31  C   UNL     1      36.999 -23.136 -15.641  0.00  0.00    +0.271 C 
ATOM     32  H   UNL     1      38.148 -22.202 -17.052  0.00  0.00    +0.155 HD
ENDBRANCH  20  24
ENDBRANCH  19  20
ENDBRANCH  18  19
ENDBRANCH  17  18
ENDBRANCH   1  17
TORSDOF 7
ENDMDL
MODEL 9
REMARK VINA RESULT:     -10.4      8.196     14.551
REMARK  Name = 46861612
REMARK  7 active torsions:
REMARK  status: ('A' for Active; 'I' for Inactive)
REMARK    1  A    between atoms: C_1  and  N_2
REMARK    2  A    between atoms: C_1  and  C_17
REMARK    3  A    between atoms: N_3  and  C_11
REMARK    4  A    between atoms: C_17  and  C_18
REMARK    5  A    between atoms: C_18  and  C_19
REMARK    6  A    between atoms: C_19  and  O_20
REMARK    7  A    between atoms: O_20  and  C_24
REMARK                            x       y       z     vdW  Elec       q    Type
REMARK                         _______ _______ _______ _____ _____    ______ ____
ROOT
ATOM      1  C   UNL     1      35.095 -22.094 -19.237  0.00  0.00    -0.077 C 
ENDROOT
BRANCH   1   2
ATOM      2  N   UNL     1      35.375 -22.128 -17.802  0.00  0.00    +0.389 N 
ATOM      3  N   UNL     1      36.312 -23.262 -15.355  0.00  0.00    -0.311 N 
ATOM      4  C   UNL     1      34.634 -23.218 -17.158  0.00  0.00    -0.055 C 
ATOM      5  C   UNL     1      36.814 -22.293 -17.563  0.00  0.00    -0.055 C 
ATOM      6  C   UNL     1      37.128 -22.272 -16.065  0.00  0.00    +0.068 C 
ATOM      7  C   UNL     1      34.873 -23.228 -15.647  0.00  0.00    +0.068 C 
ATOM      8  H   UNL     1      35.074 -21.241 -17.399  0.00  0.00    -0.080 HD
BRANCH   3  11
ATOM      9 CL   UNL     1      36.312 -26.239 -15.006  0.00  0.00    -0.080 Cl
ATOM     10 CL   UNL     1      37.253 -27.169 -12.081  0.00  0.00    -0.081 Cl
ATOM     11  C   UNL     1      36.717 -23.720 -14.095  0.00  0.00    +0.059 C 
ATOM     12  C   UNL     1      36.763 -25.081 -13.793  0.00  0.00    +0.081 C 
ATOM     13  C   UNL     1      37.077 -22.778 -13.132  0.00  0.00    +0.015 C 
ATOM     14  C   UNL     1      37.171 -25.500 -12.526  0.00  0.00    +0.069 C 
ATOM     15  C   UNL     1      37.485 -23.197 -11.865  0.00  0.00    +0.002 C 
ATOM     16  C   UNL     1      37.531 -24.558 -11.562  0.00  0.00    +0.012 C 
ENDBRANCH   3  11
ENDBRANCH   1   2
BRANCH   1  17
ATOM     17  C   UNL     1      33.743 -21.435 -19.500  0.00  0.00    -0.019 C 
BRANCH  17  18
ATOM     18  C   UNL     1      33.860 -20.330 -20.548  0.00  0.00    +0.045 C 
BRANCH  18  19
ATOM     19  C   UNL     1      35.312 -20.053 -20.912  0.00  0.00    +0.205 C 
BRANCH  19  20
ATOM     20  O   UNL     1      35.636 -18.703 -20.605  0.00  0.00    -0.475 OA
BRANCH  20  24
ATOM     21  O   UNL     1      33.972 -14.924 -24.276  0.00  0.00    -0.464 OA
ATOM     22  O   UNL     1      32.617 -12.427 -22.041  0.00  0.00    -0.271 OA
ATOM     23  N   UNL     1      33.580 -14.448 -21.515  0.00  0.00    -0.278 N 
ATOM     24  C   UNL     1      35.228 -17.750 -21.502  0.00  0.00    +0.140 C 
ATOM     25  C   UNL     1      34.625 -16.577 -21.048  0.00  0.00    +0.055 C 
ATOM     26  C   UNL     1      34.218 -15.608 -21.966  0.00  0.00    +0.088 C 
ATOM     27  C   UNL     1      35.411 -17.957 -22.870  0.00  0.00    +0.040 C 
ATOM     28  C   UNL     1      34.404 -15.811 -23.332  0.00  0.00    +0.153 C 
ATOM     29  C   UNL     1      34.993 -16.992 -23.786  0.00  0.00    +0.041 C 
ATOM     30  C   UNL     1      33.775 -13.609 -23.789  0.00  0.00    +0.290 C 
ATOM     31  C   UNL     1      33.237 -13.433 -22.379  0.00  0.00    +0.271 C 
ATOM     32  H   UNL     1      33.373 -14.354 -20.558  0.00  0.00    +0.155 HD
ENDBRANCH  20  24
ENDBRANCH  19  20
ENDBRANCH  18  19
ENDBRANCH  17  18
ENDBRANCH   1  17
TORSDOF 7
ENDMDL
