MODEL 1
REMARK VINA RESULT:     -13.1      0.000      0.000
REMARK  Name = 4369496
REMARK  6 active torsions:
REMARK  status: ('A' for Active; 'I' for Inactive)
REMARK    1  A    between atoms: N_2  and  C_21
REMARK    2  A    between atoms: C_3  and  C_10
REMARK    3  A    between atoms: C_5  and  C_11
REMARK    4  A    between atoms: C_11  and  N_12
REMARK    5  A    between atoms: C_23  and  N_27
REMARK    6  A    between atoms: C_31  and  C_36
REMARK                            x       y       z     vdW  Elec       q    Type
REMARK                         _______ _______ _______ _____ _____    ______ ____
ROOT
ATOM      1  O   UNL     1      36.563 -18.347 -20.592  0.00  0.00    -0.270 OA
ATOM      2  N   UNL     1      34.435 -19.289 -20.890  0.00  0.00    -0.280 N 
ATOM      3  C   UNL     1      35.413 -18.297 -21.056  0.00  0.00    +0.249 C 
ATOM      4  H   UNL     1      33.567 -19.108 -21.318  0.00  0.00    +0.155 HD
ENDROOT
BRANCH   3  10
ATOM      5  C   UNL     1      34.233 -14.885 -23.259  0.00  0.00    -0.043 C 
ATOM      6  C   UNL     1      34.637 -16.028 -23.934  0.00  0.00    -0.006 C 
ATOM      7  C   UNL     1      34.209 -14.844 -21.872  0.00  0.00    -0.006 C 
ATOM      8  C   UNL     1      35.025 -17.153 -23.207  0.00  0.00    +0.004 C 
ATOM      9  C   UNL     1      34.598 -15.970 -21.145  0.00  0.00    +0.004 C 
ATOM     10  C   UNL     1      35.006 -17.125 -21.813  0.00  0.00    +0.054 C 
BRANCH   5  11
ATOM     11  C   UNL     1      33.812 -13.670 -24.042  0.00  0.00    -0.050 C 
BRANCH  11  12
ATOM     12  N   UNL     1      33.596 -12.512 -23.177  0.00  0.00    +0.387 N 
ATOM     13  N   UNL     1      32.222 -10.085 -22.415  0.00  0.00    +0.383 N 
ATOM     14  C   UNL     1      32.257 -12.551 -22.578  0.00  0.00    -0.100 C 
ATOM     15  C   UNL     1      33.788 -11.262 -23.921  0.00  0.00    -0.100 C 
ATOM     16  C   UNL     1      32.029 -11.336 -21.672  0.00  0.00    -0.101 C 
ATOM     17  C   UNL     1      33.561 -10.046 -23.016  0.00  0.00    -0.101 C 
ATOM     18  C   UNL     1      32.007  -8.928 -21.549  0.00  0.00    -0.101 C 
ATOM     19  H   UNL     1      34.284 -12.548 -22.425  0.00  0.00    -0.079 HD
ATOM     20  H   UNL     1      31.532 -10.048 -23.166  0.00  0.00    -0.080 HD
ENDBRANCH  11  12
ENDBRANCH   5  11
ENDBRANCH   3  10
BRANCH   2  21
ATOM     21  C   UNL     1      34.532 -20.515 -20.188  0.00  0.00    +0.052 C 
ATOM     22  C   UNL     1      33.432 -20.985 -19.493  0.00  0.00    +0.030 C 
ATOM     23  C   UNL     1      33.529 -22.193 -18.800  0.00  0.00    +0.059 C 
ATOM     24  C   UNL     1      35.726 -21.215 -20.215  0.00  0.00    +0.015 C 
ATOM     25  C   UNL     1      34.724 -22.911 -18.816  0.00  0.00    +0.015 C 
ATOM     26  C   UNL     1      35.823 -22.423 -19.523  0.00  0.00    +0.003 C 
BRANCH  23  27
ATOM     27  N   UNL     1      32.417 -22.688 -18.086  0.00  0.00    -0.247 N 
ATOM     28  N   UNL     1      33.400 -23.324 -16.053  0.00  0.00    -0.337 NA
ATOM     29  N   UNL     1      31.038 -23.615 -16.431  0.00  0.00    -0.170 NA
ATOM     30  C   UNL     1      32.279 -23.235 -16.796  0.00  0.00    +0.149 C 
ATOM     31  C   UNL     1      33.230 -23.853 -14.823  0.00  0.00    +0.147 C 
ATOM     32  C   UNL     1      32.013 -24.278 -14.333  0.00  0.00    +0.055 C 
ATOM     33  C   UNL     1      30.941 -24.135 -15.189  0.00  0.00    +0.114 C 
ATOM     34  H   UNL     1      31.572 -22.642 -18.590  0.00  0.00    +0.165 HD
BRANCH  31  36
ATOM     35  N   UNL     1      35.503 -24.679 -11.986  0.00  0.00    -0.242 NA
ATOM     36  C   UNL     1      34.430 -23.947 -14.026  0.00  0.00    +0.050 C 
ATOM     37  C   UNL     1      35.638 -23.431 -14.484  0.00  0.00    +0.006 C 
ATOM     38  C   UNL     1      34.416 -24.556 -12.782  0.00  0.00    +0.101 C 
ATOM     39  C   UNL     1      36.777 -23.537 -13.693  0.00  0.00    +0.021 C 
ATOM     40  C   UNL     1      36.657 -24.165 -12.464  0.00  0.00    +0.099 C 
ENDBRANCH  31  36
ENDBRANCH  23  27
ENDBRANCH   2  21
TORSDOF 6
ENDMDL
MODEL 2
REMARK VINA RESULT:     -12.9      2.256      5.367
REMARK  Name = 4369496
REMARK  6 active torsions:
REMARK  status: ('A' for Active; 'I' for Inactive)
REMARK    1  A    between atoms: N_2  and  C_21
REMARK    2  A    between atoms: C_3  and  C_10
REMARK    3  A    between atoms: C_5  and  C_11
REMARK    4  A    between atoms: C_11  and  N_12
REMARK    5  A    between atoms: C_23  and  N_27
REMARK    6  A    between atoms: C_31  and  C_36
REMARK                            x       y       z     vdW  Elec       q    Type
REMARK                         _______ _______ _______ _____ _____    ______ ____
ROOT
ATOM      1  O   UNL     1      33.740 -24.036 -18.304  0.00  0.00    -0.270 OA
ATOM      2  N   UNL     1      32.391 -22.347 -17.394  0.00  0.00    -0.280 N 
ATOM      3  C   UNL     1      33.341 -22.861 -18.288  0.00  0.00    +0.249 C 
ATOM      4  H   UNL     1      32.175 -21.393 -17.503  0.00  0.00    +0.155 HD
ENDROOT
BRANCH   3  10
ATOM      5  C   UNL     1      34.964 -20.102 -21.052  0.00  0.00    -0.043 C 
ATOM      6  C   UNL     1      33.588 -20.173 -20.886  0.00  0.00    -0.006 C 
ATOM      7  C   UNL     1      35.816 -20.922 -20.326  0.00  0.00    -0.006 C 
ATOM      8  C   UNL     1      33.053 -21.082 -19.973  0.00  0.00    +0.004 C 
ATOM      9  C   UNL     1      35.281 -21.831 -19.413  0.00  0.00    +0.004 C 
ATOM     10  C   UNL     1      33.899 -21.912 -19.237  0.00  0.00    +0.054 C 
BRANCH   5  11
ATOM     11  C   UNL     1      35.542 -19.119 -22.036  0.00  0.00    -0.050 C 
BRANCH  11  12
ATOM     12  N   UNL     1      34.774 -17.877 -22.080  0.00  0.00    +0.387 N 
ATOM     13  N   UNL     1      34.535 -14.996 -22.144  0.00  0.00    +0.383 N 
ATOM     14  C   UNL     1      35.086 -17.114 -23.294  0.00  0.00    -0.100 C 
ATOM     15  C   UNL     1      35.028 -17.064 -20.884  0.00  0.00    -0.100 C 
ATOM     16  C   UNL     1      34.282 -15.809 -23.340  0.00  0.00    -0.101 C 
ATOM     17  C   UNL     1      34.225 -15.760 -20.929  0.00  0.00    -0.101 C 
ATOM     18  C   UNL     1      33.766 -13.755 -22.188  0.00  0.00    -0.101 C 
ATOM     19  H   UNL     1      33.784 -18.119 -22.099  0.00  0.00    -0.079 HD
ATOM     20  H   UNL     1      35.526 -14.752 -22.126  0.00  0.00    -0.080 HD
ENDBRANCH  11  12
ENDBRANCH   5  11
ENDBRANCH   3  10
BRANCH   2  21
ATOM     21  C   UNL     1      31.702 -23.019 -16.355  0.00  0.00    +0.052 C 
ATOM     22  C   UNL     1      32.413 -23.479 -15.260  0.00  0.00    +0.030 C 
ATOM     23  C   UNL     1      31.734 -24.144 -14.238  0.00  0.00    +0.059 C 
ATOM     24  C   UNL     1      30.334 -23.201 -16.460  0.00  0.00    +0.015 C 
ATOM     25  C   UNL     1      30.355 -24.336 -14.327  0.00  0.00    +0.015 C 
ATOM     26  C   UNL     1      29.655 -23.864 -15.437  0.00  0.00    +0.003 C 
BRANCH  23  27
ATOM     27  N   UNL     1      32.441 -24.618 -13.114  0.00  0.00    -0.247 N 
ATOM     28  N   UNL     1      34.665 -24.210 -13.742  0.00  0.00    -0.337 NA
ATOM     29  N   UNL     1      34.145 -25.213 -11.614  0.00  0.00    -0.170 NA
ATOM     30  C   UNL     1      33.815 -24.684 -12.810  0.00  0.00    +0.149 C 
ATOM     31  C   UNL     1      35.972 -24.288 -13.418  0.00  0.00    +0.147 C 
ATOM     32  C   UNL     1      36.436 -24.808 -12.227  0.00  0.00    +0.055 C 
ATOM     33  C   UNL     1      35.468 -25.261 -11.355  0.00  0.00    +0.114 C 
ATOM     34  H   UNL     1      31.861 -24.975 -12.403  0.00  0.00    +0.165 HD
BRANCH  31  36
ATOM     35  N   UNL     1      39.061 -23.871 -15.461  0.00  0.00    -0.242 NA
ATOM     36  C   UNL     1      36.883 -23.781 -14.415  0.00  0.00    +0.050 C 
ATOM     37  C   UNL     1      36.505 -22.754 -15.275  0.00  0.00    +0.006 C 
ATOM     38  C   UNL     1      38.161 -24.300 -14.549  0.00  0.00    +0.101 C 
ATOM     39  C   UNL     1      37.405 -22.286 -16.227  0.00  0.00    +0.021 C 
ATOM     40  C   UNL     1      38.659 -22.873 -16.278  0.00  0.00    +0.099 C 
ENDBRANCH  31  36
ENDBRANCH  23  27
ENDBRANCH   2  21
TORSDOF 6
ENDMDL
MODEL 3
REMARK VINA RESULT:     -12.3      2.371      5.719
REMARK  Name = 4369496
REMARK  6 active torsions:
REMARK  status: ('A' for Active; 'I' for Inactive)
REMARK    1  A    between atoms: N_2  and  C_21
REMARK    2  A    between atoms: C_3  and  C_10
REMARK    3  A    between atoms: C_5  and  C_11
REMARK    4  A    between atoms: C_11  and  N_12
REMARK    5  A    between atoms: C_23  and  N_27
REMARK    6  A    between atoms: C_31  and  C_36
REMARK                            x       y       z     vdW  Elec       q    Type
REMARK                         _______ _______ _______ _____ _____    ______ ____
ROOT
ATOM      1  O   UNL     1      33.466 -24.200 -18.664  0.00  0.00    -0.270 OA
ATOM      2  N   UNL     1      33.290 -22.626 -16.933  0.00  0.00    -0.280 N 
ATOM      3  C   UNL     1      33.632 -23.050 -18.225  0.00  0.00    +0.249 C 
ATOM      4  H   UNL     1      33.481 -21.683 -16.728  0.00  0.00    +0.155 HD
ENDROOT
BRANCH   3  10
ATOM      5  C   UNL     1      35.428 -20.135 -20.707  0.00  0.00    -0.043 C 
ATOM      6  C   UNL     1      36.231 -21.001 -19.980  0.00  0.00    -0.006 C 
ATOM      7  C   UNL     1      34.044 -20.210 -20.633  0.00  0.00    -0.006 C 
ATOM      8  C   UNL     1      35.639 -21.963 -19.162  0.00  0.00    +0.004 C 
ATOM      9  C   UNL     1      33.452 -21.172 -19.815  0.00  0.00    +0.004 C 
ATOM     10  C   UNL     1      34.249 -22.049 -19.079  0.00  0.00    +0.054 C 
BRANCH   5  11
ATOM     11  C   UNL     1      36.066 -19.097 -21.592  0.00  0.00    -0.050 C 
BRANCH  11  12
ATOM     12  N   UNL     1      35.131 -18.030 -21.941  0.00  0.00    +0.387 N 
ATOM     13  N   UNL     1      34.483 -15.309 -22.674  0.00  0.00    +0.383 N 
ATOM     14  C   UNL     1      35.404 -17.519 -23.290  0.00  0.00    -0.100 C 
ATOM     15  C   UNL     1      35.191 -16.941 -20.959  0.00  0.00    -0.100 C 
ATOM     16  C   UNL     1      34.424 -16.398 -23.657  0.00  0.00    -0.101 C 
ATOM     17  C   UNL     1      34.212 -15.820 -21.325  0.00  0.00    -0.101 C 
ATOM     18  C   UNL     1      33.546 -14.243 -23.024  0.00  0.00    -0.101 C 
ATOM     19  H   UNL     1      34.189 -18.420 -21.931  0.00  0.00    -0.079 HD
ATOM     20  H   UNL     1      35.425 -14.916 -22.686  0.00  0.00    -0.080 HD
ENDBRANCH  11  12
ENDBRANCH   5  11
ENDBRANCH   3  10
BRANCH   2  21
ATOM     21  C   UNL     1      32.704 -23.377 -15.884  0.00  0.00    +0.052 C 
ATOM     22  C   UNL     1      33.329 -23.415 -14.649  0.00  0.00    +0.030 C 
ATOM     23  C   UNL     1      32.752 -24.156 -13.617  0.00  0.00    +0.059 C 
ATOM     24  C   UNL     1      31.520 -24.056 -16.119  0.00  0.00    +0.015 C 
ATOM     25  C   UNL     1      31.560 -24.846 -13.836  0.00  0.00    +0.015 C 
ATOM     26  C   UNL     1      30.944 -24.796 -15.086  0.00  0.00    +0.003 C 
BRANCH  23  27
ATOM     27  N   UNL     1      33.374 -24.205 -12.352  0.00  0.00    -0.247 N 
ATOM     28  N   UNL     1      35.636 -24.418 -12.940  0.00  0.00    -0.337 NA
ATOM     29  N   UNL     1      34.960 -24.343 -10.628  0.00  0.00    -0.170 NA
ATOM     30  C   UNL     1      34.720 -24.328 -11.955  0.00  0.00    +0.149 C 
ATOM     31  C   UNL     1      36.914 -24.535 -12.523  0.00  0.00    +0.147 C 
ATOM     32  C   UNL     1      37.288 -24.561 -11.196  0.00  0.00    +0.055 C 
ATOM     33  C   UNL     1      36.259 -24.461 -10.283  0.00  0.00    +0.114 C 
ATOM     34  H   UNL     1      32.743 -24.141 -11.599  0.00  0.00    +0.165 HD
BRANCH  31  36
ATOM     35  N   UNL     1      38.749 -23.810 -15.686  0.00  0.00    -0.242 NA
ATOM     36  C   UNL     1      37.895 -24.630 -13.577  0.00  0.00    +0.050 C 
ATOM     37  C   UNL     1      38.906 -25.585 -13.532  0.00  0.00    +0.006 C 
ATOM     38  C   UNL     1      37.861 -23.775 -14.667  0.00  0.00    +0.101 C 
ATOM     39  C   UNL     1      39.837 -25.653 -14.563  0.00  0.00    +0.021 C 
ATOM     40  C   UNL     1      39.716 -24.751 -15.607  0.00  0.00    +0.099 C 
ENDBRANCH  31  36
ENDBRANCH  23  27
ENDBRANCH   2  21
TORSDOF 6
ENDMDL
MODEL 4
REMARK VINA RESULT:     -11.1      2.795     13.892
REMARK  Name = 4369496
REMARK  6 active torsions:
REMARK  status: ('A' for Active; 'I' for Inactive)
REMARK    1  A    between atoms: N_2  and  C_21
REMARK    2  A    between atoms: C_3  and  C_10
REMARK    3  A    between atoms: C_5  and  C_11
REMARK    4  A    between atoms: C_11  and  N_12
REMARK    5  A    between atoms: C_23  and  N_27
REMARK    6  A    between atoms: C_31  and  C_36
REMARK                            x       y       z     vdW  Elec       q    Type
REMARK                         _______ _______ _______ _____ _____    ______ ____
ROOT
ATOM      1  O   UNL     1      33.646 -15.687 -24.664  0.00  0.00    -0.270 OA
ATOM      2  N   UNL     1      34.475 -14.336 -22.935  0.00  0.00    -0.280 N 
ATOM      3  C   UNL     1      34.257 -15.556 -23.591  0.00  0.00    +0.249 C 
ATOM      4  H   UNL     1      34.978 -14.390 -22.091  0.00  0.00    +0.155 HD
ENDROOT
BRANCH   3  10
ATOM      5  C   UNL     1      35.768 -18.997 -21.652  0.00  0.00    -0.043 C 
ATOM      6  C   UNL     1      35.539 -19.029 -23.020  0.00  0.00    -0.006 C 
ATOM      7  C   UNL     1      35.510 -17.853 -20.910  0.00  0.00    -0.006 C 
ATOM      8  C   UNL     1      35.041 -17.894 -23.660  0.00  0.00    +0.004 C 
ATOM      9  C   UNL     1      35.013 -16.718 -21.550  0.00  0.00    +0.004 C 
ATOM     10  C   UNL     1      34.778 -16.738 -22.925  0.00  0.00    +0.054 C 
BRANCH   5  11
ATOM     11  C   UNL     1      36.307 -20.222 -20.961  0.00  0.00    -0.050 C 
BRANCH  11  12
ATOM     12  N   UNL     1      35.430 -20.666 -19.879  0.00  0.00    +0.387 N 
ATOM     13  N   UNL     1      33.708 -22.595 -18.586  0.00  0.00    +0.383 N 
ATOM     14  C   UNL     1      35.980 -21.855 -19.217  0.00  0.00    -0.100 C 
ATOM     15  C   UNL     1      34.079 -20.939 -20.382  0.00  0.00    -0.100 C 
ATOM     16  C   UNL     1      35.060 -22.323 -18.084  0.00  0.00    -0.101 C 
ATOM     17  C   UNL     1      33.158 -21.406 -19.250  0.00  0.00    -0.101 C 
ATOM     18  C   UNL     1      32.832 -23.037 -17.504  0.00  0.00    -0.101 C 
ATOM     19  H   UNL     1      35.372 -19.915 -19.192  0.00  0.00    -0.079 HD
ATOM     20  H   UNL     1      33.766 -23.348 -19.272  0.00  0.00    -0.080 HD
ENDBRANCH  11  12
ENDBRANCH   5  11
ENDBRANCH   3  10
BRANCH   2  21
ATOM     21  C   UNL     1      34.068 -13.037 -23.327  0.00  0.00    +0.052 C 
ATOM     22  C   UNL     1      33.488 -12.199 -22.390  0.00  0.00    +0.030 C 
ATOM     23  C   UNL     1      33.085 -10.921 -22.777  0.00  0.00    +0.059 C 
ATOM     24  C   UNL     1      34.258 -12.637 -24.638  0.00  0.00    +0.015 C 
ATOM     25  C   UNL     1      33.269 -10.501 -24.095  0.00  0.00    +0.015 C 
ATOM     26  C   UNL     1      33.855 -11.358 -25.025  0.00  0.00    +0.003 C 
BRANCH  23  27
ATOM     27  N   UNL     1      32.494 -10.052 -21.836  0.00  0.00    -0.247 N 
ATOM     28  N   UNL     1      32.770  -7.965 -22.872  0.00  0.00    -0.337 NA
ATOM     29  N   UNL     1      31.692  -8.148 -20.725  0.00  0.00    -0.170 NA
ATOM     30  C   UNL     1      32.310  -8.656 -21.810  0.00  0.00    +0.149 C 
ATOM     31  C   UNL     1      32.577  -6.631 -22.814  0.00  0.00    +0.147 C 
ATOM     32  C   UNL     1      31.958  -5.992 -21.760  0.00  0.00    +0.055 C 
ATOM     33  C   UNL     1      31.532  -6.808 -20.733  0.00  0.00    +0.114 C 
ATOM     34  H   UNL     1      32.142 -10.513 -21.040  0.00  0.00    +0.165 HD
BRANCH  31  36
ATOM     35  N   UNL     1      32.774  -4.068 -25.513  0.00  0.00    -0.242 NA
ATOM     36  C   UNL     1      33.068  -5.891 -23.951  0.00  0.00    +0.050 C 
ATOM     37  C   UNL     1      34.257  -6.246 -24.579  0.00  0.00    +0.006 C 
ATOM     38  C   UNL     1      32.370  -4.804 -24.453  0.00  0.00    +0.101 C 
ATOM     39  C   UNL     1      34.705  -5.513 -25.673  0.00  0.00    +0.021 C 
ATOM     40  C   UNL     1      33.933  -4.443 -26.096  0.00  0.00    +0.099 C 
ENDBRANCH  31  36
ENDBRANCH  23  27
ENDBRANCH   2  21
TORSDOF 6
ENDMDL
MODEL 5
REMARK VINA RESULT:     -11.0      1.458      2.682
REMARK  Name = 4369496
REMARK  6 active torsions:
REMARK  status: ('A' for Active; 'I' for Inactive)
REMARK    1  A    between atoms: N_2  and  C_21
REMARK    2  A    between atoms: C_3  and  C_10
REMARK    3  A    between atoms: C_5  and  C_11
REMARK    4  A    between atoms: C_11  and  N_12
REMARK    5  A    between atoms: C_23  and  N_27
REMARK    6  A    between atoms: C_31  and  C_36
REMARK                            x       y       z     vdW  Elec       q    Type
REMARK                         _______ _______ _______ _____ _____    ______ ____
ROOT
ATOM      1  O   UNL     1      36.276 -18.981 -22.358  0.00  0.00    -0.270 OA
ATOM      2  N   UNL     1      34.251 -18.921 -21.174  0.00  0.00    -0.280 N 
ATOM      3  C   UNL     1      35.210 -18.416 -22.064  0.00  0.00    +0.249 C 
ATOM      4  H   UNL     1      33.454 -18.359 -21.041  0.00  0.00    +0.155 HD
ENDROOT
BRANCH   3  10
ATOM      5  C   UNL     1      34.346 -14.644 -23.772  0.00  0.00    -0.043 C 
ATOM      6  C   UNL     1      34.417 -15.764 -24.588  0.00  0.00    -0.006 C 
ATOM      7  C   UNL     1      34.553 -14.743 -22.403  0.00  0.00    -0.006 C 
ATOM      8  C   UNL     1      34.701 -17.008 -24.025  0.00  0.00    +0.004 C 
ATOM      9  C   UNL     1      34.837 -15.987 -21.840  0.00  0.00    +0.004 C 
ATOM     10  C   UNL     1      34.911 -17.120 -22.651  0.00  0.00    +0.054 C 
BRANCH   5  11
ATOM     11  C   UNL     1      34.038 -13.301 -24.379  0.00  0.00    -0.050 C 
BRANCH  11  12
ATOM     12  N   UNL     1      33.724 -12.302 -23.359  0.00  0.00    +0.387 N 
ATOM     13  N   UNL     1      32.123 -10.164 -22.254  0.00  0.00    +0.383 N 
ATOM     14  C   UNL     1      32.412 -12.566 -22.757  0.00  0.00    -0.100 C 
ATOM     15  C   UNL     1      33.765 -10.949 -23.926  0.00  0.00    -0.100 C 
ATOM     16  C   UNL     1      32.082 -11.518 -21.689  0.00  0.00    -0.101 C 
ATOM     17  C   UNL     1      33.435  -9.899 -22.858  0.00  0.00    -0.101 C 
ATOM     18  C   UNL     1      31.811  -9.165 -21.233  0.00  0.00    -0.101 C 
ATOM     19  H   UNL     1      34.432 -12.366 -22.628  0.00  0.00    -0.079 HD
ATOM     20  H   UNL     1      31.413 -10.099 -22.985  0.00  0.00    -0.080 HD
ENDBRANCH  11  12
ENDBRANCH   5  11
ENDBRANCH   3  10
BRANCH   2  21
ATOM     21  C   UNL     1      34.279 -20.132 -20.441  0.00  0.00    +0.052 C 
ATOM     22  C   UNL     1      35.405 -20.448 -19.699  0.00  0.00    +0.030 C 
ATOM     23  C   UNL     1      35.433 -21.642 -18.979  0.00  0.00    +0.059 C 
ATOM     24  C   UNL     1      33.180 -20.973 -20.484  0.00  0.00    +0.015 C 
ATOM     25  C   UNL     1      34.334 -22.501 -19.010  0.00  0.00    +0.015 C 
ATOM     26  C   UNL     1      33.208 -22.167 -19.762  0.00  0.00    +0.003 C 
BRANCH  23  27
ATOM     27  N   UNL     1      36.571 -21.979 -18.216  0.00  0.00    -0.247 N 
ATOM     28  N   UNL     1      35.600 -22.949 -16.312  0.00  0.00    -0.337 NA
ATOM     29  N   UNL     1      37.993 -22.762 -16.522  0.00  0.00    -0.170 NA
ATOM     30  C   UNL     1      36.728 -22.592 -16.958  0.00  0.00    +0.149 C 
ATOM     31  C   UNL     1      35.788 -23.532 -15.111  0.00  0.00    +0.147 C 
ATOM     32  C   UNL     1      37.031 -23.762 -14.557  0.00  0.00    +0.055 C 
ATOM     33  C   UNL     1      38.108 -23.351 -15.314  0.00  0.00    +0.114 C 
ATOM     34  H   UNL     1      37.422 -21.738 -18.649  0.00  0.00    +0.165 HD
BRANCH  31  36
ATOM     35  N   UNL     1      33.540 -24.951 -12.498  0.00  0.00    -0.242 NA
ATOM     36  C   UNL     1      34.581 -23.915 -14.420  0.00  0.00    +0.050 C 
ATOM     37  C   UNL     1      33.327 -23.642 -14.959  0.00  0.00    +0.006 C 
ATOM     38  C   UNL     1      34.631 -24.566 -13.197  0.00  0.00    +0.101 C 
ATOM     39  C   UNL     1      32.182 -24.024 -14.270  0.00  0.00    +0.021 C 
ATOM     40  C   UNL     1      32.341 -24.669 -13.054  0.00  0.00    +0.099 C 
ENDBRANCH  31  36
ENDBRANCH  23  27
ENDBRANCH   2  21
TORSDOF 6
ENDMDL
MODEL 6
REMARK VINA RESULT:     -10.9      2.011     12.820
REMARK  Name = 4369496
REMARK  6 active torsions:
REMARK  status: ('A' for Active; 'I' for Inactive)
REMARK    1  A    between atoms: N_2  and  C_21
REMARK    2  A    between atoms: C_3  and  C_10
REMARK    3  A    between atoms: C_5  and  C_11
REMARK    4  A    between atoms: C_11  and  N_12
REMARK    5  A    between atoms: C_23  and  N_27
REMARK    6  A    between atoms: C_31  and  C_36
REMARK                            x       y       z     vdW  Elec       q    Type
REMARK                         _______ _______ _______ _____ _____    ______ ____
ROOT
ATOM      1  O   UNL     1      35.451 -16.941 -23.048  0.00  0.00    -0.270 OA
ATOM      2  N   UNL     1      34.116 -16.340 -21.215  0.00  0.00    -0.280 N 
ATOM      3  C   UNL     1      34.976 -17.187 -21.928  0.00  0.00    +0.249 C 
ATOM      4  H   UNL     1      33.820 -16.672 -20.337  0.00  0.00    +0.155 HD
ENDROOT
BRANCH   3  10
ATOM      5  C   UNL     1      35.905 -20.871 -20.069  0.00  0.00    -0.043 C 
ATOM      6  C   UNL     1      36.927 -19.986 -20.380  0.00  0.00    -0.006 C 
ATOM      7  C   UNL     1      34.582 -20.567 -20.359  0.00  0.00    -0.006 C 
ATOM      8  C   UNL     1      36.621 -18.771 -20.992  0.00  0.00    +0.004 C 
ATOM      9  C   UNL     1      34.276 -19.351 -20.971  0.00  0.00    +0.004 C 
ATOM     10  C   UNL     1      35.295 -18.453 -21.288  0.00  0.00    +0.054 C 
BRANCH   5  11
ATOM     11  C   UNL     1      36.234 -22.183 -19.407  0.00  0.00    -0.050 C 
BRANCH  11  12
ATOM     12  N   UNL     1      35.510 -22.354 -18.149  0.00  0.00    +0.387 N 
ATOM     13  N   UNL     1      34.631 -23.906 -15.873  0.00  0.00    +0.383 N 
ATOM     14  C   UNL     1      36.431 -22.697 -17.060  0.00  0.00    -0.100 C 
ATOM     15  C   UNL     1      34.470 -23.382 -18.283  0.00  0.00    -0.100 C 
ATOM     16  C   UNL     1      35.673 -22.880 -15.740  0.00  0.00    -0.101 C 
ATOM     17  C   UNL     1      33.710 -23.564 -16.964  0.00  0.00    -0.101 C 
ATOM     18  C   UNL     1      33.907 -24.076 -14.616  0.00  0.00    -0.101 C 
ATOM     19  H   UNL     1      35.060 -21.469 -17.921  0.00  0.00    -0.079 HD
ATOM     20  H   UNL     1      35.082 -24.794 -16.099  0.00  0.00    -0.080 HD
ENDBRANCH  11  12
ENDBRANCH   5  11
ENDBRANCH   3  10
BRANCH   2  21
ATOM     21  C   UNL     1      33.616 -15.070 -21.593  0.00  0.00    +0.052 C 
ATOM     22  C   UNL     1      33.100 -14.230 -20.621  0.00  0.00    +0.030 C 
ATOM     23  C   UNL     1      32.606 -12.979 -20.994  0.00  0.00    +0.059 C 
ATOM     24  C   UNL     1      33.655 -14.698 -22.926  0.00  0.00    +0.015 C 
ATOM     25  C   UNL     1      32.638 -12.588 -22.332  0.00  0.00    +0.015 C 
ATOM     26  C   UNL     1      33.162 -13.447 -23.298  0.00  0.00    +0.003 C 
BRANCH  23  27
ATOM     27  N   UNL     1      32.078 -12.110 -20.016  0.00  0.00    -0.247 N 
ATOM     28  N   UNL     1      32.406 -10.012 -21.016  0.00  0.00    -0.337 NA
ATOM     29  N   UNL     1      31.385 -10.201 -18.841  0.00  0.00    -0.170 NA
ATOM     30  C   UNL     1      31.951 -10.709 -19.955  0.00  0.00    +0.149 C 
ATOM     31  C   UNL     1      32.269  -8.673 -20.923  0.00  0.00    +0.147 C 
ATOM     32  C   UNL     1      31.706  -8.034 -19.837  0.00  0.00    +0.055 C 
ATOM     33  C   UNL     1      31.278  -8.856 -18.816  0.00  0.00    +0.114 C 
ATOM     34  H   UNL     1      31.731 -12.574 -19.220  0.00  0.00    +0.165 HD
BRANCH  31  36
ATOM     35  N   UNL     1      34.155  -7.843 -24.028  0.00  0.00    -0.242 NA
ATOM     36  C   UNL     1      32.755  -7.927 -22.058  0.00  0.00    +0.050 C 
ATOM     37  C   UNL     1      32.330  -6.624 -22.297  0.00  0.00    +0.006 C 
ATOM     38  C   UNL     1      33.661  -8.485 -22.947  0.00  0.00    +0.101 C 
ATOM     39  C   UNL     1      32.817  -5.931 -23.399  0.00  0.00    +0.021 C 
ATOM     40  C   UNL     1      33.719  -6.579 -24.227  0.00  0.00    +0.099 C 
ENDBRANCH  31  36
ENDBRANCH  23  27
ENDBRANCH   2  21
TORSDOF 6
ENDMDL
MODEL 7
REMARK VINA RESULT:     -10.9      6.388     15.651
REMARK  Name = 4369496
REMARK  6 active torsions:
REMARK  status: ('A' for Active; 'I' for Inactive)
REMARK    1  A    between atoms: N_2  and  C_21
REMARK    2  A    between atoms: C_3  and  C_10
REMARK    3  A    between atoms: C_5  and  C_11
REMARK    4  A    between atoms: C_11  and  N_12
REMARK    5  A    between atoms: C_23  and  N_27
REMARK    6  A    between atoms: C_31  and  C_36
REMARK                            x       y       z     vdW  Elec       q    Type
REMARK                         _______ _______ _______ _____ _____    ______ ____
ROOT
ATOM      1  O   UNL     1      34.616  -9.273 -23.528  0.00  0.00    -0.270 OA
ATOM      2  N   UNL     1      32.630  -9.655 -22.340  0.00  0.00    -0.280 N 
ATOM      3  C   UNL     1      33.684 -10.020 -23.189  0.00  0.00    +0.249 C 
ATOM      4  H   UNL     1      31.963 -10.356 -22.162  0.00  0.00    +0.155 HD
ENDROOT
BRANCH   3  10
ATOM      5  C   UNL     1      33.543 -13.960 -24.719  0.00  0.00    -0.043 C 
ATOM      6  C   UNL     1      34.016 -12.932 -25.522  0.00  0.00    -0.006 C 
ATOM      7  C   UNL     1      33.115 -13.716 -23.422  0.00  0.00    -0.006 C 
ATOM      8  C   UNL     1      34.064 -11.633 -25.017  0.00  0.00    +0.004 C 
ATOM      9  C   UNL     1      33.162 -12.416 -22.917  0.00  0.00    +0.004 C 
ATOM     10  C   UNL     1      33.637 -11.375 -23.714  0.00  0.00    +0.054 C 
BRANCH   5  11
ATOM     11  C   UNL     1      33.492 -15.364 -25.263  0.00  0.00    -0.050 C 
BRANCH  11  12
ATOM     12  N   UNL     1      33.892 -16.350 -24.262  0.00  0.00    +0.387 N 
ATOM     13  N   UNL     1      35.808 -18.110 -23.000  0.00  0.00    +0.383 N 
ATOM     14  C   UNL     1      34.965 -15.823 -23.411  0.00  0.00    -0.100 C 
ATOM     15  C   UNL     1      34.314 -17.601 -24.902  0.00  0.00    -0.100 C 
ATOM     16  C   UNL     1      35.387 -16.857 -22.361  0.00  0.00    -0.101 C 
ATOM     17  C   UNL     1      34.735 -18.637 -23.853  0.00  0.00    -0.101 C 
ATOM     18  C   UNL     1      36.206 -19.096 -21.998  0.00  0.00    -0.101 C 
ATOM     19  H   UNL     1      33.083 -16.547 -23.673  0.00  0.00    -0.079 HD
ATOM     20  H   UNL     1      36.619 -17.914 -23.588  0.00  0.00    -0.080 HD
ENDBRANCH  11  12
ENDBRANCH   5  11
ENDBRANCH   3  10
BRANCH   2  21
ATOM     21  C   UNL     1      32.399  -8.410 -21.704  0.00  0.00    +0.052 C 
ATOM     22  C   UNL     1      31.685  -7.432 -22.374  0.00  0.00    +0.030 C 
ATOM     23  C   UNL     1      31.459  -6.205 -21.749  0.00  0.00    +0.059 C 
ATOM     24  C   UNL     1      32.894  -8.201 -20.429  0.00  0.00    +0.015 C 
ATOM     25  C   UNL     1      31.951  -5.977 -20.463  0.00  0.00    +0.015 C 
ATOM     26  C   UNL     1      32.668  -6.975 -19.803  0.00  0.00    +0.003 C 
BRANCH  23  27
ATOM     27  N   UNL     1      30.732  -5.197 -22.415  0.00  0.00    -0.247 N 
ATOM     28  N   UNL     1      32.215  -4.595 -24.132  0.00  0.00    -0.337 NA
ATOM     29  N   UNL     1      30.074  -3.511 -23.908  0.00  0.00    -0.170 NA
ATOM     30  C   UNL     1      31.021  -4.397 -23.538  0.00  0.00    +0.149 C 
ATOM     31  C   UNL     1      32.457  -3.812 -25.203  0.00  0.00    +0.147 C 
ATOM     32  C   UNL     1      31.570  -2.870 -25.681  0.00  0.00    +0.055 C 
ATOM     33  C   UNL     1      30.383  -2.761 -24.987  0.00  0.00    +0.114 C 
ATOM     34  H   UNL     1      29.850  -5.017 -22.017  0.00  0.00    +0.165 HD
BRANCH  31  36
ATOM     35  N   UNL     1      35.473  -3.204 -27.307  0.00  0.00    -0.242 NA
ATOM     36  C   UNL     1      33.735  -4.024 -25.840  0.00  0.00    +0.050 C 
ATOM     37  C   UNL     1      34.456  -5.195 -25.630  0.00  0.00    +0.006 C 
ATOM     38  C   UNL     1      34.283  -3.068 -26.681  0.00  0.00    +0.101 C 
ATOM     39  C   UNL     1      35.684  -5.371 -26.258  0.00  0.00    +0.021 C 
ATOM     40  C   UNL     1      36.144  -4.354 -27.079  0.00  0.00    +0.099 C 
ENDBRANCH  31  36
ENDBRANCH  23  27
ENDBRANCH   2  21
TORSDOF 6
ENDMDL
MODEL 8
REMARK VINA RESULT:     -10.9      2.545     11.061
REMARK  Name = 4369496
REMARK  6 active torsions:
REMARK  status: ('A' for Active; 'I' for Inactive)
REMARK    1  A    between atoms: N_2  and  C_21
REMARK    2  A    between atoms: C_3  and  C_10
REMARK    3  A    between atoms: C_5  and  C_11
REMARK    4  A    between atoms: C_11  and  N_12
REMARK    5  A    between atoms: C_23  and  N_27
REMARK    6  A    between atoms: C_31  and  C_36
REMARK                            x       y       z     vdW  Elec       q    Type
REMARK                         _______ _______ _______ _____ _____    ______ ____
ROOT
ATOM      1  O   UNL     1      36.673 -22.133 -18.973  0.00  0.00    -0.270 OA
ATOM      2  N   UNL     1      35.114 -20.598 -19.819  0.00  0.00    -0.280 N 
ATOM      3  C   UNL     1      35.519 -21.678 -19.022  0.00  0.00    +0.249 C 
ATOM      4  H   UNL     1      34.164 -20.350 -19.752  0.00  0.00    +0.155 HD
ENDROOT
BRANCH   3  10
ATOM      5  C   UNL     1      32.488 -23.496 -16.699  0.00  0.00    -0.043 C 
ATOM      6  C   UNL     1      32.135 -22.681 -17.765  0.00  0.00    -0.006 C 
ATOM      7  C   UNL     1      33.820 -23.725 -16.384  0.00  0.00    -0.006 C 
ATOM      8  C   UNL     1      33.135 -22.082 -18.531  0.00  0.00    +0.004 C 
ATOM      9  C   UNL     1      34.819 -23.126 -17.150  0.00  0.00    +0.004 C 
ATOM     10  C   UNL     1      34.477 -22.304 -18.224  0.00  0.00    +0.054 C 
BRANCH   5  11
ATOM     11  C   UNL     1      31.409 -24.145 -15.872  0.00  0.00    -0.050 C 
BRANCH  11  12
ATOM     12  N   UNL     1      30.152 -23.401 -15.938  0.00  0.00    +0.387 N 
ATOM     13  N   UNL     1      27.335 -23.050 -15.390  0.00  0.00    +0.383 N 
ATOM     14  C   UNL     1      29.674 -23.066 -14.591  0.00  0.00    -0.100 C 
ATOM     15  C   UNL     1      29.133 -24.164 -16.668  0.00  0.00    -0.100 C 
ATOM     16  C   UNL     1      28.355 -22.289 -14.659  0.00  0.00    -0.101 C 
ATOM     17  C   UNL     1      27.814 -23.387 -16.737  0.00  0.00    -0.101 C 
ATOM     18  C   UNL     1      26.080 -22.305 -15.456  0.00  0.00    -0.101 C 
ATOM     19  H   UNL     1      30.326 -22.532 -16.442  0.00  0.00    -0.079 HD
ATOM     20  H   UNL     1      27.159 -23.919 -14.885  0.00  0.00    -0.080 HD
ENDBRANCH  11  12
ENDBRANCH   5  11
ENDBRANCH   3  10
BRANCH   2  21
ATOM     21  C   UNL     1      35.892 -19.817 -20.709  0.00  0.00    +0.052 C 
ATOM     22  C   UNL     1      35.315 -19.342 -21.874  0.00  0.00    +0.030 C 
ATOM     23  C   UNL     1      36.082 -18.575 -22.751  0.00  0.00    +0.059 C 
ATOM     24  C   UNL     1      37.212 -19.546 -20.392  0.00  0.00    +0.015 C 
ATOM     25  C   UNL     1      37.414 -18.292 -22.447  0.00  0.00    +0.015 C 
ATOM     26  C   UNL     1      37.979 -18.778 -21.268  0.00  0.00    +0.003 C 
BRANCH  23  27
ATOM     27  N   UNL     1      35.510 -18.082 -23.942  0.00  0.00    -0.247 N 
ATOM     28  N   UNL     1      34.303 -16.228 -23.161  0.00  0.00    -0.337 NA
ATOM     29  N   UNL     1      34.302 -16.809 -25.499  0.00  0.00    -0.170 NA
ATOM     30  C   UNL     1      34.665 -16.989 -24.213  0.00  0.00    +0.149 C 
ATOM     31  C   UNL     1      33.493 -15.190 -23.457  0.00  0.00    +0.147 C 
ATOM     32  C   UNL     1      33.053 -14.901 -24.732  0.00  0.00    +0.055 C 
ATOM     33  C   UNL     1      33.493 -15.753 -25.723  0.00  0.00    +0.114 C 
ATOM     34  H   UNL     1      35.748 -18.606 -24.741  0.00  0.00    +0.165 HD
BRANCH  31  36
ATOM     35  N   UNL     1      32.369 -12.231 -21.489  0.00  0.00    -0.242 NA
ATOM     36  C   UNL     1      33.106 -14.375 -22.331  0.00  0.00    +0.050 C 
ATOM     37  C   UNL     1      33.085 -14.895 -21.041  0.00  0.00    +0.006 C 
ATOM     38  C   UNL     1      32.742 -13.048 -22.499  0.00  0.00    +0.101 C 
ATOM     39  C   UNL     1      32.707 -14.085 -19.976  0.00  0.00    +0.021 C 
ATOM     40  C   UNL     1      32.361 -12.772 -20.251  0.00  0.00    +0.099 C 
ENDBRANCH  31  36
ENDBRANCH  23  27
ENDBRANCH   2  21
TORSDOF 6
ENDMDL
MODEL 9
REMARK VINA RESULT:     -10.8      1.602      2.404
REMARK  Name = 4369496
REMARK  6 active torsions:
REMARK  status: ('A' for Active; 'I' for Inactive)
REMARK    1  A    between atoms: N_2  and  C_21
REMARK    2  A    between atoms: C_3  and  C_10
REMARK    3  A    between atoms: C_5  and  C_11
REMARK    4  A    between atoms: C_11  and  N_12
REMARK    5  A    between atoms: C_23  and  N_27
REMARK    6  A    between atoms: C_31  and  C_36
REMARK                            x       y       z     vdW  Elec       q    Type
REMARK                         _______ _______ _______ _____ _____    ______ ____
ROOT
ATOM      1  O   UNL     1      34.734 -16.234 -19.587  0.00  0.00    -0.270 OA
ATOM      2  N   UNL     1      34.455 -17.494 -21.546  0.00  0.00    -0.280 N 
ATOM      3  C   UNL     1      34.472 -16.309 -20.798  0.00  0.00    +0.249 C 
ATOM      4  H   UNL     1      34.229 -17.395 -22.499  0.00  0.00    +0.155 HD
ENDROOT
BRANCH   3  10
ATOM      5  C   UNL     1      33.462 -12.783 -22.905  0.00  0.00    -0.043 C 
ATOM      6  C   UNL     1      32.999 -12.961 -21.609  0.00  0.00    -0.006 C 
ATOM      7  C   UNL     1      34.252 -13.743 -23.520  0.00  0.00    -0.006 C 
ATOM      8  C   UNL     1      33.333 -14.123 -20.914  0.00  0.00    +0.004 C 
ATOM      9  C   UNL     1      34.586 -14.906 -22.825  0.00  0.00    +0.004 C 
ATOM     10  C   UNL     1      34.126 -15.096 -21.522  0.00  0.00    +0.054 C 
BRANCH   5  11
ATOM     11  C   UNL     1      33.104 -11.527 -23.655  0.00  0.00    -0.050 C 
BRANCH  11  12
ATOM     12  N   UNL     1      33.068 -10.359 -22.777  0.00  0.00    +0.387 N 
ATOM     13  N   UNL     1      32.474  -7.591 -22.195  0.00  0.00    +0.383 N 
ATOM     14  C   UNL     1      31.688  -9.904 -22.571  0.00  0.00    -0.100 C 
ATOM     15  C   UNL     1      33.891  -9.273 -23.321  0.00  0.00    -0.100 C 
ATOM     16  C   UNL     1      31.650  -8.678 -21.652  0.00  0.00    -0.101 C 
ATOM     17  C   UNL     1      33.854  -8.047 -22.402  0.00  0.00    -0.101 C 
ATOM     18  C   UNL     1      32.439  -6.424 -21.315  0.00  0.00    -0.101 C 
ATOM     19  H   UNL     1      33.453 -10.633 -21.873  0.00  0.00    -0.079 HD
ATOM     20  H   UNL     1      32.087  -7.315 -23.098  0.00  0.00    -0.080 HD
ENDBRANCH  11  12
ENDBRANCH   5  11
ENDBRANCH   3  10
BRANCH   2  21
ATOM     21  C   UNL     1      34.722 -18.816 -21.111  0.00  0.00    +0.052 C 
ATOM     22  C   UNL     1      33.760 -19.495 -20.383  0.00  0.00    +0.030 C 
ATOM     23  C   UNL     1      34.023 -20.796 -19.953  0.00  0.00    +0.059 C 
ATOM     24  C   UNL     1      35.938 -19.397 -21.424  0.00  0.00    +0.015 C 
ATOM     25  C   UNL     1      35.244 -21.397 -20.260  0.00  0.00    +0.015 C 
ATOM     26  C   UNL     1      36.201 -20.698 -20.995  0.00  0.00    +0.003 C 
BRANCH  23  27
ATOM     27  N   UNL     1      33.054 -21.503 -19.212  0.00  0.00    -0.247 N 
ATOM     28  N   UNL     1      34.371 -22.531 -17.564  0.00  0.00    -0.337 NA
ATOM     29  N   UNL     1      31.985 -22.862 -17.627  0.00  0.00    -0.170 NA
ATOM     30  C   UNL     1      33.141 -22.338 -18.081  0.00  0.00    +0.149 C 
ATOM     31  C   UNL     1      34.417 -23.336 -16.482  0.00  0.00    +0.147 C 
ATOM     32  C   UNL     1      33.305 -23.932 -15.922  0.00  0.00    +0.055 C 
ATOM     33  C   UNL     1      32.104 -23.657 -16.542  0.00  0.00    +0.114 C 
ATOM     34  H   UNL     1      32.137 -21.392 -19.553  0.00  0.00    +0.165 HD
BRANCH  31  36
ATOM     35  N   UNL     1      37.181 -24.804 -14.458  0.00  0.00    -0.242 NA
ATOM     36  C   UNL     1      35.733 -23.543 -15.927  0.00  0.00    +0.050 C 
ATOM     37  C   UNL     1      36.801 -22.730 -16.293  0.00  0.00    +0.006 C 
ATOM     38  C   UNL     1      35.974 -24.556 -15.014  0.00  0.00    +0.101 C 
ATOM     39  C   UNL     1      38.058 -22.953 -15.741  0.00  0.00    +0.021 C 
ATOM     40  C   UNL     1      38.194 -23.994 -14.837  0.00  0.00    +0.099 C 
ENDBRANCH  31  36
ENDBRANCH  23  27
ENDBRANCH   2  21
TORSDOF 6
ENDMDL
