MODEL 1
REMARK VINA RESULT:     -11.5      0.000      0.000
REMARK  Name = 657131
REMARK  7 active torsions:
REMARK  status: ('A' for Active; 'I' for Inactive)
REMARK    1  A    between atoms: C_1  and  CA_2
REMARK    2  A    between atoms: C_1  and  C_3
REMARK    3  A    between atoms: CA_2  and  C_28
REMARK    4  A    between atoms: C_4  and  O_9
REMARK    5  A    between atoms: O_9  and  C_11
REMARK    6  A    between atoms: C_19  and  C_21
REMARK    7  A    between atoms: C_28  and  O_29
REMARK                            x       y       z     vdW  Elec       q    Type
REMARK                         _______ _______ _______ _____ _____    ______ ____
ROOT
ATOM      1  C   UNL     1      35.045 -16.082 -20.930  0.00  0.00    +0.074 C 
ENDROOT
BRANCH   1   2
ATOM      2  C   UNL     1      34.090 -15.008 -21.146  0.00  0.00    -0.016 C 
ATOM      3  C   UNL     1      32.259 -12.944 -21.563  0.00  0.00    +0.145 C 
ATOM      4  C   UNL     1      33.012 -14.845 -20.276  0.00  0.00    -0.001 C 
ATOM      5  C   UNL     1      34.253 -14.137 -22.225  0.00  0.00    -0.001 C 
ATOM      6  C   UNL     1      32.096 -13.813 -20.484  0.00  0.00    +0.037 C 
ATOM      7  C   UNL     1      33.337 -13.106 -22.433  0.00  0.00    +0.037 C 
BRANCH   3   8
ATOM      8  O   UNL     1      31.366 -11.938 -21.765  0.00  0.00    -0.453 OA
BRANCH   8  10
ATOM      9 BR   UNL     1      30.987 -11.027 -18.803  0.00  0.00    -0.046 Br
ATOM     10  C   UNL     1      31.795 -10.640 -21.538  0.00  0.00    +0.151 C 
ATOM     11  C   UNL     1      31.700 -10.075 -20.278  0.00  0.00    +0.069 C 
ATOM     12  C   UNL     1      32.317  -9.938 -22.610  0.00  0.00    +0.038 C 
ATOM     13  C   UNL     1      32.142  -8.766 -20.084  0.00  0.00    +0.010 C 
ATOM     14  C   UNL     1      32.759  -8.629 -22.416  0.00  0.00    +0.003 C 
ATOM     15  C   UNL     1      32.671  -8.043 -21.153  0.00  0.00    +0.001 C 
ENDBRANCH   8  10
ENDBRANCH   3   8
ENDBRANCH   1   2
BRANCH   1  16
ATOM     16  CA  UNL     1      34.960 -17.339 -21.423  0.00  0.00    +0.108 C 
ATOM     17  O   UNL     1      34.758 -20.036 -22.337  0.00  0.00    -0.270 OA
ATOM     18  N   UNL     1      34.731 -18.440 -20.646  0.00  0.00    -0.278 N 
ATOM     19  C   UNL     1      34.643 -19.727 -21.153  0.00  0.00    +0.249 C 
ATOM     20  H   UNL     1      34.622 -18.312 -19.676  0.00  0.00    +0.155 HD
BRANCH  19  21
ATOM     21  C   UNL     1      34.413 -20.798 -20.149  0.00  0.00    +0.054 C 
ATOM     22  C   UNL     1      35.501 -21.467 -19.628  0.00  0.00    +0.005 C 
ATOM     23  C   UNL     1      33.120 -21.086 -19.768  0.00  0.00    +0.005 C 
ATOM     24  C   UNL     1      35.285 -22.471 -18.685  0.00  0.00    +0.000 C 
ATOM     25  C   UNL     1      32.904 -22.091 -18.825  0.00  0.00    +0.000 C 
ATOM     26  C   UNL     1      33.987 -22.784 -18.283  0.00  0.00    +0.000 C 
ENDBRANCH  19  21
BRANCH  16  28
ATOM     27  OXT UNL     1      34.322 -17.251 -23.747  0.00  0.00    -0.244 OA
ATOM     28  C   UNL     1      35.142 -17.534 -22.886  0.00  0.00    +0.348 C 
BRANCH  28  29
ATOM     29  O   UNL     1      36.353 -18.079 -23.155  0.00  0.00    -0.476 OA
ATOM     30  H   UNL     1      37.089 -17.874 -22.613  0.00  0.00    +0.295 HD
ENDBRANCH  28  29
ENDBRANCH  16  28
ENDBRANCH   1  16
TORSDOF 7
ENDMDL
MODEL 2
REMARK VINA RESULT:     -11.1      3.333     10.299
REMARK  Name = 657131
REMARK  7 active torsions:
REMARK  status: ('A' for Active; 'I' for Inactive)
REMARK    1  A    between atoms: C_1  and  CA_2
REMARK    2  A    between atoms: C_1  and  C_3
REMARK    3  A    between atoms: CA_2  and  C_28
REMARK    4  A    between atoms: C_4  and  O_9
REMARK    5  A    between atoms: O_9  and  C_11
REMARK    6  A    between atoms: C_19  and  C_21
REMARK    7  A    between atoms: C_28  and  O_29
REMARK                            x       y       z     vdW  Elec       q    Type
REMARK                         _______ _______ _______ _____ _____    ______ ____
ROOT
ATOM      1  C   UNL     1      31.338 -12.286 -21.014  0.00  0.00    +0.074 C 
ENDROOT
BRANCH   1   2
ATOM      2  C   UNL     1      32.421 -13.183 -21.382  0.00  0.00    -0.016 C 
ATOM      3  C   UNL     1      34.499 -14.906 -22.085  0.00  0.00    +0.145 C 
ATOM      4  C   UNL     1      33.071 -13.029 -22.606  0.00  0.00    -0.001 C 
ATOM      5  C   UNL     1      32.811 -14.200 -20.509  0.00  0.00    -0.001 C 
ATOM      6  C   UNL     1      34.111 -13.890 -22.958  0.00  0.00    +0.037 C 
ATOM      7  C   UNL     1      33.850 -15.061 -20.861  0.00  0.00    +0.037 C 
BRANCH   3   8
ATOM      8  O   UNL     1      35.514 -15.746 -22.429  0.00  0.00    -0.453 OA
BRANCH   8  10
ATOM      9 BR   UNL     1      34.487 -16.774 -25.192  0.00  0.00    -0.046 Br
ATOM     10  C   UNL     1      35.250 -17.106 -22.437  0.00  0.00    +0.151 C 
ATOM     11  C   UNL     1      34.787 -17.729 -23.583  0.00  0.00    +0.069 C 
ATOM     12  C   UNL     1      35.466 -17.810 -21.265  0.00  0.00    +0.038 C 
ATOM     13  C   UNL     1      34.532 -19.100 -23.556  0.00  0.00    +0.010 C 
ATOM     14  C   UNL     1      35.211 -19.182 -21.239  0.00  0.00    +0.003 C 
ATOM     15  C   UNL     1      34.744 -19.826 -22.384  0.00  0.00    +0.001 C 
ENDBRANCH   8  10
ENDBRANCH   3   8
ENDBRANCH   1   2
BRANCH   1  16
ATOM     16  CA  UNL     1      31.469 -11.015 -20.568  0.00  0.00    +0.108 C 
ATOM     17  O   UNL     1      31.766  -8.294 -19.757  0.00  0.00    -0.270 OA
ATOM     18  N   UNL     1      31.743  -9.954 -21.386  0.00  0.00    -0.278 N 
ATOM     19  C   UNL     1      31.875  -8.652 -20.928  0.00  0.00    +0.249 C 
ATOM     20  H   UNL     1      31.851 -10.123 -22.349  0.00  0.00    +0.155 HD
BRANCH  19  21
ATOM     21  C   UNL     1      32.197  -7.637 -21.964  0.00  0.00    +0.054 C 
ATOM     22  C   UNL     1      31.220  -6.737 -22.339  0.00  0.00    +0.005 C 
ATOM     23  C   UNL     1      33.460  -7.626 -22.516  0.00  0.00    +0.005 C 
ATOM     24  C   UNL     1      31.522  -5.784 -23.311  0.00  0.00    +0.000 C 
ATOM     25  C   UNL     1      33.762  -6.672 -23.488  0.00  0.00    +0.000 C 
ATOM     26  C   UNL     1      32.792  -5.751 -23.886  0.00  0.00    +0.000 C 
ENDBRANCH  19  21
BRANCH  16  28
ATOM     27  OXT UNL     1      30.272 -10.798 -18.486  0.00  0.00    -0.244 OA
ATOM     28  C   UNL     1      31.322 -10.762 -19.110  0.00  0.00    +0.348 C 
BRANCH  28  29
ATOM     29  O   UNL     1      32.521 -10.480 -18.545  0.00  0.00    -0.476 OA
ATOM     30  H   UNL     1      33.101 -11.175 -18.305  0.00  0.00    +0.295 HD
ENDBRANCH  28  29
ENDBRANCH  16  28
ENDBRANCH   1  16
TORSDOF 7
ENDMDL
MODEL 3
REMARK VINA RESULT:     -11.1      3.731      6.636
REMARK  Name = 657131
REMARK  7 active torsions:
REMARK  status: ('A' for Active; 'I' for Inactive)
REMARK    1  A    between atoms: C_1  and  CA_2
REMARK    2  A    between atoms: C_1  and  C_3
REMARK    3  A    between atoms: CA_2  and  C_28
REMARK    4  A    between atoms: C_4  and  O_9
REMARK    5  A    between atoms: O_9  and  C_11
REMARK    6  A    between atoms: C_19  and  C_21
REMARK    7  A    between atoms: C_28  and  O_29
REMARK                            x       y       z     vdW  Elec       q    Type
REMARK                         _______ _______ _______ _____ _____    ______ ____
ROOT
ATOM      1  C   UNL     1      35.735 -22.246 -19.377  0.00  0.00    +0.074 C 
ENDROOT
BRANCH   1   2
ATOM      2  C   UNL     1      35.768 -20.986 -20.101  0.00  0.00    -0.016 C 
ATOM      3  C   UNL     1      35.829 -18.568 -21.492  0.00  0.00    +0.145 C 
ATOM      4  C   UNL     1      36.976 -20.311 -20.275  0.00  0.00    -0.001 C 
ATOM      5  C   UNL     1      34.590 -20.452 -20.624  0.00  0.00    -0.001 C 
ATOM      6  C   UNL     1      37.007 -19.102 -20.970  0.00  0.00    +0.037 C 
ATOM      7  C   UNL     1      34.620 -19.243 -21.320  0.00  0.00    +0.037 C 
BRANCH   3   8
ATOM      8  O   UNL     1      35.859 -17.389 -22.171  0.00  0.00    -0.453 OA
BRANCH   8  10
ATOM      9 BR   UNL     1      34.588 -16.060 -24.694  0.00  0.00    -0.046 Br
ATOM     10  C   UNL     1      34.900 -16.440 -21.858  0.00  0.00    +0.151 C 
ATOM     11  C   UNL     1      34.235 -15.752 -22.858  0.00  0.00    +0.069 C 
ATOM     12  C   UNL     1      34.636 -16.209 -20.519  0.00  0.00    +0.038 C 
ATOM     13  C   UNL     1      33.275 -14.802 -22.507  0.00  0.00    +0.010 C 
ATOM     14  C   UNL     1      33.676 -15.259 -20.169  0.00  0.00    +0.003 C 
ATOM     15  C   UNL     1      32.996 -14.556 -21.163  0.00  0.00    +0.001 C 
ENDBRANCH   8  10
ENDBRANCH   3   8
ENDBRANCH   1   2
BRANCH   1  16
ATOM     16  CA  UNL     1      35.711 -22.395 -18.032  0.00  0.00    +0.108 C 
ATOM     17  O   UNL     1      35.536 -22.760 -15.207  0.00  0.00    -0.270 OA
ATOM     18  N   UNL     1      34.631 -22.876 -17.346  0.00  0.00    -0.278 N 
ATOM     19  C   UNL     1      34.610 -23.030 -15.969  0.00  0.00    +0.249 C 
ATOM     20  H   UNL     1      33.828 -23.126 -17.857  0.00  0.00    +0.155 HD
BRANCH  19  21
ATOM     21  C   UNL     1      33.337 -23.545 -15.401  0.00  0.00    +0.054 C 
ATOM     22  C   UNL     1      33.353 -24.123 -14.148  0.00  0.00    +0.005 C 
ATOM     23  C   UNL     1      32.181 -23.427 -16.143  0.00  0.00    +0.005 C 
ATOM     24  C   UNL     1      32.159 -24.606 -13.614  0.00  0.00    +0.000 C 
ATOM     25  C   UNL     1      30.986 -23.911 -15.609  0.00  0.00    +0.000 C 
ATOM     26  C   UNL     1      30.976 -24.501 -14.344  0.00  0.00    +0.000 C 
ENDBRANCH  19  21
BRANCH  16  28
ATOM     27  OXT UNL     1      37.246 -20.855 -16.991  0.00  0.00    -0.244 OA
ATOM     28  C   UNL     1      36.919 -22.001 -17.260  0.00  0.00    +0.348 C 
BRANCH  28  29
ATOM     29  O   UNL     1      37.630 -23.091 -16.884  0.00  0.00    -0.476 OA
ATOM     30  H   UNL     1      37.657 -23.345 -15.983  0.00  0.00    +0.295 HD
ENDBRANCH  28  29
ENDBRANCH  16  28
ENDBRANCH   1  16
TORSDOF 7
ENDMDL
MODEL 4
REMARK VINA RESULT:     -11.1      1.131      2.030
REMARK  Name = 657131
REMARK  7 active torsions:
REMARK  status: ('A' for Active; 'I' for Inactive)
REMARK    1  A    between atoms: C_1  and  CA_2
REMARK    2  A    between atoms: C_1  and  C_3
REMARK    3  A    between atoms: CA_2  and  C_28
REMARK    4  A    between atoms: C_4  and  O_9
REMARK    5  A    between atoms: O_9  and  C_11
REMARK    6  A    between atoms: C_19  and  C_21
REMARK    7  A    between atoms: C_28  and  O_29
REMARK                            x       y       z     vdW  Elec       q    Type
REMARK                         _______ _______ _______ _____ _____    ______ ____
ROOT
ATOM      1  C   UNL     1      35.306 -16.436 -21.134  0.00  0.00    +0.074 C 
ENDROOT
BRANCH   1   2
ATOM      2  C   UNL     1      34.315 -15.384 -21.288  0.00  0.00    -0.016 C 
ATOM      3  C   UNL     1      32.411 -13.366 -21.582  0.00  0.00    +0.145 C 
ATOM      4  C   UNL     1      34.422 -14.471 -22.337  0.00  0.00    -0.001 C 
ATOM      5  C   UNL     1      33.255 -15.288 -20.385  0.00  0.00    -0.001 C 
ATOM      6  C   UNL     1      33.470 -13.462 -22.484  0.00  0.00    +0.037 C 
ATOM      7  C   UNL     1      32.303 -14.279 -20.533  0.00  0.00    +0.037 C 
BRANCH   3   8
ATOM      8  O   UNL     1      31.483 -12.382 -21.726  0.00  0.00    -0.453 OA
BRANCH   8  10
ATOM      9 BR   UNL     1      32.640  -9.801 -23.047  0.00  0.00    -0.046 Br
ATOM     10  C   UNL     1      31.541 -11.307 -20.854  0.00  0.00    +0.151 C 
ATOM     11  C   UNL     1      32.029 -10.082 -21.275  0.00  0.00    +0.069 C 
ATOM     12  C   UNL     1      31.097 -11.504 -19.558  0.00  0.00    +0.038 C 
ATOM     13  C   UNL     1      32.074  -9.021 -20.371  0.00  0.00    +0.010 C 
ATOM     14  C   UNL     1      31.142 -10.442 -18.654  0.00  0.00    +0.003 C 
ATOM     15  C   UNL     1      31.631  -9.201 -19.061  0.00  0.00    +0.001 C 
ENDBRANCH   8  10
ENDBRANCH   3   8
ENDBRANCH   1   2
BRANCH   1  16
ATOM     16  CA  UNL     1      35.168 -17.727 -21.516  0.00  0.00    +0.108 C 
ATOM     17  O   UNL     1      34.853 -20.483 -22.193  0.00  0.00    -0.270 OA
ATOM     18  N   UNL     1      34.892 -18.746 -20.647  0.00  0.00    -0.278 N 
ATOM     19  C   UNL     1      34.750 -20.067 -21.040  0.00  0.00    +0.249 C 
ATOM     20  H   UNL     1      34.787 -18.528 -19.692  0.00  0.00    +0.155 HD
BRANCH  19  21
ATOM     21  C   UNL     1      34.473 -21.035 -19.948  0.00  0.00    +0.054 C 
ATOM     22  C   UNL     1      33.162 -21.286 -19.598  0.00  0.00    +0.005 C 
ATOM     23  C   UNL     1      35.534 -21.654 -19.321  0.00  0.00    +0.005 C 
ATOM     24  C   UNL     1      32.902 -22.195 -18.573  0.00  0.00    +0.000 C 
ATOM     25  C   UNL     1      35.274 -22.563 -18.296  0.00  0.00    +0.000 C 
ATOM     26  C   UNL     1      33.957 -22.834 -17.922  0.00  0.00    +0.000 C 
ENDBRANCH  19  21
BRANCH  16  28
ATOM     27  OXT UNL     1      34.521 -17.850 -23.835  0.00  0.00    -0.244 OA
ATOM     28  C   UNL     1      35.343 -18.057 -22.955  0.00  0.00    +0.348 C 
BRANCH  28  29
ATOM     29  O   UNL     1      36.551 -18.629 -23.177  0.00  0.00    -0.476 OA
ATOM     30  H   UNL     1      36.642 -19.561 -23.139  0.00  0.00    +0.295 HD
ENDBRANCH  28  29
ENDBRANCH  16  28
ENDBRANCH   1  16
TORSDOF 7
ENDMDL
MODEL 5
REMARK VINA RESULT:     -10.8      3.783      6.748
REMARK  Name = 657131
REMARK  7 active torsions:
REMARK  status: ('A' for Active; 'I' for Inactive)
REMARK    1  A    between atoms: C_1  and  CA_2
REMARK    2  A    between atoms: C_1  and  C_3
REMARK    3  A    between atoms: CA_2  and  C_28
REMARK    4  A    between atoms: C_4  and  O_9
REMARK    5  A    between atoms: O_9  and  C_11
REMARK    6  A    between atoms: C_19  and  C_21
REMARK    7  A    between atoms: C_28  and  O_29
REMARK                            x       y       z     vdW  Elec       q    Type
REMARK                         _______ _______ _______ _____ _____    ______ ____
ROOT
ATOM      1  C   UNL     1      36.211 -21.987 -19.111  0.00  0.00    +0.074 C 
ENDROOT
BRANCH   1   2
ATOM      2  C   UNL     1      36.041 -20.871 -20.027  0.00  0.00    -0.016 C 
ATOM      3  C   UNL     1      35.714 -18.731 -21.786  0.00  0.00    +0.145 C 
ATOM      4  C   UNL     1      37.101 -19.996 -20.266  0.00  0.00    -0.001 C 
ATOM      5  C   UNL     1      34.818 -20.676 -20.669  0.00  0.00    -0.001 C 
ATOM      6  C   UNL     1      36.937 -18.925 -21.146  0.00  0.00    +0.037 C 
ATOM      7  C   UNL     1      34.654 -19.605 -21.548  0.00  0.00    +0.037 C 
BRANCH   3   8
ATOM      8  O   UNL     1      35.555 -17.687 -22.645  0.00  0.00    -0.453 OA
BRANCH   8  10
ATOM      9 BR   UNL     1      34.351 -16.004 -24.984  0.00  0.00    -0.046 Br
ATOM     10  C   UNL     1      34.822 -16.597 -22.206  0.00  0.00    +0.151 C 
ATOM     11  C   UNL     1      34.217 -15.742 -23.111  0.00  0.00    +0.069 C 
ATOM     12  C   UNL     1      34.719 -16.398 -20.840  0.00  0.00    +0.038 C 
ATOM     13  C   UNL     1      33.486 -14.653 -22.635  0.00  0.00    +0.010 C 
ATOM     14  C   UNL     1      33.987 -15.309 -20.365  0.00  0.00    +0.003 C 
ATOM     15  C   UNL     1      33.371 -14.437 -21.262  0.00  0.00    +0.001 C 
ENDBRANCH   8  10
ENDBRANCH   3   8
ENDBRANCH   1   2
BRANCH   1  16
ATOM     16  CA  UNL     1      35.269 -22.490 -18.280  0.00  0.00    +0.108 C 
ATOM     17  O   UNL     1      33.375 -23.552 -16.427  0.00  0.00    -0.270 OA
ATOM     18  N   UNL     1      35.510 -22.809 -16.972  0.00  0.00    -0.278 N 
ATOM     19  C   UNL     1      34.543 -23.323 -16.122  0.00  0.00    +0.249 C 
ATOM     20  H   UNL     1      36.417 -22.665 -16.617  0.00  0.00    +0.155 HD
BRANCH  19  21
ATOM     21  C   UNL     1      35.001 -23.629 -14.742  0.00  0.00    +0.054 C 
ATOM     22  C   UNL     1      34.133 -24.268 -13.880  0.00  0.00    +0.005 C 
ATOM     23  C   UNL     1      36.278 -23.269 -14.368  0.00  0.00    +0.005 C 
ATOM     24  C   UNL     1      34.563 -24.557 -12.585  0.00  0.00    +0.000 C 
ATOM     25  C   UNL     1      36.708 -23.558 -13.073  0.00  0.00    +0.000 C 
ATOM     26  C   UNL     1      35.849 -24.202 -12.181  0.00  0.00    +0.000 C 
ENDBRANCH  19  21
BRANCH  16  28
ATOM     27  OXT UNL     1      32.983 -21.919 -18.793  0.00  0.00    -0.244 OA
ATOM     28  C   UNL     1      33.904 -22.722 -18.822  0.00  0.00    +0.348 C 
BRANCH  28  29
ATOM     29  O   UNL     1      33.802 -23.960 -19.362  0.00  0.00    -0.476 OA
ATOM     30  H   UNL     1      33.124 -24.148 -19.980  0.00  0.00    +0.295 HD
ENDBRANCH  28  29
ENDBRANCH  16  28
ENDBRANCH   1  16
TORSDOF 7
ENDMDL
MODEL 6
REMARK VINA RESULT:     -10.6      6.114      9.908
REMARK  Name = 657131
REMARK  7 active torsions:
REMARK  status: ('A' for Active; 'I' for Inactive)
REMARK    1  A    between atoms: C_1  and  CA_2
REMARK    2  A    between atoms: C_1  and  C_3
REMARK    3  A    between atoms: CA_2  and  C_28
REMARK    4  A    between atoms: C_4  and  O_9
REMARK    5  A    between atoms: O_9  and  C_11
REMARK    6  A    between atoms: C_19  and  C_21
REMARK    7  A    between atoms: C_28  and  O_29
REMARK                            x       y       z     vdW  Elec       q    Type
REMARK                         _______ _______ _______ _____ _____    ______ ____
ROOT
ATOM      1  C   UNL     1      35.968 -23.121 -14.714  0.00  0.00    +0.074 C 
ENDROOT
BRANCH   1   2
ATOM      2  C   UNL     1      35.884 -22.805 -16.130  0.00  0.00    -0.016 C 
ATOM      3  C   UNL     1      35.718 -22.203 -18.849  0.00  0.00    +0.145 C 
ATOM      4  C   UNL     1      36.951 -22.178 -16.772  0.00  0.00    -0.001 C 
ATOM      5  C   UNL     1      34.733 -23.132 -16.849  0.00  0.00    -0.001 C 
ATOM      6  C   UNL     1      36.869 -21.876 -18.132  0.00  0.00    +0.037 C 
ATOM      7  C   UNL     1      34.651 -22.831 -18.209  0.00  0.00    +0.037 C 
BRANCH   3   8
ATOM      8  O   UNL     1      35.639 -21.909 -20.175  0.00  0.00    -0.453 OA
BRANCH   8  10
ATOM      9 BR   UNL     1      32.803 -20.617 -20.365  0.00  0.00    -0.046 Br
ATOM     10  C   UNL     1      35.675 -20.574 -20.544  0.00  0.00    +0.151 C 
ATOM     11  C   UNL     1      34.506 -19.845 -20.675  0.00  0.00    +0.069 C 
ATOM     12  C   UNL     1      36.915 -20.003 -20.772  0.00  0.00    +0.038 C 
ATOM     13  C   UNL     1      34.579 -18.503 -21.048  0.00  0.00    +0.010 C 
ATOM     14  C   UNL     1      36.988 -18.660 -21.144  0.00  0.00    +0.003 C 
ATOM     15  C   UNL     1      35.820 -17.911 -21.282  0.00  0.00    +0.001 C 
ENDBRANCH   8  10
ENDBRANCH   3   8
ENDBRANCH   1   2
BRANCH   1  16
ATOM     16  CA  UNL     1      35.026 -23.753 -13.977  0.00  0.00    +0.108 C 
ATOM     17  O   UNL     1      32.945 -25.052 -12.516  0.00  0.00    -0.270 OA
ATOM     18  N   UNL     1      33.708 -23.817 -14.334  0.00  0.00    -0.278 N 
ATOM     19  C   UNL     1      32.744 -24.466 -13.578  0.00  0.00    +0.249 C 
ATOM     20  H   UNL     1      33.429 -23.381 -15.171  0.00  0.00    +0.155 HD
BRANCH  19  21
ATOM     21  C   UNL     1      31.360 -24.408 -14.117  0.00  0.00    +0.054 C 
ATOM     22  C   UNL     1      30.529 -25.494 -13.933  0.00  0.00    +0.005 C 
ATOM     23  C   UNL     1      30.951 -23.271 -14.780  0.00  0.00    +0.005 C 
ATOM     24  C   UNL     1      29.231 -25.441 -14.439  0.00  0.00    +0.000 C 
ATOM     25  C   UNL     1      29.651 -23.217 -15.285  0.00  0.00    +0.000 C 
ATOM     26  C   UNL     1      28.791 -24.303 -15.115  0.00  0.00    +0.000 C 
ENDBRANCH  19  21
BRANCH  16  28
ATOM     27  OXT UNL     1      35.559 -23.831 -11.627  0.00  0.00    -0.244 OA
ATOM     28  C   UNL     1      35.444 -24.397 -12.704  0.00  0.00    +0.348 C 
BRANCH  28  29
ATOM     29  O   UNL     1      35.688 -25.717 -12.887  0.00  0.00    -0.476 OA
ATOM     30  H   UNL     1      36.536 -26.067 -12.698  0.00  0.00    +0.295 HD
ENDBRANCH  28  29
ENDBRANCH  16  28
ENDBRANCH   1  16
TORSDOF 7
ENDMDL
MODEL 7
REMARK VINA RESULT:     -10.5      4.072      6.772
REMARK  Name = 657131
REMARK  7 active torsions:
REMARK  status: ('A' for Active; 'I' for Inactive)
REMARK    1  A    between atoms: C_1  and  CA_2
REMARK    2  A    between atoms: C_1  and  C_3
REMARK    3  A    between atoms: CA_2  and  C_28
REMARK    4  A    between atoms: C_4  and  O_9
REMARK    5  A    between atoms: O_9  and  C_11
REMARK    6  A    between atoms: C_19  and  C_21
REMARK    7  A    between atoms: C_28  and  O_29
REMARK                            x       y       z     vdW  Elec       q    Type
REMARK                         _______ _______ _______ _____ _____    ______ ____
ROOT
ATOM      1  C   UNL     1      35.884 -22.079 -19.738  0.00  0.00    +0.074 C 
ENDROOT
BRANCH   1   2
ATOM      2  C   UNL     1      35.783 -20.714 -20.227  0.00  0.00    -0.016 C 
ATOM      3  C   UNL     1      35.588 -18.094 -21.165  0.00  0.00    +0.145 C 
ATOM      4  C   UNL     1      36.936 -19.950 -20.409  0.00  0.00    -0.001 C 
ATOM      5  C   UNL     1      34.532 -20.167 -20.514  0.00  0.00    -0.001 C 
ATOM      6  C   UNL     1      36.839 -18.640 -20.878  0.00  0.00    +0.037 C 
ATOM      7  C   UNL     1      34.435 -18.857 -20.983  0.00  0.00    +0.037 C 
BRANCH   3   8
ATOM      8  O   UNL     1      35.494 -16.816 -21.623  0.00  0.00    -0.453 OA
BRANCH   8  10
ATOM      9 BR   UNL     1      34.125 -14.024 -21.907  0.00  0.00    -0.046 Br
ATOM     10  C   UNL     1      34.920 -16.619 -22.868  0.00  0.00    +0.151 C 
ATOM     11  C   UNL     1      34.270 -15.434 -23.167  0.00  0.00    +0.069 C 
ATOM     12  C   UNL     1      35.021 -17.643 -23.794  0.00  0.00    +0.038 C 
ATOM     13  C   UNL     1      33.703 -15.268 -24.430  0.00  0.00    +0.010 C 
ATOM     14  C   UNL     1      34.454 -17.477 -25.058  0.00  0.00    +0.003 C 
ATOM     15  C   UNL     1      33.795 -16.289 -25.376  0.00  0.00    +0.001 C 
ENDBRANCH   8  10
ENDBRANCH   3   8
ENDBRANCH   1   2
BRANCH   1  16
ATOM     16  CA  UNL     1      35.133 -22.636 -18.759  0.00  0.00    +0.108 C 
ATOM     17  O   UNL     1      33.653 -23.790 -16.608  0.00  0.00    -0.270 OA
ATOM     18  N   UNL     1      35.570 -22.798 -17.474  0.00  0.00    -0.278 N 
ATOM     19  C   UNL     1      34.800 -23.368 -16.473  0.00  0.00    +0.249 C 
ATOM     20  H   UNL     1      36.479 -22.494 -17.249  0.00  0.00    +0.155 HD
BRANCH  19  21
ATOM     21  C   UNL     1      35.456 -23.480 -15.144  0.00  0.00    +0.054 C 
ATOM     22  C   UNL     1      34.712 -23.926 -14.071  0.00  0.00    +0.005 C 
ATOM     23  C   UNL     1      36.786 -23.137 -15.028  0.00  0.00    +0.005 C 
ATOM     24  C   UNL     1      35.328 -24.031 -12.824  0.00  0.00    +0.000 C 
ATOM     25  C   UNL     1      37.402 -23.243 -13.780  0.00  0.00    +0.000 C 
ATOM     26  C   UNL     1      36.672 -23.690 -12.678  0.00  0.00    +0.000 C 
ENDBRANCH  19  21
BRANCH  16  28
ATOM     27  OXT UNL     1      32.759 -22.421 -19.122  0.00  0.00    -0.244 OA
ATOM     28  C   UNL     1      33.767 -23.112 -19.105  0.00  0.00    +0.348 C 
BRANCH  28  29
ATOM     29  O   UNL     1      33.776 -24.433 -19.403  0.00  0.00    -0.476 OA
ATOM     30  H   UNL     1      34.119 -25.050 -18.788  0.00  0.00    +0.295 HD
ENDBRANCH  28  29
ENDBRANCH  16  28
ENDBRANCH   1  16
TORSDOF 7
ENDMDL
MODEL 8
REMARK VINA RESULT:     -10.4      4.235      6.815
REMARK  Name = 657131
REMARK  7 active torsions:
REMARK  status: ('A' for Active; 'I' for Inactive)
REMARK    1  A    between atoms: C_1  and  CA_2
REMARK    2  A    between atoms: C_1  and  C_3
REMARK    3  A    between atoms: CA_2  and  C_28
REMARK    4  A    between atoms: C_4  and  O_9
REMARK    5  A    between atoms: O_9  and  C_11
REMARK    6  A    between atoms: C_19  and  C_21
REMARK    7  A    between atoms: C_28  and  O_29
REMARK                            x       y       z     vdW  Elec       q    Type
REMARK                         _______ _______ _______ _____ _____    ______ ____
ROOT
ATOM      1  C   UNL     1      35.593 -22.085 -19.476  0.00  0.00    +0.074 C 
ENDROOT
BRANCH   1   2
ATOM      2  C   UNL     1      35.648 -20.772 -20.099  0.00  0.00    -0.016 C 
ATOM      3  C   UNL     1      35.758 -18.253 -21.293  0.00  0.00    +0.145 C 
ATOM      4  C   UNL     1      34.469 -20.109 -20.438  0.00  0.00    -0.001 C 
ATOM      5  C   UNL     1      36.883 -20.175 -20.357  0.00  0.00    -0.001 C 
ATOM      6  C   UNL     1      34.523 -18.849 -21.035  0.00  0.00    +0.037 C 
ATOM      7  C   UNL     1      36.937 -18.916 -20.954  0.00  0.00    +0.037 C 
BRANCH   3   8
ATOM      8  O   UNL     1      35.811 -17.024 -21.874  0.00  0.00    -0.453 OA
BRANCH   8  10
ATOM      9 BR   UNL     1      34.409 -14.235 -21.946  0.00  0.00    -0.046 Br
ATOM     10  C   UNL     1      35.065 -16.822 -23.024  0.00  0.00    +0.151 C 
ATOM     11  C   UNL     1      34.376 -15.638 -23.221  0.00  0.00    +0.069 C 
ATOM     12  C   UNL     1      35.036 -17.842 -23.960  0.00  0.00    +0.038 C 
ATOM     13  C   UNL     1      33.635 -15.468 -24.390  0.00  0.00    +0.010 C 
ATOM     14  C   UNL     1      34.295 -17.671 -25.130  0.00  0.00    +0.003 C 
ATOM     15  C   UNL     1      33.595 -16.484 -25.344  0.00  0.00    +0.001 C 
ENDBRANCH   8  10
ENDBRANCH   3   8
ENDBRANCH   1   2
BRANCH   1  16
ATOM     16  CA  UNL     1      35.629 -22.343 -18.148  0.00  0.00    +0.108 C 
ATOM     17  O   UNL     1      35.579 -22.933 -15.356  0.00  0.00    -0.270 OA
ATOM     18  N   UNL     1      34.576 -22.869 -17.453  0.00  0.00    -0.278 N 
ATOM     19  C   UNL     1      34.616 -23.134 -16.093  0.00  0.00    +0.249 C 
ATOM     20  H   UNL     1      33.747 -23.071 -17.945  0.00  0.00    +0.155 HD
BRANCH  19  21
ATOM     21  C   UNL     1      33.364 -23.684 -15.510  0.00  0.00    +0.054 C 
ATOM     22  C   UNL     1      32.178 -23.502 -16.190  0.00  0.00    +0.005 C 
ATOM     23  C   UNL     1      33.430 -24.360 -14.311  0.00  0.00    +0.005 C 
ATOM     24  C   UNL     1      31.004 -24.018 -15.643  0.00  0.00    +0.000 C 
ATOM     25  C   UNL     1      32.255 -24.877 -13.764  0.00  0.00    +0.000 C 
ATOM     26  C   UNL     1      31.042 -24.706 -14.431  0.00  0.00    +0.000 C 
ENDBRANCH  19  21
BRANCH  16  28
ATOM     27  OXT UNL     1      37.228 -20.903 -17.061  0.00  0.00    -0.244 OA
ATOM     28  C   UNL     1      36.875 -22.021 -17.403  0.00  0.00    +0.348 C 
BRANCH  28  29
ATOM     29  O   UNL     1      37.589 -23.144 -17.147  0.00  0.00    -0.476 OA
ATOM     30  H   UNL     1      38.223 -23.448 -17.766  0.00  0.00    +0.295 HD
ENDBRANCH  28  29
ENDBRANCH  16  28
ENDBRANCH   1  16
TORSDOF 7
ENDMDL
MODEL 9
REMARK VINA RESULT:     -10.3      1.318      2.181
REMARK  Name = 657131
REMARK  7 active torsions:
REMARK  status: ('A' for Active; 'I' for Inactive)
REMARK    1  A    between atoms: C_1  and  CA_2
REMARK    2  A    between atoms: C_1  and  C_3
REMARK    3  A    between atoms: CA_2  and  C_28
REMARK    4  A    between atoms: C_4  and  O_9
REMARK    5  A    between atoms: O_9  and  C_11
REMARK    6  A    between atoms: C_19  and  C_21
REMARK    7  A    between atoms: C_28  and  O_29
REMARK                            x       y       z     vdW  Elec       q    Type
REMARK                         _______ _______ _______ _____ _____    ______ ____
ROOT
ATOM      1  C   UNL     1      35.103 -14.936 -22.888  0.00  0.00    +0.074 C 
ENDROOT
BRANCH   1   2
ATOM      2  C   UNL     1      34.081 -13.950 -22.581  0.00  0.00    -0.016 C 
ATOM      3  C   UNL     1      32.118 -12.058 -21.988  0.00  0.00    +0.145 C 
ATOM      4  C   UNL     1      33.977 -12.789 -23.347  0.00  0.00    -0.001 C 
ATOM      5  C   UNL     1      33.203 -14.165 -21.518  0.00  0.00    -0.001 C 
ATOM      6  C   UNL     1      32.995 -11.843 -23.051  0.00  0.00    +0.037 C 
ATOM      7  C   UNL     1      32.222 -13.219 -21.222  0.00  0.00    +0.037 C 
BRANCH   3   8
ATOM      8  O   UNL     1      31.160 -11.136 -21.700  0.00  0.00    -0.453 OA
BRANCH   8  10
ATOM      9 BR   UNL     1      31.624 -10.716 -18.641  0.00  0.00    -0.046 Br
ATOM     10  C   UNL     1      31.575  -9.852 -21.387  0.00  0.00    +0.151 C 
ATOM     11  C   UNL     1      31.827  -9.492 -20.074  0.00  0.00    +0.069 C 
ATOM     12  C   UNL     1      31.726  -8.952 -22.427  0.00  0.00    +0.038 C 
ATOM     13  C   UNL     1      32.244  -8.191 -19.793  0.00  0.00    +0.010 C 
ATOM     14  C   UNL     1      32.143  -7.650 -22.146  0.00  0.00    +0.003 C 
ATOM     15  C   UNL     1      32.401  -7.270 -20.829  0.00  0.00    +0.001 C 
ENDBRANCH   8  10
ENDBRANCH   3   8
ENDBRANCH   1   2
BRANCH   1  16
ATOM     16  CA  UNL     1      34.892 -16.233 -23.215  0.00  0.00    +0.108 C 
ATOM     17  O   UNL     1      34.468 -19.000 -23.775  0.00  0.00    -0.270 OA
ATOM     18  N   UNL     1      34.972 -17.260 -22.317  0.00  0.00    -0.278 N 
ATOM     19  C   UNL     1      34.754 -18.587 -22.653  0.00  0.00    +0.249 C 
ATOM     20  H   UNL     1      35.195 -17.045 -21.382  0.00  0.00    +0.155 HD
BRANCH  19  21
ATOM     21  C   UNL     1      34.908 -19.563 -21.544  0.00  0.00    +0.054 C 
ATOM     22  C   UNL     1      33.780 -20.159 -21.020  0.00  0.00    +0.005 C 
ATOM     23  C   UNL     1      36.174 -19.844 -21.076  0.00  0.00    +0.005 C 
ATOM     24  C   UNL     1      33.924 -21.076 -19.980  0.00  0.00    +0.000 C 
ATOM     25  C   UNL     1      36.319 -20.762 -20.035  0.00  0.00    +0.000 C 
ATOM     26  C   UNL     1      35.193 -21.378 -19.487  0.00  0.00    +0.000 C 
ENDBRANCH  19  21
BRANCH  16  28
ATOM     27  OXT UNL     1      35.389 -16.830 -25.498  0.00  0.00    -0.244 OA
ATOM     28  C   UNL     1      34.572 -16.558 -24.631  0.00  0.00    +0.348 C 
BRANCH  28  29
ATOM     29  O   UNL     1      33.235 -16.513 -24.847  0.00  0.00    -0.476 OA
ATOM     30  H   UNL     1      32.641 -16.623 -24.131  0.00  0.00    +0.295 HD
ENDBRANCH  28  29
ENDBRANCH  16  28
ENDBRANCH   1  16
TORSDOF 7
ENDMDL
