MODEL 1
REMARK VINA RESULT:     -11.3      0.000      0.000
REMARK  Name = 445770
REMARK  5 active torsions:
REMARK  status: ('A' for Active; 'I' for Inactive)
REMARK    1  A    between atoms: N_2  and  C_17
REMARK    2  A    between atoms: C_3  and  C_5
REMARK    3  A    between atoms: C_6  and  S_11
REMARK    4  A    between atoms: S_11  and  N_14
REMARK    5  A    between atoms: C_17  and  C_23
REMARK                            x       y       z     vdW  Elec       q    Type
REMARK                         _______ _______ _______ _____ _____    ______ ____
ROOT
ATOM      1  O   UNL     1      37.090 -19.050 -21.777  0.00  0.00    -0.270 OA
ATOM      2  N   UNL     1      34.955 -18.432 -22.435  0.00  0.00    -0.297 N 
ATOM      3  C   UNL     1      35.858 -19.176 -21.667  0.00  0.00    +0.246 C 
ATOM      4  H   UNL     1      33.991 -18.583 -22.297  0.00  0.00    +0.150 HD
ENDROOT
BRANCH   3   5
ATOM      5  C   UNL     1      35.294 -20.142 -20.737  0.00  0.00    +0.053 C 
ATOM      6  C   UNL     1      34.213 -21.994 -18.952  0.00  0.00    +0.122 C 
ATOM      7  C   UNL     1      36.138 -20.956 -19.980  0.00  0.00    +0.006 C 
ATOM      8  C   UNL     1      33.910 -20.254 -20.602  0.00  0.00    +0.006 C 
ATOM      9  C   UNL     1      35.597 -21.882 -19.088  0.00  0.00    +0.020 C 
ATOM     10  C   UNL     1      33.370 -21.180 -19.709  0.00  0.00    +0.020 C 
BRANCH   6  11
ATOM     11  S   UNL     1      33.536 -23.151 -17.835  0.00  0.00    +0.057 S 
ATOM     12  O   UNL     1      32.127 -22.841 -17.643  0.00  0.00    -0.153 OA
ATOM     13  O   UNL     1      34.419 -23.247 -16.681  0.00  0.00    -0.153 OA
BRANCH  11  14
ATOM     14  N   UNL     1      33.662 -24.593 -18.744  0.00  0.00    -0.203 NA
ATOM     15  H   UNL     1      34.137 -25.304 -18.190  0.00  0.00    +0.144 HD
ATOM     16  H   UNL     1      34.194 -24.413 -19.595  0.00  0.00    +0.144 HD
ENDBRANCH  11  14
ENDBRANCH   6  11
ENDBRANCH   3   5
BRANCH   2  17
ATOM     17  C   UNL     1      35.359 -17.452 -23.418  0.00  0.00    +0.121 C 
BRANCH  17  23
ATOM     18  F   UNL     1      35.034 -16.242 -20.887  0.00  0.00    -0.202 F 
ATOM     19  F   UNL     1      34.238 -15.999 -25.561  0.00  0.00    -0.202 F 
ATOM     20  F   UNL     1      32.947 -13.623 -25.211  0.00  0.00    -0.199 F 
ATOM     21  F   UNL     1      33.745 -13.864 -20.549  0.00  0.00    -0.199 F 
ATOM     22  F   UNL     1      32.698 -12.552 -22.708  0.00  0.00    -0.199 F 
ATOM     23  C   UNL     1      34.647 -16.140 -23.227  0.00  0.00    +0.057 A 
ATOM     24  C   UNL     1      34.526 -15.606 -21.951  0.00  0.00    +0.170 A 
ATOM     25  C   UNL     1      34.121 -15.482 -24.330  0.00  0.00    +0.170 A 
ATOM     26  C   UNL     1      33.461 -14.266 -24.154  0.00  0.00    +0.197 A 
ATOM     27  C   UNL     1      33.866 -14.390 -21.775  0.00  0.00    +0.197 A 
ATOM     28  C   UNL     1      33.333 -13.720 -22.877  0.00  0.00    +0.199 A 
ENDBRANCH  17  23
ENDBRANCH   2  17
TORSDOF 5
ENDMDL
MODEL 2
REMARK VINA RESULT:     -11.3      0.032      2.338
REMARK  Name = 445770
REMARK  5 active torsions:
REMARK  status: ('A' for Active; 'I' for Inactive)
REMARK    1  A    between atoms: N_2  and  C_17
REMARK    2  A    between atoms: C_3  and  C_5
REMARK    3  A    between atoms: C_6  and  S_11
REMARK    4  A    between atoms: S_11  and  N_14
REMARK    5  A    between atoms: C_17  and  C_23
REMARK                            x       y       z     vdW  Elec       q    Type
REMARK                         _______ _______ _______ _____ _____    ______ ____
ROOT
ATOM      1  O   UNL     1      37.091 -19.060 -21.812  0.00  0.00    -0.270 OA
ATOM      2  N   UNL     1      34.955 -18.427 -22.452  0.00  0.00    -0.297 N 
ATOM      3  C   UNL     1      35.859 -19.177 -21.691  0.00  0.00    +0.246 C 
ATOM      4  H   UNL     1      33.991 -18.570 -22.306  0.00  0.00    +0.150 HD
ENDROOT
BRANCH   3   5
ATOM      5  C   UNL     1      35.296 -20.138 -20.755  0.00  0.00    +0.053 C 
ATOM      6  C   UNL     1      34.217 -21.980 -18.960  0.00  0.00    +0.122 C 
ATOM      7  C   UNL     1      33.912 -20.251 -20.620  0.00  0.00    +0.006 C 
ATOM      8  C   UNL     1      36.141 -20.946 -19.993  0.00  0.00    +0.006 C 
ATOM      9  C   UNL     1      33.373 -21.172 -19.722  0.00  0.00    +0.020 C 
ATOM     10  C   UNL     1      35.600 -21.868 -19.096  0.00  0.00    +0.020 C 
BRANCH   6  11
ATOM     11  S   UNL     1      33.542 -23.135 -17.838  0.00  0.00    +0.057 S 
ATOM     12  O   UNL     1      32.133 -22.821 -17.642  0.00  0.00    -0.153 OA
ATOM     13  O   UNL     1      34.428 -23.229 -16.686  0.00  0.00    -0.153 OA
BRANCH  11  14
ATOM     14  N   UNL     1      33.662 -24.578 -18.744  0.00  0.00    -0.203 NA
ATOM     15  H   UNL     1      33.095 -24.498 -19.588  0.00  0.00    +0.144 HD
ATOM     16  H   UNL     1      33.326 -25.361 -18.182  0.00  0.00    +0.144 HD
ENDBRANCH  11  14
ENDBRANCH   6  11
ENDBRANCH   3   5
BRANCH   2  17
ATOM     17  C   UNL     1      35.359 -17.450 -23.439  0.00  0.00    +0.121 C 
BRANCH  17  23
ATOM     18  F   UNL     1      34.233 -16.012 -25.593  0.00  0.00    -0.202 F 
ATOM     19  F   UNL     1      35.026 -16.230 -20.917  0.00  0.00    -0.202 F 
ATOM     20  F   UNL     1      33.726 -13.855 -20.593  0.00  0.00    -0.199 F 
ATOM     21  F   UNL     1      32.931 -13.641 -25.256  0.00  0.00    -0.199 F 
ATOM     22  F   UNL     1      32.676 -12.558 -22.758  0.00  0.00    -0.199 F 
ATOM     23  C   UNL     1      34.640 -16.140 -23.258  0.00  0.00    +0.057 A 
ATOM     24  C   UNL     1      34.111 -15.490 -24.365  0.00  0.00    +0.170 A 
ATOM     25  C   UNL     1      34.515 -15.601 -21.985  0.00  0.00    +0.170 A 
ATOM     26  C   UNL     1      33.850 -14.387 -21.816  0.00  0.00    +0.197 A 
ATOM     27  C   UNL     1      33.446 -14.276 -24.195  0.00  0.00    +0.197 A 
ATOM     28  C   UNL     1      33.315 -13.724 -22.921  0.00  0.00    +0.199 A 
ENDBRANCH  17  23
ENDBRANCH   2  17
TORSDOF 5
ENDMDL
MODEL 3
REMARK VINA RESULT:     -10.5      6.454     10.548
REMARK  Name = 445770
REMARK  5 active torsions:
REMARK  status: ('A' for Active; 'I' for Inactive)
REMARK    1  A    between atoms: N_2  and  C_17
REMARK    2  A    between atoms: C_3  and  C_5
REMARK    3  A    between atoms: C_6  and  S_11
REMARK    4  A    between atoms: S_11  and  N_14
REMARK    5  A    between atoms: C_17  and  C_23
REMARK                            x       y       z     vdW  Elec       q    Type
REMARK                         _______ _______ _______ _____ _____    ______ ____
ROOT
ATOM      1  O   UNL     1      32.693 -23.532 -17.843  0.00  0.00    -0.270 OA
ATOM      2  N   UNL     1      34.787 -23.518 -16.848  0.00  0.00    -0.297 N 
ATOM      3  C   UNL     1      33.854 -23.089 -17.798  0.00  0.00    +0.246 C 
ATOM      4  H   UNL     1      35.690 -23.126 -16.870  0.00  0.00    +0.150 HD
ENDROOT
BRANCH   3   5
ATOM      5  C   UNL     1      34.306 -22.105 -18.770  0.00  0.00    +0.053 C 
ATOM      6  C   UNL     1      35.174 -20.218 -20.632  0.00  0.00    +0.122 C 
ATOM      7  C   UNL     1      33.375 -21.357 -19.490  0.00  0.00    +0.006 C 
ATOM      8  C   UNL     1      35.672 -21.910 -18.980  0.00  0.00    +0.006 C 
ATOM      9  C   UNL     1      33.809 -20.414 -20.422  0.00  0.00    +0.020 C 
ATOM     10  C   UNL     1      36.106 -20.966 -19.911  0.00  0.00    +0.020 C 
BRANCH   6  11
ATOM     11  S   UNL     1      35.718 -19.037 -21.797  0.00  0.00    +0.057 S 
ATOM     12  O   UNL     1      34.969 -19.225 -23.032  0.00  0.00    -0.153 OA
ATOM     13  O   UNL     1      37.173 -19.054 -21.824  0.00  0.00    -0.153 OA
BRANCH  11  14
ATOM     14  N   UNL     1      35.198 -17.587 -21.056  0.00  0.00    -0.203 NA
ATOM     15  H   UNL     1      34.714 -17.009 -21.743  0.00  0.00    +0.144 HD
ATOM     16  H   UNL     1      36.007 -17.081 -20.695  0.00  0.00    +0.144 HD
ENDBRANCH  11  14
ENDBRANCH   6  11
ENDBRANCH   3   5
BRANCH   2  17
ATOM     17  C   UNL     1      34.497 -24.507 -15.833  0.00  0.00    +0.121 C 
BRANCH  17  23
ATOM     18  F   UNL     1      35.836 -26.969 -15.486  0.00  0.00    -0.202 F 
ATOM     19  F   UNL     1      35.490 -22.400 -14.241  0.00  0.00    -0.202 F 
ATOM     20  F   UNL     1      37.571 -22.722 -12.508  0.00  0.00    -0.199 F 
ATOM     21  F   UNL     1      37.919 -27.277 -13.753  0.00  0.00    -0.199 F 
ATOM     22  F   UNL     1      38.788 -25.156 -12.262  0.00  0.00    -0.199 F 
ATOM     23  C   UNL     1      35.646 -24.682 -14.877  0.00  0.00    +0.057 A 
ATOM     24  C   UNL     1      36.257 -25.924 -14.760  0.00  0.00    +0.170 A 
ATOM     25  C   UNL     1      36.080 -23.599 -14.126  0.00  0.00    +0.170 A 
ATOM     26  C   UNL     1      37.145 -23.759 -13.240  0.00  0.00    +0.197 A 
ATOM     27  C   UNL     1      37.321 -26.084 -13.873  0.00  0.00    +0.197 A 
ATOM     28  C   UNL     1      37.766 -25.002 -13.113  0.00  0.00    +0.199 A 
ENDBRANCH  17  23
ENDBRANCH   2  17
TORSDOF 5
ENDMDL
MODEL 4
REMARK VINA RESULT:     -10.5      6.457     10.511
REMARK  Name = 445770
REMARK  5 active torsions:
REMARK  status: ('A' for Active; 'I' for Inactive)
REMARK    1  A    between atoms: N_2  and  C_17
REMARK    2  A    between atoms: C_3  and  C_5
REMARK    3  A    between atoms: C_6  and  S_11
REMARK    4  A    between atoms: S_11  and  N_14
REMARK    5  A    between atoms: C_17  and  C_23
REMARK                            x       y       z     vdW  Elec       q    Type
REMARK                         _______ _______ _______ _____ _____    ______ ____
ROOT
ATOM      1  O   UNL     1      32.699 -23.542 -17.865  0.00  0.00    -0.270 OA
ATOM      2  N   UNL     1      34.783 -23.523 -16.849  0.00  0.00    -0.297 N 
ATOM      3  C   UNL     1      33.858 -23.094 -17.808  0.00  0.00    +0.246 C 
ATOM      4  H   UNL     1      35.685 -23.127 -16.862  0.00  0.00    +0.150 HD
ENDROOT
BRANCH   3   5
ATOM      5  C   UNL     1      34.317 -22.107 -18.773  0.00  0.00    +0.053 C 
ATOM      6  C   UNL     1      35.198 -20.215 -20.623  0.00  0.00    +0.122 C 
ATOM      7  C   UNL     1      33.391 -21.367 -19.507  0.00  0.00    +0.006 C 
ATOM      8  C   UNL     1      35.684 -21.903 -18.964  0.00  0.00    +0.006 C 
ATOM      9  C   UNL     1      33.831 -20.421 -20.433  0.00  0.00    +0.020 C 
ATOM     10  C   UNL     1      36.124 -20.955 -19.889  0.00  0.00    +0.020 C 
BRANCH   6  11
ATOM     11  S   UNL     1      35.749 -19.030 -21.781  0.00  0.00    +0.057 S 
ATOM     12  O   UNL     1      35.030 -19.234 -23.031  0.00  0.00    -0.153 OA
ATOM     13  O   UNL     1      37.205 -19.025 -21.776  0.00  0.00    -0.153 OA
BRANCH  11  14
ATOM     14  N   UNL     1      35.192 -17.585 -21.057  0.00  0.00    -0.203 NA
ATOM     15  H   UNL     1      34.290 -17.753 -20.612  0.00  0.00    +0.144 HD
ATOM     16  H   UNL     1      35.090 -16.864 -21.772  0.00  0.00    +0.144 HD
ENDBRANCH  11  14
ENDBRANCH   6  11
ENDBRANCH   3   5
BRANCH   2  17
ATOM     17  C   UNL     1      34.486 -24.514 -15.839  0.00  0.00    +0.121 C 
BRANCH  17  23
ATOM     18  F   UNL     1      35.464 -22.406 -14.234  0.00  0.00    -0.202 F 
ATOM     19  F   UNL     1      35.822 -26.973 -15.480  0.00  0.00    -0.202 F 
ATOM     20  F   UNL     1      37.889 -27.281 -13.729  0.00  0.00    -0.199 F 
ATOM     21  F   UNL     1      37.528 -22.727 -12.483  0.00  0.00    -0.199 F 
ATOM     22  F   UNL     1      38.744 -25.163 -12.228  0.00  0.00    -0.199 F 
ATOM     23  C   UNL     1      35.626 -24.687 -14.871  0.00  0.00    +0.057 A 
ATOM     24  C   UNL     1      36.052 -23.603 -14.115  0.00  0.00    +0.170 A 
ATOM     25  C   UNL     1      36.235 -25.928 -14.749  0.00  0.00    +0.170 A 
ATOM     26  C   UNL     1      37.292 -26.089 -13.853  0.00  0.00    +0.197 A 
ATOM     27  C   UNL     1      37.109 -23.765 -13.220  0.00  0.00    +0.197 A 
ATOM     28  C   UNL     1      37.730 -25.008 -13.088  0.00  0.00    +0.199 A 
ENDBRANCH  17  23
ENDBRANCH   2  17
TORSDOF 5
ENDMDL
MODEL 5
REMARK VINA RESULT:     -10.1      6.567     10.459
REMARK  Name = 445770
REMARK  5 active torsions:
REMARK  status: ('A' for Active; 'I' for Inactive)
REMARK    1  A    between atoms: N_2  and  C_17
REMARK    2  A    between atoms: C_3  and  C_5
REMARK    3  A    between atoms: C_6  and  S_11
REMARK    4  A    between atoms: S_11  and  N_14
REMARK    5  A    between atoms: C_17  and  C_23
REMARK                            x       y       z     vdW  Elec       q    Type
REMARK                         _______ _______ _______ _____ _____    ______ ____
ROOT
ATOM      1  O   UNL     1      33.387 -24.359 -18.287  0.00  0.00    -0.270 OA
ATOM      2  N   UNL     1      34.201 -23.189 -16.459  0.00  0.00    -0.297 N 
ATOM      3  C   UNL     1      33.958 -23.354 -17.827  0.00  0.00    +0.246 C 
ATOM      4  H   UNL     1      34.659 -22.369 -16.162  0.00  0.00    +0.150 HD
ENDROOT
BRANCH   3   5
ATOM      5  C   UNL     1      34.429 -22.301 -18.713  0.00  0.00    +0.053 C 
ATOM      6  C   UNL     1      35.332 -20.282 -20.413  0.00  0.00    +0.122 C 
ATOM      7  C   UNL     1      33.512 -21.525 -19.422  0.00  0.00    +0.006 C 
ATOM      8  C   UNL     1      35.797 -22.070 -18.854  0.00  0.00    +0.006 C 
ATOM      9  C   UNL     1      33.964 -20.516 -20.272  0.00  0.00    +0.020 C 
ATOM     10  C   UNL     1      36.249 -21.059 -19.704  0.00  0.00    +0.020 C 
BRANCH   6  11
ATOM     11  S   UNL     1      35.898 -19.018 -21.475  0.00  0.00    +0.057 S 
ATOM     12  O   UNL     1      35.445 -17.737 -20.952  0.00  0.00    -0.153 OA
ATOM     13  O   UNL     1      35.580 -19.393 -22.846  0.00  0.00    -0.153 OA
BRANCH  11  14
ATOM     14  N   UNL     1      37.588 -19.136 -21.250  0.00  0.00    -0.203 NA
ATOM     15  H   UNL     1      37.962 -19.862 -21.860  0.00  0.00    +0.144 HD
ATOM     16  H   UNL     1      37.786 -19.373 -20.278  0.00  0.00    +0.144 HD
ENDBRANCH  11  14
ENDBRANCH   6  11
ENDBRANCH   3   5
BRANCH   2  17
ATOM     17  C   UNL     1      33.816 -24.157 -15.456  0.00  0.00    +0.121 C 
BRANCH  17  23
ATOM     18  F   UNL     1      33.272 -24.891 -12.784  0.00  0.00    -0.202 F 
ATOM     19  F   UNL     1      36.557 -23.835 -16.045  0.00  0.00    -0.202 F 
ATOM     20  F   UNL     1      38.514 -24.201 -14.182  0.00  0.00    -0.199 F 
ATOM     21  F   UNL     1      35.237 -25.259 -10.931  0.00  0.00    -0.199 F 
ATOM     22  F   UNL     1      37.860 -24.914 -11.626  0.00  0.00    -0.199 F 
ATOM     23  C   UNL     1      34.898 -24.360 -14.429  0.00  0.00    +0.057 A 
ATOM     24  C   UNL     1      34.554 -24.722 -13.134  0.00  0.00    +0.170 A 
ATOM     25  C   UNL     1      36.226 -24.184 -14.793  0.00  0.00    +0.170 A 
ATOM     26  C   UNL     1      37.230 -24.371 -13.843  0.00  0.00    +0.197 A 
ATOM     27  C   UNL     1      35.557 -24.909 -12.184  0.00  0.00    +0.197 A 
ATOM     28  C   UNL     1      36.896 -24.734 -12.538  0.00  0.00    +0.199 A 
ENDBRANCH  17  23
ENDBRANCH   2  17
TORSDOF 5
ENDMDL
MODEL 6
REMARK VINA RESULT:     -10.0      4.067      6.251
REMARK  Name = 445770
REMARK  5 active torsions:
REMARK  status: ('A' for Active; 'I' for Inactive)
REMARK    1  A    between atoms: N_2  and  C_17
REMARK    2  A    between atoms: C_3  and  C_5
REMARK    3  A    between atoms: C_6  and  S_11
REMARK    4  A    between atoms: S_11  and  N_14
REMARK    5  A    between atoms: C_17  and  C_23
REMARK                            x       y       z     vdW  Elec       q    Type
REMARK                         _______ _______ _______ _____ _____    ______ ____
ROOT
ATOM      1  O   UNL     1      33.230 -13.661 -25.484  0.00  0.00    -0.270 OA
ATOM      2  N   UNL     1      34.030 -12.542 -23.619  0.00  0.00    -0.297 N 
ATOM      3  C   UNL     1      33.798 -13.694 -24.379  0.00  0.00    +0.246 C 
ATOM      4  H   UNL     1      34.485 -12.640 -22.751  0.00  0.00    +0.150 HD
ENDROOT
BRANCH   3   5
ATOM      5  C   UNL     1      34.228 -14.960 -23.807  0.00  0.00    +0.053 C 
ATOM      6  C   UNL     1      35.054 -17.388 -22.709  0.00  0.00    +0.122 C 
ATOM      7  C   UNL     1      34.418 -16.069 -24.631  0.00  0.00    +0.006 C 
ATOM      8  C   UNL     1      34.451 -15.064 -22.433  0.00  0.00    +0.006 C 
ATOM      9  C   UNL     1      34.831 -17.283 -24.082  0.00  0.00    +0.020 C 
ATOM     10  C   UNL     1      34.865 -16.279 -21.885  0.00  0.00    +0.020 C 
BRANCH   6  11
ATOM     11  S   UNL     1      35.573 -18.907 -22.022  0.00  0.00    +0.057 S 
ATOM     12  O   UNL     1      35.124 -19.985 -22.892  0.00  0.00    -0.153 OA
ATOM     13  O   UNL     1      35.214 -18.919 -20.611  0.00  0.00    -0.153 OA
BRANCH  11  14
ATOM     14  N   UNL     1      37.270 -18.763 -22.158  0.00  0.00    -0.203 NA
ATOM     15  H   UNL     1      37.718 -19.491 -21.602  0.00  0.00    +0.144 HD
ATOM     16  H   UNL     1      37.562 -17.847 -21.817  0.00  0.00    +0.144 HD
ENDBRANCH  11  14
ENDBRANCH   6  11
ENDBRANCH   3   5
BRANCH   2  17
ATOM     17  C   UNL     1      33.640 -11.214 -24.039  0.00  0.00    +0.121 C 
BRANCH  17  23
ATOM     18  F   UNL     1      31.867 -12.272 -22.112  0.00  0.00    -0.202 F 
ATOM     19  F   UNL     1      34.317  -8.504 -23.643  0.00  0.00    -0.202 F 
ATOM     20  F   UNL     1      33.335  -7.031 -21.569  0.00  0.00    -0.199 F 
ATOM     21  F   UNL     1      30.895 -10.791 -20.040  0.00  0.00    -0.199 F 
ATOM     22  F   UNL     1      31.626  -8.169 -19.766  0.00  0.00    -0.199 F 
ATOM     23  C   UNL     1      33.100 -10.400 -22.894  0.00  0.00    +0.057 A 
ATOM     24  C   UNL     1      32.231 -10.989 -21.985  0.00  0.00    +0.170 A 
ATOM     25  C   UNL     1      33.478  -9.071 -22.764  0.00  0.00    +0.170 A 
ATOM     26  C   UNL     1      32.979  -8.315 -21.704  0.00  0.00    +0.197 A 
ATOM     27  C   UNL     1      31.732 -10.233 -20.925  0.00  0.00    +0.197 A 
ATOM     28  C   UNL     1      32.105  -8.896 -20.783  0.00  0.00    +0.199 A 
ENDBRANCH  17  23
ENDBRANCH   2  17
TORSDOF 5
ENDMDL
MODEL 7
REMARK VINA RESULT:     -10.0      4.072      6.353
REMARK  Name = 445770
REMARK  5 active torsions:
REMARK  status: ('A' for Active; 'I' for Inactive)
REMARK    1  A    between atoms: N_2  and  C_17
REMARK    2  A    between atoms: C_3  and  C_5
REMARK    3  A    between atoms: C_6  and  S_11
REMARK    4  A    between atoms: S_11  and  N_14
REMARK    5  A    between atoms: C_17  and  C_23
REMARK                            x       y       z     vdW  Elec       q    Type
REMARK                         _______ _______ _______ _____ _____    ______ ____
ROOT
ATOM      1  O   UNL     1      33.232 -13.656 -25.491  0.00  0.00    -0.270 OA
ATOM      2  N   UNL     1      34.028 -12.537 -23.624  0.00  0.00    -0.297 N 
ATOM      3  C   UNL     1      33.798 -13.689 -24.385  0.00  0.00    +0.246 C 
ATOM      4  H   UNL     1      34.482 -12.635 -22.755  0.00  0.00    +0.150 HD
ENDROOT
BRANCH   3   5
ATOM      5  C   UNL     1      34.229 -14.955 -23.812  0.00  0.00    +0.053 C 
ATOM      6  C   UNL     1      35.055 -17.382 -22.714  0.00  0.00    +0.122 C 
ATOM      7  C   UNL     1      34.422 -16.063 -24.637  0.00  0.00    +0.006 C 
ATOM      8  C   UNL     1      34.447 -15.060 -22.438  0.00  0.00    +0.006 C 
ATOM      9  C   UNL     1      34.835 -17.277 -24.087  0.00  0.00    +0.020 C 
ATOM     10  C   UNL     1      34.861 -16.274 -21.889  0.00  0.00    +0.020 C 
BRANCH   6  11
ATOM     11  S   UNL     1      35.573 -18.901 -22.027  0.00  0.00    +0.057 S 
ATOM     12  O   UNL     1      35.114 -19.981 -22.890  0.00  0.00    -0.153 OA
ATOM     13  O   UNL     1      35.224 -18.909 -20.613  0.00  0.00    -0.153 OA
BRANCH  11  14
ATOM     14  N   UNL     1      37.270 -18.764 -22.175  0.00  0.00    -0.203 NA
ATOM     15  H   UNL     1      37.619 -18.101 -21.483  0.00  0.00    +0.144 HD
ATOM     16  H   UNL     1      37.503 -18.433 -23.111  0.00  0.00    +0.144 HD
ENDBRANCH  11  14
ENDBRANCH   6  11
ENDBRANCH   3   5
BRANCH   2  17
ATOM     17  C   UNL     1      33.638 -11.210 -24.045  0.00  0.00    +0.121 C 
BRANCH  17  23
ATOM     18  F   UNL     1      34.320  -8.498 -23.647  0.00  0.00    -0.202 F 
ATOM     19  F   UNL     1      31.869 -12.265 -22.117  0.00  0.00    -0.202 F 
ATOM     20  F   UNL     1      30.902 -10.785 -20.042  0.00  0.00    -0.199 F 
ATOM     21  F   UNL     1      33.344  -7.026 -21.571  0.00  0.00    -0.199 F 
ATOM     22  F   UNL     1      31.635  -8.167 -19.765  0.00  0.00    -0.199 F 
ATOM     23  C   UNL     1      33.102 -10.394 -22.899  0.00  0.00    +0.057 A 
ATOM     24  C   UNL     1      33.482  -9.065 -22.768  0.00  0.00    +0.170 A 
ATOM     25  C   UNL     1      32.235 -10.982 -21.990  0.00  0.00    +0.170 A 
ATOM     26  C   UNL     1      31.738 -10.227 -20.927  0.00  0.00    +0.197 A 
ATOM     27  C   UNL     1      32.985  -8.310 -21.706  0.00  0.00    +0.197 A 
ATOM     28  C   UNL     1      32.113  -8.891 -20.785  0.00  0.00    +0.199 A 
ENDBRANCH  17  23
ENDBRANCH   2  17
TORSDOF 5
ENDMDL
MODEL 8
REMARK VINA RESULT:      -9.9      4.814      7.369
REMARK  Name = 445770
REMARK  5 active torsions:
REMARK  status: ('A' for Active; 'I' for Inactive)
REMARK    1  A    between atoms: N_2  and  C_17
REMARK    2  A    between atoms: C_3  and  C_5
REMARK    3  A    between atoms: C_6  and  S_11
REMARK    4  A    between atoms: S_11  and  N_14
REMARK    5  A    between atoms: C_17  and  C_23
REMARK                            x       y       z     vdW  Elec       q    Type
REMARK                         _______ _______ _______ _____ _____    ______ ____
ROOT
ATOM      1  O   UNL     1      32.339 -23.795 -16.127  0.00  0.00    -0.270 OA
ATOM      2  N   UNL     1      34.281 -23.177 -17.232  0.00  0.00    -0.297 N 
ATOM      3  C   UNL     1      33.569 -23.612 -16.108  0.00  0.00    +0.246 C 
ATOM      4  H   UNL     1      35.255 -23.052 -17.147  0.00  0.00    +0.150 HD
ENDROOT
BRANCH   3   5
ATOM      5  C   UNL     1      34.328 -23.821 -14.885  0.00  0.00    +0.053 C 
ATOM      6  C   UNL     1      35.785 -24.222 -12.541  0.00  0.00    +0.122 C 
ATOM      7  C   UNL     1      33.739 -24.470 -13.801  0.00  0.00    +0.006 C 
ATOM      8  C   UNL     1      35.646 -23.372 -14.798  0.00  0.00    +0.006 C 
ATOM      9  C   UNL     1      34.467 -24.670 -12.628  0.00  0.00    +0.020 C 
ATOM     10  C   UNL     1      36.375 -23.573 -13.626  0.00  0.00    +0.020 C 
BRANCH   6  11
ATOM     11  S   UNL     1      36.698 -24.473 -11.074  0.00  0.00    +0.057 S 
ATOM     12  O   UNL     1      37.102 -23.176 -10.552  0.00  0.00    -0.153 OA
ATOM     13  O   UNL     1      37.703 -25.496 -11.327  0.00  0.00    -0.153 OA
BRANCH  11  14
ATOM     14  N   UNL     1      35.495 -25.126 -10.050  0.00  0.00    -0.203 NA
ATOM     15  H   UNL     1      34.642 -24.573 -10.133  0.00  0.00    +0.144 HD
ATOM     16  H   UNL     1      35.822 -25.104  -9.084  0.00  0.00    +0.144 HD
ENDBRANCH  11  14
ENDBRANCH   6  11
ENDBRANCH   3   5
BRANCH   2  17
ATOM     17  C   UNL     1      33.666 -22.903 -18.511  0.00  0.00    +0.121 C 
BRANCH  17  23
ATOM     18  F   UNL     1      36.447 -22.501 -18.230  0.00  0.00    -0.202 F 
ATOM     19  F   UNL     1      32.415 -21.173 -20.356  0.00  0.00    -0.202 F 
ATOM     20  F   UNL     1      33.784 -19.269 -21.748  0.00  0.00    -0.199 F 
ATOM     21  F   UNL     1      37.806 -20.597 -19.631  0.00  0.00    -0.199 F 
ATOM     22  F   UNL     1      36.478 -18.978 -21.390  0.00  0.00    -0.199 F 
ATOM     23  C   UNL     1      34.420 -21.852 -19.282  0.00  0.00    +0.057 A 
ATOM     24  C   UNL     1      35.788 -21.713 -19.091  0.00  0.00    +0.170 A 
ATOM     25  C   UNL     1      33.736 -21.037 -20.173  0.00  0.00    +0.170 A 
ATOM     26  C   UNL     1      34.433 -20.063 -20.887  0.00  0.00    +0.197 A 
ATOM     27  C   UNL     1      36.485 -20.739 -19.805  0.00  0.00    +0.197 A 
ATOM     28  C   UNL     1      35.809 -19.914 -20.704  0.00  0.00    +0.199 A 
ENDBRANCH  17  23
ENDBRANCH   2  17
TORSDOF 5
ENDMDL
MODEL 9
REMARK VINA RESULT:      -9.9      4.796      7.518
REMARK  Name = 445770
REMARK  5 active torsions:
REMARK  status: ('A' for Active; 'I' for Inactive)
REMARK    1  A    between atoms: N_2  and  C_17
REMARK    2  A    between atoms: C_3  and  C_5
REMARK    3  A    between atoms: C_6  and  S_11
REMARK    4  A    between atoms: S_11  and  N_14
REMARK    5  A    between atoms: C_17  and  C_23
REMARK                            x       y       z     vdW  Elec       q    Type
REMARK                         _______ _______ _______ _____ _____    ______ ____
ROOT
ATOM      1  O   UNL     1      32.407 -23.765 -16.156  0.00  0.00    -0.270 OA
ATOM      2  N   UNL     1      34.349 -23.165 -17.270  0.00  0.00    -0.297 N 
ATOM      3  C   UNL     1      33.637 -23.581 -16.140  0.00  0.00    +0.246 C 
ATOM      4  H   UNL     1      35.323 -23.037 -17.187  0.00  0.00    +0.150 HD
ENDROOT
BRANCH   3   5
ATOM      5  C   UNL     1      34.395 -23.768 -14.913  0.00  0.00    +0.053 C 
ATOM      6  C   UNL     1      35.850 -24.128 -12.560  0.00  0.00    +0.122 C 
ATOM      7  C   UNL     1      33.818 -24.433 -13.831  0.00  0.00    +0.006 C 
ATOM      8  C   UNL     1      35.700 -23.283 -14.819  0.00  0.00    +0.006 C 
ATOM      9  C   UNL     1      34.546 -24.612 -12.655  0.00  0.00    +0.020 C 
ATOM     10  C   UNL     1      36.428 -23.464 -13.642  0.00  0.00    +0.020 C 
BRANCH   6  11
ATOM     11  S   UNL     1      36.762 -24.354 -11.089  0.00  0.00    +0.057 S 
ATOM     12  O   UNL     1      37.271 -23.061 -10.656  0.00  0.00    -0.153 OA
ATOM     13  O   UNL     1      37.682 -25.465 -11.284  0.00  0.00    -0.153 OA
BRANCH  11  14
ATOM     14  N   UNL     1      35.527 -24.845 -10.014  0.00  0.00    -0.203 NA
ATOM     15  H   UNL     1      34.993 -24.030  -9.714  0.00  0.00    +0.144 HD
ATOM     16  H   UNL     1      35.945 -25.296  -9.200  0.00  0.00    +0.144 HD
ENDBRANCH  11  14
ENDBRANCH   6  11
ENDBRANCH   3   5
BRANCH   2  17
ATOM     17  C   UNL     1      33.735 -22.913 -18.554  0.00  0.00    +0.121 C 
BRANCH  17  23
ATOM     18  F   UNL     1      32.450 -21.213 -20.408  0.00  0.00    -0.202 F 
ATOM     19  F   UNL     1      36.503 -22.447 -18.265  0.00  0.00    -0.202 F 
ATOM     20  F   UNL     1      37.823 -20.515 -19.664  0.00  0.00    -0.199 F 
ATOM     21  F   UNL     1      33.780 -19.281 -21.798  0.00  0.00    -0.199 F 
ATOM     22  F   UNL     1      36.467 -18.930 -21.430  0.00  0.00    -0.199 F 
ATOM     23  C   UNL     1      34.465 -21.846 -19.325  0.00  0.00    +0.057 A 
ATOM     24  C   UNL     1      33.766 -21.047 -20.220  0.00  0.00    +0.170 A 
ATOM     25  C   UNL     1      35.829 -21.675 -19.129  0.00  0.00    +0.170 A 
ATOM     26  C   UNL     1      36.507 -20.687 -19.842  0.00  0.00    +0.197 A 
ATOM     27  C   UNL     1      34.444 -20.059 -20.933  0.00  0.00    +0.197 A 
ATOM     28  C   UNL     1      35.815 -19.878 -20.745  0.00  0.00    +0.199 A 
ENDBRANCH  17  23
ENDBRANCH   2  17
TORSDOF 5
ENDMDL
