MODEL 1
REMARK VINA RESULT:     -12.4      0.000      0.000
REMARK  Name = 24779676
REMARK  4 active torsions:
REMARK  status: ('A' for Active; 'I' for Inactive)
REMARK    1  A    between atoms: N_2  and  C_22
REMARK    2  A    between atoms: N_3  and  C_14
REMARK    3  A    between atoms: C_10  and  C_21
REMARK    4  A    between atoms: C_22  and  C_24
REMARK                            x       y       z     vdW  Elec       q    Type
REMARK                         _______ _______ _______ _____ _____    ______ ____
ROOT
ATOM      1  N   UNL     1      32.753 -24.293 -14.050  0.00  0.00    -0.123 N 
ATOM      2  N   UNL     1      34.231 -23.229 -17.614  0.00  0.00    -0.254 N 
ATOM      3  N   UNL     1      34.834 -25.146 -13.332  0.00  0.00    -0.274 N 
ATOM      4  N   UNL     1      34.538 -24.187 -15.479  0.00  0.00    -0.295 NA
ATOM      5  N   UNL     1      32.417 -23.335 -16.172  0.00  0.00    -0.314 NA
ATOM      6  N   UNL     1      32.151 -24.607 -12.889  0.00  0.00    -0.170 NA
ATOM      7  C   UNL     1      34.091 -24.545 -14.310  0.00  0.00    +0.279 C 
ATOM      8  C   UNL     1      31.931 -23.699 -14.964  0.00  0.00    +0.219 C 
ATOM      9  C   UNL     1      33.688 -23.582 -16.402  0.00  0.00    +0.203 C 
ATOM     10  C   UNL     1      30.700 -23.620 -14.355  0.00  0.00    +0.203 C 
ATOM     11  C   UNL     1      30.895 -24.193 -13.081  0.00  0.00    +0.116 C 
ATOM     12  H   UNL     1      35.183 -23.415 -17.783  0.00  0.00    +0.161 HD
ATOM     13  H   UNL     1      34.366 -25.363 -12.493  0.00  0.00    +0.156 HD
ENDROOT
BRANCH   3  14
ATOM     14  C   UNL     1      36.187 -25.485 -13.395  0.00  0.00    +0.051 C 
ATOM     15  C   UNL     1      37.115 -24.799 -12.612  0.00  0.00    +0.015 C 
ATOM     16  C   UNL     1      36.610 -26.510 -14.242  0.00  0.00    +0.015 C 
ATOM     17  C   UNL     1      38.467 -25.139 -12.676  0.00  0.00    +0.001 C 
ATOM     18  C   UNL     1      37.961 -26.850 -14.305  0.00  0.00    +0.001 C 
ATOM     19  C   UNL     1      38.890 -26.164 -13.522  0.00  0.00    +0.000 C 
ENDBRANCH   3  14
BRANCH  10  21
ATOM     20  N   UNL     1      28.538 -22.631 -15.360  0.00  0.00    -0.195 NA
ATOM     21  C   UNL     1      29.510 -23.076 -14.908  0.00  0.00    +0.087 C 
ENDBRANCH  10  21
BRANCH   2  22
ATOM     22  C   UNL     1      33.458 -22.602 -18.639  0.00  0.00    +0.125 C 
BRANCH  22  24
ATOM     23 CL   UNL     1      36.847 -18.756 -21.785  0.00  0.00    -0.082 Cl
ATOM     24  C   UNL     1      34.305 -21.640 -19.425  0.00  0.00    -0.002 C 
ATOM     25  C   UNL     1      35.696 -21.697 -19.331  0.00  0.00    -0.002 C 
ATOM     26  C   UNL     1      33.701 -20.691 -20.250  0.00  0.00    -0.002 C 
ATOM     27  C   UNL     1      36.482 -20.805 -20.061  0.00  0.00    +0.011 C 
ATOM     28  C   UNL     1      34.487 -19.799 -20.979  0.00  0.00    +0.011 C 
ATOM     29  C   UNL     1      35.877 -19.857 -20.885  0.00  0.00    +0.058 C 
ENDBRANCH  22  24
ENDBRANCH   2  22
TORSDOF 4
ENDMDL
MODEL 2
REMARK VINA RESULT:     -11.2      1.484      5.470
REMARK  Name = 24779676
REMARK  4 active torsions:
REMARK  status: ('A' for Active; 'I' for Inactive)
REMARK    1  A    between atoms: N_2  and  C_22
REMARK    2  A    between atoms: N_3  and  C_14
REMARK    3  A    between atoms: C_10  and  C_21
REMARK    4  A    between atoms: C_22  and  C_24
REMARK                            x       y       z     vdW  Elec       q    Type
REMARK                         _______ _______ _______ _____ _____    ______ ____
ROOT
ATOM      1  N   UNL     1      33.708 -24.177 -14.039  0.00  0.00    -0.123 N 
ATOM      2  N   UNL     1      34.256 -22.822 -17.766  0.00  0.00    -0.254 N 
ATOM      3  N   UNL     1      31.358 -24.148 -14.270  0.00  0.00    -0.274 N 
ATOM      4  N   UNL     1      32.805 -23.482 -16.025  0.00  0.00    -0.295 NA
ATOM      5  N   UNL     1      35.178 -23.524 -15.755  0.00  0.00    -0.314 NA
ATOM      6  N   UNL     1      33.643 -24.634 -12.776  0.00  0.00    -0.170 NA
ATOM      7  C   UNL     1      32.591 -23.923 -14.819  0.00  0.00    +0.279 C 
ATOM      8  C   UNL     1      34.978 -23.981 -14.499  0.00  0.00    +0.219 C 
ATOM      9  C   UNL     1      34.107 -23.287 -16.481  0.00  0.00    +0.203 C 
ATOM     10  C   UNL     1      35.805 -24.336 -13.458  0.00  0.00    +0.203 C 
ATOM     11  C   UNL     1      34.929 -24.729 -12.426  0.00  0.00    +0.116 C 
ATOM     12  H   UNL     1      33.452 -22.646 -18.306  0.00  0.00    +0.161 HD
ATOM     13  H   UNL     1      31.343 -24.483 -13.344  0.00  0.00    +0.156 HD
ENDROOT
BRANCH   3  14
ATOM     14  C   UNL     1      30.119 -23.954 -14.882  0.00  0.00    +0.051 C 
ATOM     15  C   UNL     1      29.433 -22.753 -14.703  0.00  0.00    +0.015 C 
ATOM     16  C   UNL     1      29.566 -24.962 -15.672  0.00  0.00    +0.015 C 
ATOM     17  C   UNL     1      28.194 -22.559 -15.315  0.00  0.00    +0.001 C 
ATOM     18  C   UNL     1      28.327 -24.768 -16.285  0.00  0.00    +0.001 C 
ATOM     19  C   UNL     1      27.642 -23.567 -16.106  0.00  0.00    +0.000 C 
ENDBRANCH   3  14
BRANCH  10  21
ATOM     20  N   UNL     1      38.385 -24.279 -13.444  0.00  0.00    -0.195 NA
ATOM     21  C   UNL     1      37.225 -24.304 -13.450  0.00  0.00    +0.087 C 
ENDBRANCH  10  21
BRANCH   2  22
ATOM     22  C   UNL     1      35.542 -22.585 -18.343  0.00  0.00    +0.125 C 
BRANCH  22  24
ATOM     23 CL   UNL     1      35.246 -18.150 -22.395  0.00  0.00    -0.082 Cl
ATOM     24  C   UNL     1      35.467 -21.477 -19.356  0.00  0.00    -0.002 C 
ATOM     25  C   UNL     1      34.231 -21.077 -19.865  0.00  0.00    -0.002 C 
ATOM     26  C   UNL     1      36.635 -20.847 -19.788  0.00  0.00    -0.002 C 
ATOM     27  C   UNL     1      34.163 -20.049 -20.805  0.00  0.00    +0.011 C 
ATOM     28  C   UNL     1      36.567 -19.818 -20.727  0.00  0.00    +0.011 C 
ATOM     29  C   UNL     1      35.331 -19.419 -21.235  0.00  0.00    +0.058 C 
ENDBRANCH  22  24
ENDBRANCH   2  22
TORSDOF 4
ENDMDL
MODEL 3
REMARK VINA RESULT:     -10.6      1.745      5.376
REMARK  Name = 24779676
REMARK  4 active torsions:
REMARK  status: ('A' for Active; 'I' for Inactive)
REMARK    1  A    between atoms: N_2  and  C_22
REMARK    2  A    between atoms: N_3  and  C_14
REMARK    3  A    between atoms: C_10  and  C_21
REMARK    4  A    between atoms: C_22  and  C_24
REMARK                            x       y       z     vdW  Elec       q    Type
REMARK                         _______ _______ _______ _____ _____    ______ ____
ROOT
ATOM      1  N   UNL     1      35.868 -24.973 -13.793  0.00  0.00    -0.123 N 
ATOM      2  N   UNL     1      35.633 -22.683 -17.068  0.00  0.00    -0.254 N 
ATOM      3  N   UNL     1      33.526 -24.964 -13.499  0.00  0.00    -0.274 N 
ATOM      4  N   UNL     1      34.575 -23.819 -15.288  0.00  0.00    -0.295 NA
ATOM      5  N   UNL     1      36.949 -23.849 -15.554  0.00  0.00    -0.314 NA
ATOM      6  N   UNL     1      36.066 -25.742 -12.708  0.00  0.00    -0.170 NA
ATOM      7  C   UNL     1      34.616 -24.563 -14.221  0.00  0.00    +0.279 C 
ATOM      8  C   UNL     1      37.014 -24.622 -14.447  0.00  0.00    +0.219 C 
ATOM      9  C   UNL     1      35.753 -23.469 -15.946  0.00  0.00    +0.203 C 
ATOM     10  C   UNL     1      38.037 -25.206 -13.736  0.00  0.00    +0.203 C 
ATOM     11  C   UNL     1      37.395 -25.882 -12.678  0.00  0.00    +0.116 C 
ATOM     12  H   UNL     1      34.735 -22.400 -17.358  0.00  0.00    +0.161 HD
ATOM     13  H   UNL     1      33.702 -25.527 -12.710  0.00  0.00    +0.156 HD
ENDROOT
BRANCH   3  14
ATOM     14  C   UNL     1      32.188 -24.660 -13.759  0.00  0.00    +0.051 C 
ATOM     15  C   UNL     1      31.802 -23.336 -13.971  0.00  0.00    +0.015 C 
ATOM     16  C   UNL     1      31.238 -25.680 -13.806  0.00  0.00    +0.015 C 
ATOM     17  C   UNL     1      30.466 -23.033 -14.232  0.00  0.00    +0.001 C 
ATOM     18  C   UNL     1      29.901 -25.376 -14.067  0.00  0.00    +0.001 C 
ATOM     19  C   UNL     1      29.515 -24.053 -14.279  0.00  0.00    +0.000 C 
ENDBRANCH   3  14
BRANCH  10  21
ATOM     20  N   UNL     1      40.560 -25.068 -14.261  0.00  0.00    -0.195 NA
ATOM     21  C   UNL     1      39.425 -25.130 -14.025  0.00  0.00    +0.087 C 
ENDBRANCH  10  21
BRANCH   2  22
ATOM     22  C   UNL     1      36.768 -22.261 -17.825  0.00  0.00    +0.125 C 
BRANCH  22  24
ATOM     23 CL   UNL     1      35.058 -18.816 -22.448  0.00  0.00    -0.082 Cl
ATOM     24  C   UNL     1      36.341 -21.399 -18.980  0.00  0.00    -0.002 C 
ATOM     25  C   UNL     1      37.254 -20.531 -19.580  0.00  0.00    -0.002 C 
ATOM     26  C   UNL     1      35.030 -21.468 -19.454  0.00  0.00    -0.002 C 
ATOM     27  C   UNL     1      36.857 -19.733 -20.652  0.00  0.00    +0.011 C 
ATOM     28  C   UNL     1      34.634 -20.669 -20.526  0.00  0.00    +0.011 C 
ATOM     29  C   UNL     1      35.547 -19.802 -21.125  0.00  0.00    +0.058 C 
ENDBRANCH  22  24
ENDBRANCH   2  22
TORSDOF 4
ENDMDL
MODEL 4
REMARK VINA RESULT:     -10.2      2.686      6.825
REMARK  Name = 24779676
REMARK  4 active torsions:
REMARK  status: ('A' for Active; 'I' for Inactive)
REMARK    1  A    between atoms: N_2  and  C_22
REMARK    2  A    between atoms: N_3  and  C_14
REMARK    3  A    between atoms: C_10  and  C_21
REMARK    4  A    between atoms: C_22  and  C_24
REMARK                            x       y       z     vdW  Elec       q    Type
REMARK                         _______ _______ _______ _____ _____    ______ ____
ROOT
ATOM      1  N   UNL     1      31.875 -23.311 -16.282  0.00  0.00    -0.123 N 
ATOM      2  N   UNL     1      35.571 -23.341 -14.745  0.00  0.00    -0.254 N 
ATOM      3  N   UNL     1      32.601 -22.251 -18.263  0.00  0.00    -0.274 N 
ATOM      4  N   UNL     1      34.093 -22.794 -16.504  0.00  0.00    -0.295 NA
ATOM      5  N   UNL     1      33.323 -23.866 -14.514  0.00  0.00    -0.314 NA
ATOM      6  N   UNL     1      30.597 -23.356 -16.698  0.00  0.00    -0.170 NA
ATOM      7  C   UNL     1      32.905 -22.769 -17.034  0.00  0.00    +0.279 C 
ATOM      8  C   UNL     1      32.080 -23.850 -15.045  0.00  0.00    +0.219 C 
ATOM      9  C   UNL     1      34.288 -23.347 -15.240  0.00  0.00    +0.203 C 
ATOM     10  C   UNL     1      30.843 -24.277 -14.620  0.00  0.00    +0.203 C 
ATOM     11  C   UNL     1      29.970 -23.948 -15.677  0.00  0.00    +0.116 C 
ATOM     12  H   UNL     1      36.291 -22.951 -15.292  0.00  0.00    +0.161 HD
ATOM     13  H   UNL     1      31.657 -22.298 -18.540  0.00  0.00    +0.156 HD
ENDROOT
BRANCH   3  14
ATOM     14  C   UNL     1      33.486 -21.661 -19.167  0.00  0.00    +0.051 C 
ATOM     15  C   UNL     1      33.018 -20.729 -20.094  0.00  0.00    +0.015 C 
ATOM     16  C   UNL     1      34.838 -22.005 -19.145  0.00  0.00    +0.015 C 
ATOM     17  C   UNL     1      33.903 -20.140 -20.997  0.00  0.00    +0.001 C 
ATOM     18  C   UNL     1      35.723 -21.415 -20.047  0.00  0.00    +0.001 C 
ATOM     19  C   UNL     1      35.255 -20.483 -20.974  0.00  0.00    +0.000 C 
ENDBRANCH   3  14
BRANCH  10  21
ATOM     20  N   UNL     1      30.290 -25.426 -12.376  0.00  0.00    -0.195 NA
ATOM     21  C   UNL     1      30.539 -24.909 -13.385  0.00  0.00    +0.087 C 
ENDBRANCH  10  21
BRANCH   2  22
ATOM     22  C   UNL     1      35.893 -23.880 -13.462  0.00  0.00    +0.125 C 
BRANCH  22  24
ATOM     23 CL   UNL     1      41.072 -26.928 -13.698  0.00  0.00    -0.082 Cl
ATOM     24  C   UNL     1      37.187 -24.641 -13.520  0.00  0.00    -0.002 C 
ATOM     25  C   UNL     1      37.565 -25.460 -12.456  0.00  0.00    -0.002 C 
ATOM     26  C   UNL     1      38.012 -24.531 -14.641  0.00  0.00    -0.002 C 
ATOM     27  C   UNL     1      38.766 -26.167 -12.511  0.00  0.00    +0.011 C 
ATOM     28  C   UNL     1      39.213 -25.238 -14.696  0.00  0.00    +0.011 C 
ATOM     29  C   UNL     1      39.589 -26.056 -13.631  0.00  0.00    +0.058 C 
ENDBRANCH  22  24
ENDBRANCH   2  22
TORSDOF 4
ENDMDL
MODEL 5
REMARK VINA RESULT:      -9.6      3.054      7.524
REMARK  Name = 24779676
REMARK  4 active torsions:
REMARK  status: ('A' for Active; 'I' for Inactive)
REMARK    1  A    between atoms: N_2  and  C_22
REMARK    2  A    between atoms: N_3  and  C_14
REMARK    3  A    between atoms: C_10  and  C_21
REMARK    4  A    between atoms: C_22  and  C_24
REMARK                            x       y       z     vdW  Elec       q    Type
REMARK                         _______ _______ _______ _____ _____    ______ ____
ROOT
ATOM      1  N   UNL     1      36.433 -23.010 -16.417  0.00  0.00    -0.123 N 
ATOM      2  N   UNL     1      32.471 -23.536 -16.653  0.00  0.00    -0.254 N 
ATOM      3  N   UNL     1      36.468 -21.664 -18.357  0.00  0.00    -0.274 N 
ATOM      4  N   UNL     1      34.463 -22.599 -17.509  0.00  0.00    -0.295 NA
ATOM      5  N   UNL     1      34.465 -23.957 -15.543  0.00  0.00    -0.314 NA
ATOM      6  N   UNL     1      37.761 -22.901 -16.239  0.00  0.00    -0.170 NA
ATOM      7  C   UNL     1      35.749 -22.407 -17.461  0.00  0.00    +0.279 C 
ATOM      8  C   UNL     1      35.802 -23.771 -15.475  0.00  0.00    +0.219 C 
ATOM      9  C   UNL     1      33.833 -23.379 -16.540  0.00  0.00    +0.203 C 
ATOM     10  C   UNL     1      36.793 -24.191 -14.619  0.00  0.00    +0.203 C 
ATOM     11  C   UNL     1      37.976 -23.626 -15.137  0.00  0.00    +0.116 C 
ATOM     12  H   UNL     1      32.001 -23.101 -17.402  0.00  0.00    +0.161 HD
ATOM     13  H   UNL     1      37.438 -21.603 -18.200  0.00  0.00    +0.156 HD
ENDROOT
BRANCH   3  14
ATOM     14  C   UNL     1      35.974 -20.984 -19.471  0.00  0.00    +0.051 C 
ATOM     15  C   UNL     1      34.635 -21.125 -19.838  0.00  0.00    +0.015 C 
ATOM     16  C   UNL     1      36.819 -20.163 -20.218  0.00  0.00    +0.015 C 
ATOM     17  C   UNL     1      34.142 -20.444 -20.951  0.00  0.00    +0.001 C 
ATOM     18  C   UNL     1      36.325 -19.482 -21.331  0.00  0.00    +0.001 C 
ATOM     19  C   UNL     1      34.987 -19.623 -21.697  0.00  0.00    +0.000 C 
ENDBRANCH   3  14
BRANCH  10  21
ATOM     20  N   UNL     1      36.503 -25.685 -12.533  0.00  0.00    -0.195 NA
ATOM     21  C   UNL     1      36.634 -25.013 -13.471  0.00  0.00    +0.087 C 
ENDBRANCH  10  21
BRANCH   2  22
ATOM     22  C   UNL     1      31.717 -24.312 -15.721  0.00  0.00    +0.125 C 
BRANCH  22  24
ATOM     23 CL   UNL     1      26.042 -22.338 -15.448  0.00  0.00    -0.082 Cl
ATOM     24  C   UNL     1      30.298 -23.819 -15.652  0.00  0.00    -0.002 C 
ATOM     25  C   UNL     1      29.920 -22.915 -14.658  0.00  0.00    -0.002 C 
ATOM     26  C   UNL     1      29.359 -24.264 -16.583  0.00  0.00    -0.002 C 
ATOM     27  C   UNL     1      28.604 -22.458 -14.596  0.00  0.00    +0.011 C 
ATOM     28  C   UNL     1      28.043 -23.806 -16.520  0.00  0.00    +0.011 C 
ATOM     29  C   UNL     1      27.666 -22.903 -15.527  0.00  0.00    +0.058 C 
ENDBRANCH  22  24
ENDBRANCH   2  22
TORSDOF 4
ENDMDL
