MODEL 1
REMARK VINA RESULT:     -11.2      0.000      0.000
REMARK  Name = 18376177
REMARK  11 active torsions:
REMARK  status: ('A' for Active; 'I' for Inactive)
REMARK    1  A    between atoms: N_1  and  S_2
REMARK    2  A    between atoms: N_1  and  C_11
REMARK    3  A    between atoms: N_1  and  C_23
REMARK    4  A    between atoms: S_2  and  C_6
REMARK    5  A    between atoms: C_11  and  C_12
REMARK    6  A    between atoms: C_15  and  N_18
REMARK    7  A    between atoms: C_23  and  C_24
REMARK    8  A    between atoms: C_27  and  O_30
REMARK    9  A    between atoms: O_30  and  C_31
REMARK   10  A    between atoms: C_31  and  C_33
REMARK   11  A    between atoms: C_33  and  O_34
REMARK                            x       y       z     vdW  Elec       q    Type
REMARK                         _______ _______ _______ _____ _____    ______ ____
ROOT
ATOM      1  N   UNL     1      33.279 -23.455 -15.188  0.00  0.00    -0.147 NA
ENDROOT
BRANCH   1   2
ATOM      2  S   UNL     1      32.078 -24.188 -14.191  0.00  0.00    +0.065 S 
ATOM      3  O   UNL     1      31.908 -23.402 -12.983  0.00  0.00    -0.153 OA
ATOM      4  O   UNL     1      32.340 -25.611 -14.087  0.00  0.00    -0.153 OA
BRANCH   2   6
ATOM      5  N   UNL     1      29.200 -22.573 -16.516  0.00  0.00    -0.241 NA
ATOM      6  C   UNL     1      30.605 -23.994 -15.156  0.00  0.00    +0.141 C 
ATOM      7  C   UNL     1      29.715 -25.048 -15.322  0.00  0.00    +0.023 C 
ATOM      8  C   UNL     1      30.305 -22.788 -15.768  0.00  0.00    +0.119 C 
ATOM      9  C   UNL     1      28.567 -24.867 -16.085  0.00  0.00    +0.022 C 
ATOM     10  C   UNL     1      28.357 -23.621 -16.656  0.00  0.00    +0.099 C 
ENDBRANCH   2   6
ENDBRANCH   1   2
BRANCH   1  11
ATOM     11  C   UNL     1      33.614 -24.119 -16.473  0.00  0.00    +0.122 C 
BRANCH  11  12
ATOM     12  C   UNL     1      34.041 -23.137 -17.527  0.00  0.00    -0.004 C 
ATOM     13  C   UNL     1      35.394 -22.847 -17.703  0.00  0.00    -0.002 C 
ATOM     14  C   UNL     1      33.085 -22.515 -18.330  0.00  0.00    -0.002 C 
ATOM     15  C   UNL     1      34.834 -21.311 -19.483  0.00  0.00    +0.074 C 
ATOM     16  C   UNL     1      35.790 -21.934 -18.681  0.00  0.00    +0.016 C 
ATOM     17  C   UNL     1      33.481 -21.602 -19.307  0.00  0.00    +0.016 C 
BRANCH  15  18
ATOM     18  N   UNL     1      35.227 -20.408 -20.453  0.00  0.00    -0.189 N 
ATOM     19  N   UNL     1      36.420 -19.793 -20.367  0.00  0.00    -0.172 NA
ATOM     20  C   UNL     1      34.502 -20.053 -21.551  0.00  0.00    +0.091 C 
ATOM     21  C   UNL     1      35.272 -19.142 -22.231  0.00  0.00    +0.040 C 
ATOM     22  C   UNL     1      36.441 -19.020 -21.457  0.00  0.00    +0.120 C 
ENDBRANCH  15  18
ENDBRANCH  11  12
ENDBRANCH   1  11
BRANCH   1  23
ATOM     23  C   UNL     1      34.483 -22.893 -14.523  0.00  0.00    +0.123 C 
BRANCH  23  24
ATOM     24  C   UNL     1      35.297 -23.951 -13.832  0.00  0.00    -0.001 C 
ATOM     25  C   UNL     1      36.256 -24.670 -14.544  0.00  0.00    +0.034 C 
ATOM     26  C   UNL     1      35.093 -24.213 -12.476  0.00  0.00    -0.003 C 
ATOM     27  C   UNL     1      37.011 -25.651 -13.902  0.00  0.00    +0.139 C 
ATOM     28  C   UNL     1      35.848 -25.194 -11.834  0.00  0.00    +0.003 C 
ATOM     29  C   UNL     1      36.808 -25.913 -12.547  0.00  0.00    +0.037 C 
BRANCH  27  30
ATOM     30  O   UNL     1      37.945 -26.355 -14.598  0.00  0.00    -0.464 OA
BRANCH  30  31
ATOM     31  C   UNL     1      39.177 -26.634 -13.933  0.00  0.00    +0.314 C 
BRANCH  31  33
ATOM     32  O   UNL     1      40.941 -24.971 -14.079  0.00  0.00    -0.246 OA
ATOM     33  C   UNL     1      40.293 -25.872 -14.590  0.00  0.00    +0.359 C 
BRANCH  33  34
ATOM     34  O   UNL     1      40.492 -26.327 -15.852  0.00  0.00    -0.478 OA
ATOM     35  H   UNL     1      40.589 -27.246 -16.010  0.00  0.00    +0.295 HD
ENDBRANCH  33  34
ENDBRANCH  31  33
ENDBRANCH  30  31
ENDBRANCH  27  30
ENDBRANCH  23  24
ENDBRANCH   1  23
TORSDOF 11
ENDMDL
MODEL 2
REMARK VINA RESULT:     -10.7      2.535      6.905
REMARK  Name = 18376177
REMARK  11 active torsions:
REMARK  status: ('A' for Active; 'I' for Inactive)
REMARK    1  A    between atoms: N_1  and  S_2
REMARK    2  A    between atoms: N_1  and  C_11
REMARK    3  A    between atoms: N_1  and  C_23
REMARK    4  A    between atoms: S_2  and  C_6
REMARK    5  A    between atoms: C_11  and  C_12
REMARK    6  A    between atoms: C_15  and  N_18
REMARK    7  A    between atoms: C_23  and  C_24
REMARK    8  A    between atoms: C_27  and  O_30
REMARK    9  A    between atoms: O_30  and  C_31
REMARK   10  A    between atoms: C_31  and  C_33
REMARK   11  A    between atoms: C_33  and  O_34
REMARK                            x       y       z     vdW  Elec       q    Type
REMARK                         _______ _______ _______ _____ _____    ______ ____
ROOT
ATOM      1  N   UNL     1      34.302 -23.780 -15.321  0.00  0.00    -0.147 NA
ENDROOT
BRANCH   1   2
ATOM      2  S   UNL     1      35.920 -23.496 -14.797  0.00  0.00    +0.065 S 
ATOM      3  O   UNL     1      36.210 -22.076 -14.870  0.00  0.00    -0.153 OA
ATOM      4  O   UNL     1      36.811 -24.440 -15.447  0.00  0.00    -0.153 OA
BRANCH   2   6
ATOM      5  N   UNL     1      34.780 -25.176 -11.308  0.00  0.00    -0.241 NA
ATOM      6  C   UNL     1      35.853 -23.933 -13.082  0.00  0.00    +0.141 C 
ATOM      7  C   UNL     1      36.769 -23.413 -12.174  0.00  0.00    +0.023 C 
ATOM      8  C   UNL     1      34.887 -24.802 -12.602  0.00  0.00    +0.119 C 
ATOM      9  C   UNL     1      36.692 -23.774 -10.834  0.00  0.00    +0.022 C 
ATOM     10  C   UNL     1      35.688 -24.652 -10.455  0.00  0.00    +0.099 C 
ENDBRANCH   2   6
ENDBRANCH   1   2
BRANCH   1  11
ATOM     11  C   UNL     1      34.096 -24.255 -16.713  0.00  0.00    +0.122 C 
BRANCH  11  12
ATOM     12  C   UNL     1      34.401 -23.190 -17.728  0.00  0.00    -0.004 C 
ATOM     13  C   UNL     1      35.719 -22.787 -17.943  0.00  0.00    -0.002 C 
ATOM     14  C   UNL     1      33.366 -22.603 -18.456  0.00  0.00    -0.002 C 
ATOM     15  C   UNL     1      34.966 -21.210 -19.612  0.00  0.00    +0.074 C 
ATOM     16  C   UNL     1      36.001 -21.797 -18.885  0.00  0.00    +0.016 C 
ATOM     17  C   UNL     1      33.648 -21.614 -19.398  0.00  0.00    +0.016 C 
BRANCH  15  18
ATOM     18  N   UNL     1      35.247 -20.231 -20.546  0.00  0.00    -0.189 N 
ATOM     19  N   UNL     1      36.370 -19.498 -20.448  0.00  0.00    -0.172 NA
ATOM     20  C   UNL     1      34.470 -19.908 -21.620  0.00  0.00    +0.091 C 
ATOM     21  C   UNL     1      35.130 -18.894 -22.269  0.00  0.00    +0.040 C 
ATOM     22  C   UNL     1      36.292 -18.682 -21.504  0.00  0.00    +0.120 C 
ENDBRANCH  15  18
ENDBRANCH  11  12
ENDBRANCH   1  11
BRANCH   1  23
ATOM     23  C   UNL     1      33.259 -22.808 -14.906  0.00  0.00    +0.123 C 
BRANCH  23  24
ATOM     24  C   UNL     1      31.872 -23.375 -15.025  0.00  0.00    -0.001 C 
ATOM     25  C   UNL     1      30.958 -22.804 -15.910  0.00  0.00    +0.034 C 
ATOM     26  C   UNL     1      31.499 -24.474 -14.250  0.00  0.00    -0.003 C 
ATOM     27  C   UNL     1      29.672 -23.331 -16.020  0.00  0.00    +0.139 C 
ATOM     28  C   UNL     1      30.213 -25.001 -14.360  0.00  0.00    +0.003 C 
ATOM     29  C   UNL     1      29.299 -24.430 -15.246  0.00  0.00    +0.037 C 
BRANCH  27  30
ATOM     30  O   UNL     1      28.779 -22.772 -16.882  0.00  0.00    -0.464 OA
BRANCH  30  31
ATOM     31  C   UNL     1      27.442 -23.272 -16.849  0.00  0.00    +0.314 C 
BRANCH  31  33
ATOM     32  O   UNL     1      26.429 -21.126 -17.366  0.00  0.00    -0.246 OA
ATOM     33  C   UNL     1      26.477 -22.133 -16.676  0.00  0.00    +0.359 C 
BRANCH  33  34
ATOM     34  O   UNL     1      25.648 -22.377 -15.630  0.00  0.00    -0.478 OA
ATOM     35  H   UNL     1      25.384 -21.676 -15.067  0.00  0.00    +0.295 HD
ENDBRANCH  33  34
ENDBRANCH  31  33
ENDBRANCH  30  31
ENDBRANCH  27  30
ENDBRANCH  23  24
ENDBRANCH   1  23
TORSDOF 11
ENDMDL
MODEL 3
REMARK VINA RESULT:     -10.7      2.688      7.222
REMARK  Name = 18376177
REMARK  11 active torsions:
REMARK  status: ('A' for Active; 'I' for Inactive)
REMARK    1  A    between atoms: N_1  and  S_2
REMARK    2  A    between atoms: N_1  and  C_11
REMARK    3  A    between atoms: N_1  and  C_23
REMARK    4  A    between atoms: S_2  and  C_6
REMARK    5  A    between atoms: C_11  and  C_12
REMARK    6  A    between atoms: C_15  and  N_18
REMARK    7  A    between atoms: C_23  and  C_24
REMARK    8  A    between atoms: C_27  and  O_30
REMARK    9  A    between atoms: O_30  and  C_31
REMARK   10  A    between atoms: C_31  and  C_33
REMARK   11  A    between atoms: C_33  and  O_34
REMARK                            x       y       z     vdW  Elec       q    Type
REMARK                         _______ _______ _______ _____ _____    ______ ____
ROOT
ATOM      1  N   UNL     1      34.256 -24.643 -13.686  0.00  0.00    -0.147 NA
ENDROOT
BRANCH   1   2
ATOM      2  S   UNL     1      35.433 -24.547 -12.430  0.00  0.00    +0.065 S 
ATOM      3  O   UNL     1      35.013 -25.368 -11.309  0.00  0.00    -0.153 OA
ATOM      4  O   UNL     1      35.785 -23.157 -12.203  0.00  0.00    -0.153 OA
BRANCH   2   6
ATOM      5  N   UNL     1      37.962 -27.376 -13.804  0.00  0.00    -0.241 NA
ATOM      6  C   UNL     1      36.842 -25.333 -13.159  0.00  0.00    +0.141 C 
ATOM      7  C   UNL     1      37.907 -24.586 -13.648  0.00  0.00    +0.023 C 
ATOM      8  C   UNL     1      36.918 -26.714 -13.260  0.00  0.00    +0.119 C 
ATOM      9  C   UNL     1      39.000 -25.231 -14.215  0.00  0.00    +0.022 C 
ATOM     10  C   UNL     1      38.979 -26.616 -14.269  0.00  0.00    +0.099 C 
ENDBRANCH   2   6
ENDBRANCH   1   2
BRANCH   1  11
ATOM     11  C   UNL     1      34.667 -25.252 -14.976  0.00  0.00    +0.122 C 
BRANCH  11  12
ATOM     12  C   UNL     1      34.674 -24.254 -16.100  0.00  0.00    -0.004 C 
ATOM     13  C   UNL     1      33.631 -24.238 -17.024  0.00  0.00    -0.002 C 
ATOM     14  C   UNL     1      35.726 -23.345 -16.219  0.00  0.00    -0.002 C 
ATOM     15  C   UNL     1      34.690 -22.404 -18.188  0.00  0.00    +0.074 C 
ATOM     16  C   UNL     1      33.638 -23.313 -18.069  0.00  0.00    +0.016 C 
ATOM     17  C   UNL     1      35.733 -22.420 -17.262  0.00  0.00    +0.016 C 
BRANCH  15  18
ATOM     18  N   UNL     1      34.696 -21.486 -19.222  0.00  0.00    -0.189 N 
ATOM     19  N   UNL     1      35.858 -21.005 -19.698  0.00  0.00    -0.172 NA
ATOM     20  C   UNL     1      33.594 -20.988 -19.852  0.00  0.00    +0.091 C 
ATOM     21  C   UNL     1      34.066 -20.120 -20.805  0.00  0.00    +0.040 C 
ATOM     22  C   UNL     1      35.465 -20.170 -20.665  0.00  0.00    +0.120 C 
ENDBRANCH  15  18
ENDBRANCH  11  12
ENDBRANCH   1  11
BRANCH   1  23
ATOM     23  C   UNL     1      33.356 -23.478 -13.883  0.00  0.00    +0.123 C 
BRANCH  23  24
ATOM     24  C   UNL     1      31.932 -23.893 -14.124  0.00  0.00    -0.001 C 
ATOM     25  C   UNL     1      31.044 -23.015 -14.744  0.00  0.00    +0.034 C 
ATOM     26  C   UNL     1      31.498 -25.159 -13.728  0.00  0.00    -0.003 C 
ATOM     27  C   UNL     1      29.722 -23.400 -14.967  0.00  0.00    +0.139 C 
ATOM     28  C   UNL     1      30.177 -25.545 -13.951  0.00  0.00    +0.003 C 
ATOM     29  C   UNL     1      29.288 -24.665 -14.571  0.00  0.00    +0.037 C 
BRANCH  27  30
ATOM     30  O   UNL     1      28.855 -22.542 -15.569  0.00  0.00    -0.464 OA
BRANCH  30  31
ATOM     31  C   UNL     1      27.852 -23.113 -16.408  0.00  0.00    +0.314 C 
BRANCH  31  33
ATOM     32  O   UNL     1      25.669 -22.455 -15.568  0.00  0.00    -0.246 OA
ATOM     33  C   UNL     1      26.600 -22.284 -16.341  0.00  0.00    +0.359 C 
BRANCH  33  34
ATOM     34  O   UNL     1      26.641 -21.298 -17.273  0.00  0.00    -0.478 OA
ATOM     35  H   UNL     1      26.185 -20.493 -17.125  0.00  0.00    +0.295 HD
ENDBRANCH  33  34
ENDBRANCH  31  33
ENDBRANCH  30  31
ENDBRANCH  27  30
ENDBRANCH  23  24
ENDBRANCH   1  23
TORSDOF 11
ENDMDL
MODEL 4
REMARK VINA RESULT:     -10.2      2.591      6.663
REMARK  Name = 18376177
REMARK  11 active torsions:
REMARK  status: ('A' for Active; 'I' for Inactive)
REMARK    1  A    between atoms: N_1  and  S_2
REMARK    2  A    between atoms: N_1  and  C_11
REMARK    3  A    between atoms: N_1  and  C_23
REMARK    4  A    between atoms: S_2  and  C_6
REMARK    5  A    between atoms: C_11  and  C_12
REMARK    6  A    between atoms: C_15  and  N_18
REMARK    7  A    between atoms: C_23  and  C_24
REMARK    8  A    between atoms: C_27  and  O_30
REMARK    9  A    between atoms: O_30  and  C_31
REMARK   10  A    between atoms: C_31  and  C_33
REMARK   11  A    between atoms: C_33  and  O_34
REMARK                            x       y       z     vdW  Elec       q    Type
REMARK                         _______ _______ _______ _____ _____    ______ ____
ROOT
ATOM      1  N   UNL     1      34.286 -23.575 -16.374  0.00  0.00    -0.147 NA
ENDROOT
BRANCH   1   2
ATOM      2  S   UNL     1      35.785 -23.128 -15.650  0.00  0.00    +0.065 S 
ATOM      3  O   UNL     1      35.532 -22.325 -14.468  0.00  0.00    -0.153 OA
ATOM      4  O   UNL     1      36.686 -22.628 -16.673  0.00  0.00    -0.153 OA
BRANCH   2   6
ATOM      5  N   UNL     1      36.088 -27.054 -14.759  0.00  0.00    -0.241 NA
ATOM      6  C   UNL     1      36.428 -24.685 -15.101  0.00  0.00    +0.141 C 
ATOM      7  C   UNL     1      37.719 -24.789 -14.596  0.00  0.00    +0.023 C 
ATOM      8  C   UNL     1      35.660 -25.837 -15.161  0.00  0.00    +0.119 C 
ATOM      9  C   UNL     1      38.196 -26.024 -14.172  0.00  0.00    +0.022 C 
ATOM     10  C   UNL     1      37.348 -27.117 -14.274  0.00  0.00    +0.099 C 
ENDBRANCH   2   6
ENDBRANCH   1   2
BRANCH   1  11
ATOM     11  C   UNL     1      34.293 -23.952 -17.810  0.00  0.00    +0.122 C 
BRANCH  11  12
ATOM     12  C   UNL     1      34.458 -22.761 -18.711  0.00  0.00    -0.004 C 
ATOM     13  C   UNL     1      35.730 -22.376 -19.131  0.00  0.00    -0.002 C 
ATOM     14  C   UNL     1      33.338 -22.041 -19.128  0.00  0.00    -0.002 C 
ATOM     15  C   UNL     1      34.764 -20.548 -20.382  0.00  0.00    +0.074 C 
ATOM     16  C   UNL     1      35.884 -21.269 -19.967  0.00  0.00    +0.016 C 
ATOM     17  C   UNL     1      33.491 -20.935 -19.963  0.00  0.00    +0.016 C 
BRANCH  15  18
ATOM     18  N   UNL     1      34.916 -19.453 -21.212  0.00  0.00    -0.189 N 
ATOM     19  N   UNL     1      35.076 -18.223 -20.693  0.00  0.00    -0.172 NA
ATOM     20  C   UNL     1      34.927 -19.481 -22.575  0.00  0.00    +0.091 C 
ATOM     21  C   UNL     1      35.105 -18.180 -22.977  0.00  0.00    +0.040 C 
ATOM     22  C   UNL     1      35.190 -17.450 -21.777  0.00  0.00    +0.120 C 
ENDBRANCH  15  18
ENDBRANCH  11  12
ENDBRANCH   1  11
BRANCH   1  23
ATOM     23  C   UNL     1      33.080 -22.785 -16.014  0.00  0.00    +0.123 C 
BRANCH  23  24
ATOM     24  C   UNL     1      32.050 -23.612 -15.298  0.00  0.00    -0.001 C 
ATOM     25  C   UNL     1      30.716 -23.568 -15.702  0.00  0.00    +0.034 C 
ATOM     26  C   UNL     1      32.429 -24.426 -14.230  0.00  0.00    -0.003 C 
ATOM     27  C   UNL     1      29.760 -24.336 -15.037  0.00  0.00    +0.139 C 
ATOM     28  C   UNL     1      31.473 -25.194 -13.566  0.00  0.00    +0.003 C 
ATOM     29  C   UNL     1      30.138 -25.150 -13.970  0.00  0.00    +0.037 C 
BRANCH  27  30
ATOM     30  O   UNL     1      28.458 -24.290 -15.429  0.00  0.00    -0.464 OA
BRANCH  30  31
ATOM     31  C   UNL     1      27.811 -23.018 -15.391  0.00  0.00    +0.314 C 
BRANCH  31  33
ATOM     32  O   UNL     1      26.856 -21.582 -17.101  0.00  0.00    -0.246 OA
ATOM     33  C   UNL     1      27.288 -22.672 -16.756  0.00  0.00    +0.359 C 
BRANCH  33  34
ATOM     34  O   UNL     1      27.360 -23.752 -17.573  0.00  0.00    -0.478 OA
ATOM     35  H   UNL     1      27.524 -23.638 -18.489  0.00  0.00    +0.295 HD
ENDBRANCH  33  34
ENDBRANCH  31  33
ENDBRANCH  30  31
ENDBRANCH  27  30
ENDBRANCH  23  24
ENDBRANCH   1  23
TORSDOF 11
ENDMDL
MODEL 5
REMARK VINA RESULT:     -10.0      1.681      2.611
REMARK  Name = 18376177
REMARK  11 active torsions:
REMARK  status: ('A' for Active; 'I' for Inactive)
REMARK    1  A    between atoms: N_1  and  S_2
REMARK    2  A    between atoms: N_1  and  C_11
REMARK    3  A    between atoms: N_1  and  C_23
REMARK    4  A    between atoms: S_2  and  C_6
REMARK    5  A    between atoms: C_11  and  C_12
REMARK    6  A    between atoms: C_15  and  N_18
REMARK    7  A    between atoms: C_23  and  C_24
REMARK    8  A    between atoms: C_27  and  O_30
REMARK    9  A    between atoms: O_30  and  C_31
REMARK   10  A    between atoms: C_31  and  C_33
REMARK   11  A    between atoms: C_33  and  O_34
REMARK                            x       y       z     vdW  Elec       q    Type
REMARK                         _______ _______ _______ _____ _____    ______ ____
ROOT
ATOM      1  N   UNL     1      33.724 -23.244 -15.752  0.00  0.00    -0.147 NA
ENDROOT
BRANCH   1   2
ATOM      2  S   UNL     1      32.747 -24.014 -14.557  0.00  0.00    +0.065 S 
ATOM      3  O   UNL     1      32.710 -23.194 -13.361  0.00  0.00    -0.153 OA
ATOM      4  O   UNL     1      33.124 -25.412 -14.453  0.00  0.00    -0.153 OA
BRANCH   2   6
ATOM      5  N   UNL     1      29.522 -22.779 -16.648  0.00  0.00    -0.241 NA
ATOM      6  C   UNL     1      31.133 -23.958 -15.283  0.00  0.00    +0.141 C 
ATOM      7  C   UNL     1      30.223 -24.990 -15.086  0.00  0.00    +0.023 C 
ATOM      8  C   UNL     1      30.737 -22.885 -16.066  0.00  0.00    +0.119 C 
ATOM      9  C   UNL     1      28.963 -24.919 -15.669  0.00  0.00    +0.022 C 
ATOM     10  C   UNL     1      28.664 -23.802 -16.434  0.00  0.00    +0.099 C 
ENDBRANCH   2   6
ENDBRANCH   1   2
BRANCH   1  11
ATOM     11  C   UNL     1      33.704 -23.800 -17.128  0.00  0.00    +0.122 C 
BRANCH  11  12
ATOM     12  C   UNL     1      34.060 -22.770 -18.164  0.00  0.00    -0.004 C 
ATOM     13  C   UNL     1      35.397 -22.543 -18.490  0.00  0.00    -0.002 C 
ATOM     14  C   UNL     1      33.054 -22.041 -18.798  0.00  0.00    -0.002 C 
ATOM     15  C   UNL     1      34.721 -20.857 -20.083  0.00  0.00    +0.074 C 
ATOM     16  C   UNL     1      35.727 -21.586 -19.450  0.00  0.00    +0.016 C 
ATOM     17  C   UNL     1      33.384 -21.085 -19.758  0.00  0.00    +0.016 C 
BRANCH  15  18
ATOM     18  N   UNL     1      35.050 -19.910 -21.036  0.00  0.00    -0.189 N 
ATOM     19  N   UNL     1      35.765 -18.823 -20.697  0.00  0.00    -0.172 NA
ATOM     20  C   UNL     1      34.713 -19.959 -22.357  0.00  0.00    +0.091 C 
ATOM     21  C   UNL     1      35.244 -18.826 -22.922  0.00  0.00    +0.040 C 
ATOM     22  C   UNL     1      35.880 -18.164 -21.855  0.00  0.00    +0.120 C 
ENDBRANCH  15  18
ENDBRANCH  11  12
ENDBRANCH   1  11
BRANCH   1  23
ATOM     23  C   UNL     1      35.083 -22.797 -15.353  0.00  0.00    +0.123 C 
BRANCH  23  24
ATOM     24  C   UNL     1      35.870 -23.892 -14.690  0.00  0.00    -0.001 C 
ATOM     25  C   UNL     1      36.413 -23.691 -13.421  0.00  0.00    +0.034 C 
ATOM     26  C   UNL     1      36.057 -25.111 -15.343  0.00  0.00    -0.003 C 
ATOM     27  C   UNL     1      37.144 -24.707 -12.806  0.00  0.00    +0.139 C 
ATOM     28  C   UNL     1      36.788 -26.127 -14.728  0.00  0.00    +0.003 C 
ATOM     29  C   UNL     1      37.331 -25.926 -13.459  0.00  0.00    +0.037 C 
BRANCH  27  30
ATOM     30  O   UNL     1      37.676 -24.510 -11.569  0.00  0.00    -0.464 OA
BRANCH  30  31
ATOM     31  C   UNL     1      36.867 -23.823 -10.615  0.00  0.00    +0.314 C 
BRANCH  31  33
ATOM     32  O   UNL     1      35.377 -25.566  -9.814  0.00  0.00    -0.246 OA
ATOM     33  C   UNL     1      35.556 -24.538 -10.449  0.00  0.00    +0.359 C 
BRANCH  33  34
ATOM     34  O   UNL     1      34.575 -23.877 -11.114  0.00  0.00    -0.478 OA
ATOM     35  H   UNL     1      34.445 -22.960 -10.967  0.00  0.00    +0.295 HD
ENDBRANCH  33  34
ENDBRANCH  31  33
ENDBRANCH  30  31
ENDBRANCH  27  30
ENDBRANCH  23  24
ENDBRANCH   1  23
TORSDOF 11
ENDMDL
MODEL 6
REMARK VINA RESULT:      -9.6      3.347      7.637
REMARK  Name = 18376177
REMARK  11 active torsions:
REMARK  status: ('A' for Active; 'I' for Inactive)
REMARK    1  A    between atoms: N_1  and  S_2
REMARK    2  A    between atoms: N_1  and  C_11
REMARK    3  A    between atoms: N_1  and  C_23
REMARK    4  A    between atoms: S_2  and  C_6
REMARK    5  A    between atoms: C_11  and  C_12
REMARK    6  A    between atoms: C_15  and  N_18
REMARK    7  A    between atoms: C_23  and  C_24
REMARK    8  A    between atoms: C_27  and  O_30
REMARK    9  A    between atoms: O_30  and  C_31
REMARK   10  A    between atoms: C_31  and  C_33
REMARK   11  A    between atoms: C_33  and  O_34
REMARK                            x       y       z     vdW  Elec       q    Type
REMARK                         _______ _______ _______ _____ _____    ______ ____
ROOT
ATOM      1  N   UNL     1      35.276 -24.440 -12.992  0.00  0.00    -0.147 NA
ENDROOT
BRANCH   1   2
ATOM      2  S   UNL     1      36.694 -24.283 -12.024  0.00  0.00    +0.065 S 
ATOM      3  O   UNL     1      36.465 -24.897 -10.729  0.00  0.00    -0.153 OA
ATOM      4  O   UNL     1      37.176 -22.916 -12.091  0.00  0.00    -0.153 OA
BRANCH   2   6
ATOM      5  N   UNL     1      38.355 -27.370 -14.025  0.00  0.00    -0.241 NA
ATOM      6  C   UNL     1      37.864 -25.295 -12.886  0.00  0.00    +0.141 C 
ATOM      7  C   UNL     1      39.164 -24.856 -13.108  0.00  0.00    +0.023 C 
ATOM      8  C   UNL     1      37.513 -26.549 -13.361  0.00  0.00    +0.119 C 
ATOM      9  C   UNL     1      40.061 -25.672 -13.788  0.00  0.00    +0.022 C 
ATOM     10  C   UNL     1      39.611 -26.910 -14.223  0.00  0.00    +0.099 C 
ENDBRANCH   2   6
ENDBRANCH   1   2
BRANCH   1  11
ATOM     11  C   UNL     1      34.024 -24.877 -12.324  0.00  0.00    +0.122 C 
BRANCH  11  12
ATOM     12  C   UNL     1      32.801 -24.548 -13.134  0.00  0.00    -0.004 C 
ATOM     13  C   UNL     1      32.610 -23.252 -13.611  0.00  0.00    -0.002 C 
ATOM     14  C   UNL     1      31.858 -25.538 -13.407  0.00  0.00    -0.002 C 
ATOM     15  C   UNL     1      30.530 -23.936 -14.634  0.00  0.00    +0.074 C 
ATOM     16  C   UNL     1      31.474 -22.946 -14.362  0.00  0.00    +0.016 C 
ATOM     17  C   UNL     1      30.723 -25.233 -14.157  0.00  0.00    +0.016 C 
BRANCH  15  18
ATOM     18  N   UNL     1      29.406 -23.633 -15.379  0.00  0.00    -0.189 N 
ATOM     19  N   UNL     1      28.683 -22.534 -15.103  0.00  0.00    -0.172 NA
ATOM     20  C   UNL     1      28.922 -24.363 -16.425  0.00  0.00    +0.091 C 
ATOM     21  C   UNL     1      27.804 -23.697 -16.863  0.00  0.00    +0.040 C 
ATOM     22  C   UNL     1      27.705 -22.579 -16.014  0.00  0.00    +0.120 C 
ENDBRANCH  15  18
ENDBRANCH  11  12
ENDBRANCH   1  11
BRANCH   1  23
ATOM     23  C   UNL     1      35.422 -25.040 -14.344  0.00  0.00    +0.123 C 
BRANCH  23  24
ATOM     24  C   UNL     1      35.746 -24.012 -15.391  0.00  0.00    -0.001 C 
ATOM     25  C   UNL     1      34.811 -23.703 -16.379  0.00  0.00    +0.034 C 
ATOM     26  C   UNL     1      36.982 -23.365 -15.374  0.00  0.00    -0.003 C 
ATOM     27  C   UNL     1      35.112 -22.749 -17.350  0.00  0.00    +0.139 C 
ATOM     28  C   UNL     1      37.283 -22.411 -16.346  0.00  0.00    +0.003 C 
ATOM     29  C   UNL     1      36.348 -22.102 -17.334  0.00  0.00    +0.037 C 
BRANCH  27  30
ATOM     30  O   UNL     1      34.201 -22.450 -18.316  0.00  0.00    -0.464 OA
BRANCH  30  31
ATOM     31  C   UNL     1      34.667 -21.708 -19.443  0.00  0.00    +0.314 C 
BRANCH  31  33
ATOM     32  O   UNL     1      32.422 -20.785 -19.536  0.00  0.00    -0.246 OA
ATOM     33  C   UNL     1      33.551 -20.868 -19.997  0.00  0.00    +0.359 C 
BRANCH  33  34
ATOM     34  O   UNL     1      33.972 -20.199 -21.099  0.00  0.00    -0.478 OA
ATOM     35  H   UNL     1      34.855 -19.891 -21.153  0.00  0.00    +0.295 HD
ENDBRANCH  33  34
ENDBRANCH  31  33
ENDBRANCH  30  31
ENDBRANCH  27  30
ENDBRANCH  23  24
ENDBRANCH   1  23
TORSDOF 11
ENDMDL
MODEL 7
REMARK VINA RESULT:      -9.0      2.477      5.004
REMARK  Name = 18376177
REMARK  11 active torsions:
REMARK  status: ('A' for Active; 'I' for Inactive)
REMARK    1  A    between atoms: N_1  and  S_2
REMARK    2  A    between atoms: N_1  and  C_11
REMARK    3  A    between atoms: N_1  and  C_23
REMARK    4  A    between atoms: S_2  and  C_6
REMARK    5  A    between atoms: C_11  and  C_12
REMARK    6  A    between atoms: C_15  and  N_18
REMARK    7  A    between atoms: C_23  and  C_24
REMARK    8  A    between atoms: C_27  and  O_30
REMARK    9  A    between atoms: O_30  and  C_31
REMARK   10  A    between atoms: C_31  and  C_33
REMARK   11  A    between atoms: C_33  and  O_34
REMARK                            x       y       z     vdW  Elec       q    Type
REMARK                         _______ _______ _______ _____ _____    ______ ____
ROOT
ATOM      1  N   UNL     1      34.435 -23.544 -16.873  0.00  0.00    -0.147 NA
ENDROOT
BRANCH   1   2
ATOM      2  S   UNL     1      35.898 -22.910 -16.216  0.00  0.00    +0.065 S 
ATOM      3  O   UNL     1      35.585 -21.887 -15.236  0.00  0.00    -0.153 OA
ATOM      4  O   UNL     1      36.821 -22.607 -17.295  0.00  0.00    -0.153 OA
BRANCH   2   6
ATOM      5  N   UNL     1      36.336 -26.606 -14.652  0.00  0.00    -0.241 NA
ATOM      6  C   UNL     1      36.559 -24.297 -15.335  0.00  0.00    +0.141 C 
ATOM      7  C   UNL     1      37.766 -24.203 -14.653  0.00  0.00    +0.023 C 
ATOM      8  C   UNL     1      35.889 -25.510 -15.304  0.00  0.00    +0.119 C 
ATOM      9  C   UNL     1      38.261 -25.309 -13.970  0.00  0.00    +0.022 C 
ATOM     10  C   UNL     1      37.514 -26.477 -14.000  0.00  0.00    +0.099 C 
ENDBRANCH   2   6
ENDBRANCH   1   2
BRANCH   1  11
ATOM     11  C   UNL     1      34.380 -23.789 -18.336  0.00  0.00    +0.122 C 
BRANCH  11  12
ATOM     12  C   UNL     1      34.520 -22.522 -19.132  0.00  0.00    -0.004 C 
ATOM     13  C   UNL     1      33.389 -21.772 -19.453  0.00  0.00    -0.002 C 
ATOM     14  C   UNL     1      35.781 -22.096 -19.549  0.00  0.00    -0.002 C 
ATOM     15  C   UNL     1      34.780 -20.171 -20.612  0.00  0.00    +0.074 C 
ATOM     16  C   UNL     1      33.519 -20.596 -20.193  0.00  0.00    +0.016 C 
ATOM     17  C   UNL     1      35.911 -20.921 -20.289  0.00  0.00    +0.016 C 
BRANCH  15  18
ATOM     18  N   UNL     1      34.908 -19.005 -21.343  0.00  0.00    -0.189 N 
ATOM     19  N   UNL     1      34.925 -17.812 -20.725  0.00  0.00    -0.172 NA
ATOM     20  C   UNL     1      35.029 -18.925 -22.699  0.00  0.00    +0.091 C 
ATOM     21  C   UNL     1      35.132 -17.586 -22.988  0.00  0.00    +0.040 C 
ATOM     22  C   UNL     1      35.062 -16.949 -21.736  0.00  0.00    +0.120 C 
ENDBRANCH  15  18
ENDBRANCH  11  12
ENDBRANCH   1  11
BRANCH   1  23
ATOM     23  C   UNL     1      33.152 -23.007 -16.351  0.00  0.00    +0.123 C 
BRANCH  23  24
ATOM     24  C   UNL     1      32.647 -23.787 -15.170  0.00  0.00    -0.001 C 
ATOM     25  C   UNL     1      33.505 -24.086 -14.112  0.00  0.00    +0.034 C 
ATOM     26  C   UNL     1      31.318 -24.213 -15.132  0.00  0.00    -0.003 C 
ATOM     27  C   UNL     1      33.035 -24.810 -13.017  0.00  0.00    +0.139 C 
ATOM     28  C   UNL     1      30.849 -24.937 -14.037  0.00  0.00    +0.003 C 
ATOM     29  C   UNL     1      31.707 -25.236 -12.978  0.00  0.00    +0.037 C 
BRANCH  27  30
ATOM     30  O   UNL     1      33.873 -25.104 -11.985  0.00  0.00    -0.464 OA
BRANCH  30  31
ATOM     31  C   UNL     1      35.078 -24.346 -11.890  0.00  0.00    +0.314 C 
BRANCH  31  33
ATOM     32  O   UNL     1      37.159 -24.792 -10.717  0.00  0.00    -0.246 OA
ATOM     33  C   UNL     1      35.944 -24.901 -10.794  0.00  0.00    +0.359 C 
BRANCH  33  34
ATOM     34  O   UNL     1      35.182 -25.554  -9.881  0.00  0.00    -0.478 OA
ATOM     35  H   UNL     1      35.480 -26.362  -9.512  0.00  0.00    +0.295 HD
ENDBRANCH  33  34
ENDBRANCH  31  33
ENDBRANCH  30  31
ENDBRANCH  27  30
ENDBRANCH  23  24
ENDBRANCH   1  23
TORSDOF 11
ENDMDL
MODEL 8
REMARK VINA RESULT:      -8.7      3.357      6.757
REMARK  Name = 18376177
REMARK  11 active torsions:
REMARK  status: ('A' for Active; 'I' for Inactive)
REMARK    1  A    between atoms: N_1  and  S_2
REMARK    2  A    between atoms: N_1  and  C_11
REMARK    3  A    between atoms: N_1  and  C_23
REMARK    4  A    between atoms: S_2  and  C_6
REMARK    5  A    between atoms: C_11  and  C_12
REMARK    6  A    between atoms: C_15  and  N_18
REMARK    7  A    between atoms: C_23  and  C_24
REMARK    8  A    between atoms: C_27  and  O_30
REMARK    9  A    between atoms: O_30  and  C_31
REMARK   10  A    between atoms: C_31  and  C_33
REMARK   11  A    between atoms: C_33  and  O_34
REMARK                            x       y       z     vdW  Elec       q    Type
REMARK                         _______ _______ _______ _____ _____    ______ ____
ROOT
ATOM      1  N   UNL     1      32.350 -23.671 -15.687  0.00  0.00    -0.147 NA
ENDROOT
BRANCH   1   2
ATOM      2  S   UNL     1      31.217 -24.414 -14.621  0.00  0.00    +0.065 S 
ATOM      3  O   UNL     1      31.304 -23.792 -13.312  0.00  0.00    -0.153 OA
ATOM      4  O   UNL     1      31.322 -25.857 -14.733  0.00  0.00    -0.153 OA
BRANCH   2   6
ATOM      5  N   UNL     1      27.862 -24.427 -16.866  0.00  0.00    -0.241 NA
ATOM      6  C   UNL     1      29.660 -23.945 -15.322  0.00  0.00    +0.141 C 
ATOM      7  C   UNL     1      29.014 -22.782 -14.920  0.00  0.00    +0.023 C 
ATOM      8  C   UNL     1      29.048 -24.726 -16.290  0.00  0.00    +0.119 C 
ATOM      9  C   UNL     1      27.792 -22.440 -15.489  0.00  0.00    +0.022 C 
ATOM     10  C   UNL     1      27.263 -23.289 -16.449  0.00  0.00    +0.099 C 
ENDBRANCH   2   6
ENDBRANCH   1   2
BRANCH   1  11
ATOM     11  C   UNL     1      33.347 -22.740 -15.101  0.00  0.00    +0.122 C 
BRANCH  11  12
ATOM     12  C   UNL     1      34.687 -23.391 -14.905  0.00  0.00    -0.004 C 
ATOM     13  C   UNL     1      34.764 -24.749 -14.596  0.00  0.00    -0.002 C 
ATOM     14  C   UNL     1      35.855 -22.638 -15.031  0.00  0.00    -0.002 C 
ATOM     15  C   UNL     1      37.175 -24.600 -14.538  0.00  0.00    +0.074 C 
ATOM     16  C   UNL     1      36.008 -25.354 -14.413  0.00  0.00    +0.016 C 
ATOM     17  C   UNL     1      37.098 -23.242 -14.848  0.00  0.00    +0.016 C 
BRANCH  15  18
ATOM     18  N   UNL     1      38.408 -25.200 -14.358  0.00  0.00    -0.189 N 
ATOM     19  N   UNL     1      39.506 -24.685 -14.936  0.00  0.00    -0.172 NA
ATOM     20  C   UNL     1      38.649 -26.317 -13.614  0.00  0.00    +0.091 C 
ATOM     21  C   UNL     1      39.998 -26.550 -13.713  0.00  0.00    +0.040 C 
ATOM     22  C   UNL     1      40.475 -25.516 -14.539  0.00  0.00    +0.120 C 
ENDBRANCH  15  18
ENDBRANCH  11  12
ENDBRANCH   1  11
BRANCH   1  23
ATOM     23  C   UNL     1      31.852 -23.194 -17.003  0.00  0.00    +0.123 C 
BRANCH  23  24
ATOM     24  C   UNL     1      32.966 -22.726 -17.897  0.00  0.00    -0.001 C 
ATOM     25  C   UNL     1      32.772 -21.632 -18.739  0.00  0.00    +0.034 C 
ATOM     26  C   UNL     1      34.196 -23.386 -17.883  0.00  0.00    -0.003 C 
ATOM     27  C   UNL     1      33.806 -21.198 -19.568  0.00  0.00    +0.139 C 
ATOM     28  C   UNL     1      35.230 -22.952 -18.712  0.00  0.00    +0.003 C 
ATOM     29  C   UNL     1      35.035 -21.857 -19.555  0.00  0.00    +0.037 C 
BRANCH  27  30
ATOM     30  O   UNL     1      33.616 -20.131 -20.392  0.00  0.00    -0.464 OA
BRANCH  30  31
ATOM     31  C   UNL     1      34.627 -19.873 -21.366  0.00  0.00    +0.314 C 
BRANCH  31  33
ATOM     32  O   UNL     1      34.785 -17.455 -21.199  0.00  0.00    -0.246 OA
ATOM     33  C   UNL     1      35.293 -18.558 -21.071  0.00  0.00    +0.359 C 
BRANCH  33  34
ATOM     34  O   UNL     1      36.560 -18.764 -20.632  0.00  0.00    -0.478 OA
ATOM     35  H   UNL     1      36.715 -19.008 -19.741  0.00  0.00    +0.295 HD
ENDBRANCH  33  34
ENDBRANCH  31  33
ENDBRANCH  30  31
ENDBRANCH  27  30
ENDBRANCH  23  24
ENDBRANCH   1  23
TORSDOF 11
ENDMDL
