MODEL 1
REMARK VINA RESULT:     -11.4      0.000      0.000
REMARK  Name = 5496659
REMARK  9 active torsions:
REMARK  status: ('A' for Active; 'I' for Inactive)
REMARK    1  A    between atoms: C_1  and  N_4
REMARK    2  A    between atoms: C_1  and  C_20
REMARK    3  A    between atoms: C_5  and  C_7
REMARK    4  A    between atoms: C_10  and  C_15
REMARK    5  A    between atoms: C_20  and  C_22
REMARK    6  A    between atoms: C_20  and  C_25
REMARK    7  A    between atoms: C_22  and  O_23
REMARK    8  A    between atoms: C_25  and  C_26
REMARK    9  A    between atoms: C_29  and  C_34
REMARK                            x       y       z     vdW  Elec       q    Type
REMARK                         _______ _______ _______ _____ _____    ______ ____
ROOT
ATOM      1  C   UNL     1      33.476 -24.062 -15.910  0.00  0.00    +0.083 C 
ATOM      2  C   UNL     1      32.136 -23.862 -15.205  0.00  0.00    +0.022 C 
ENDROOT
BRANCH   1   4
ATOM      3  O   UNL     1      33.670 -24.388 -18.756  0.00  0.00    -0.270 OA
ATOM      4  N   UNL     1      33.687 -23.018 -16.886  0.00  0.00    -0.302 N 
ATOM      5  C   UNL     1      33.766 -23.275 -18.246  0.00  0.00    +0.246 C 
ATOM      6  H   UNL     1      33.777 -22.088 -16.573  0.00  0.00    +0.150 HD
BRANCH   5   7
ATOM      7  C   UNL     1      34.011 -22.097 -19.115  0.00  0.00    +0.053 C 
ATOM      8  C   UNL     1      32.942 -21.302 -19.530  0.00  0.00    +0.005 C 
ATOM      9  C   UNL     1      35.309 -21.784 -19.518  0.00  0.00    +0.005 C 
ATOM     10  C   UNL     1      34.471 -19.883 -20.750  0.00  0.00    +0.000 C 
ATOM     11  C   UNL     1      33.172 -20.195 -20.348  0.00  0.00    +0.000 C 
ATOM     12  C   UNL     1      35.539 -20.678 -20.335  0.00  0.00    +0.000 C 
BRANCH  10  15
ATOM     13  O   UNL     1      35.388 -15.518 -23.983  0.00  0.00    -0.163 OA
ATOM     14  N   UNL     1      35.175 -16.527 -23.236  0.00  0.00    -0.127 N 
ATOM     15  C   UNL     1      34.711 -18.737 -21.599  0.00  0.00    +0.003 C 
ATOM     16  C   UNL     1      34.810 -17.466 -21.042  0.00  0.00    +0.022 C 
ATOM     17  C   UNL     1      34.843 -18.904 -22.973  0.00  0.00    +0.022 C 
ATOM     18  C   UNL     1      35.042 -16.373 -21.869  0.00  0.00    +0.121 C 
ATOM     19  C   UNL     1      35.075 -17.793 -23.779  0.00  0.00    +0.121 C 
ENDBRANCH  10  15
ENDBRANCH   5   7
ENDBRANCH   1   4
BRANCH   1  20
ATOM     20  C   UNL     1      34.651 -24.189 -14.913  0.00  0.00    +0.121 C 
BRANCH  20  22
ATOM     21  O   UNL     1      35.804 -22.110 -14.371  0.00  0.00    -0.250 OA
ATOM     22  C   UNL     1      35.673 -23.074 -15.115  0.00  0.00    +0.319 C 
BRANCH  22  23
ATOM     23  O   UNL     1      36.403 -23.318 -16.242  0.00  0.00    -0.444 OA
ATOM     24  C   UNL     1      37.518 -22.446 -16.454  0.00  0.00    +0.256 C 
ENDBRANCH  22  23
ENDBRANCH  20  22
BRANCH  20  25
ATOM     25  C   UNL     1      35.347 -25.562 -15.010  0.00  0.00    +0.039 C 
BRANCH  25  26
ATOM     26  C   UNL     1      36.533 -25.684 -14.082  0.00  0.00    -0.021 C 
ATOM     27  C   UNL     1      37.789 -26.012 -14.594  0.00  0.00    -0.002 C 
ATOM     28  C   UNL     1      36.372 -25.471 -12.713  0.00  0.00    -0.004 C 
ATOM     29  C   UNL     1      38.883 -26.127 -13.736  0.00  0.00    +0.030 C 
ATOM     30  C   UNL     1      37.467 -25.585 -11.856  0.00  0.00    -0.000 C 
ATOM     31  C   UNL     1      38.722 -25.914 -12.367  0.00  0.00    +0.003 C 
BRANCH  29  34
ATOM     32  N   UNL     1      41.132 -27.153 -13.499  0.00  0.00    -0.343 N 
ATOM     33  N   UNL     1      40.508 -26.131 -15.507  0.00  0.00    -0.285 NA
ATOM     34  C   UNL     1      40.192 -26.471 -14.270  0.00  0.00    +0.117 C 
ATOM     35  H   UNL     1      42.012 -27.375 -13.881  0.00  0.00    +0.144 HD
ATOM     36  H   UNL     1      40.916 -27.412 -12.575  0.00  0.00    +0.144 HD
ATOM     37  H   UNL     1      41.394 -26.363 -15.869  0.00  0.00    +0.188 HD
ENDBRANCH  29  34
ENDBRANCH  25  26
ENDBRANCH  20  25
ENDBRANCH   1  20
TORSDOF 9
ENDMDL
MODEL 2
REMARK VINA RESULT:     -11.0      1.496      2.642
REMARK  Name = 5496659
REMARK  9 active torsions:
REMARK  status: ('A' for Active; 'I' for Inactive)
REMARK    1  A    between atoms: C_1  and  N_4
REMARK    2  A    between atoms: C_1  and  C_20
REMARK    3  A    between atoms: C_5  and  C_7
REMARK    4  A    between atoms: C_10  and  C_15
REMARK    5  A    between atoms: C_20  and  C_22
REMARK    6  A    between atoms: C_20  and  C_25
REMARK    7  A    between atoms: C_22  and  O_23
REMARK    8  A    between atoms: C_25  and  C_26
REMARK    9  A    between atoms: C_29  and  C_34
REMARK                            x       y       z     vdW  Elec       q    Type
REMARK                         _______ _______ _______ _____ _____    ______ ____
ROOT
ATOM      1  C   UNL     1      32.453 -23.955 -15.776  0.00  0.00    +0.083 C 
ATOM      2  C   UNL     1      31.206 -23.495 -15.022  0.00  0.00    +0.022 C 
ENDROOT
BRANCH   1   4
ATOM      3  O   UNL     1      33.694 -24.490 -18.309  0.00  0.00    -0.270 OA
ATOM      4  N   UNL     1      32.813 -22.984 -16.783  0.00  0.00    -0.302 N 
ATOM      5  C   UNL     1      33.412 -23.340 -17.981  0.00  0.00    +0.246 C 
ATOM      6  H   UNL     1      32.626 -22.032 -16.611  0.00  0.00    +0.150 HD
BRANCH   5   7
ATOM      7  C   UNL     1      33.743 -22.221 -18.899  0.00  0.00    +0.053 C 
ATOM      8  C   UNL     1      32.726 -21.416 -19.413  0.00  0.00    +0.005 C 
ATOM      9  C   UNL     1      35.070 -21.975 -19.248  0.00  0.00    +0.005 C 
ATOM     10  C   UNL     1      34.365 -20.119 -20.625  0.00  0.00    +0.000 C 
ATOM     11  C   UNL     1      33.037 -20.365 -20.276  0.00  0.00    +0.000 C 
ATOM     12  C   UNL     1      35.382 -20.925 -20.111  0.00  0.00    +0.000 C 
BRANCH  10  15
ATOM     13  O   UNL     1      35.595 -15.975 -24.039  0.00  0.00    -0.163 OA
ATOM     14  N   UNL     1      35.312 -16.933 -23.250  0.00  0.00    -0.127 N 
ATOM     15  C   UNL     1      34.689 -19.031 -21.521  0.00  0.00    +0.003 C 
ATOM     16  C   UNL     1      34.816 -19.267 -22.886  0.00  0.00    +0.022 C 
ATOM     17  C   UNL     1      34.872 -17.747 -21.020  0.00  0.00    +0.022 C 
ATOM     18  C   UNL     1      35.127 -18.213 -23.737  0.00  0.00    +0.121 C 
ATOM     19  C   UNL     1      35.183 -16.709 -21.893  0.00  0.00    +0.121 C 
ENDBRANCH  10  15
ENDBRANCH   5   7
ENDBRANCH   1   4
BRANCH   1  20
ATOM     20  C   UNL     1      33.625 -24.287 -14.825  0.00  0.00    +0.121 C 
BRANCH  20  22
ATOM     21  O   UNL     1      32.353 -25.855 -13.458  0.00  0.00    -0.250 OA
ATOM     22  C   UNL     1      33.125 -24.906 -13.523  0.00  0.00    +0.319 C 
BRANCH  22  23
ATOM     23  O   UNL     1      33.666 -24.242 -12.460  0.00  0.00    -0.444 OA
ATOM     24  C   UNL     1      34.707 -24.937 -11.766  0.00  0.00    +0.256 C 
ENDBRANCH  22  23
ENDBRANCH  20  22
BRANCH  20  25
ATOM     25  C   UNL     1      34.490 -23.046 -14.517  0.00  0.00    +0.039 C 
BRANCH  25  26
ATOM     26  C   UNL     1      35.921 -23.202 -14.977  0.00  0.00    -0.021 C 
ATOM     27  C   UNL     1      36.719 -24.215 -14.443  0.00  0.00    -0.002 C 
ATOM     28  C   UNL     1      36.446 -22.332 -15.933  0.00  0.00    -0.004 C 
ATOM     29  C   UNL     1      38.040 -24.357 -14.866  0.00  0.00    +0.030 C 
ATOM     30  C   UNL     1      37.767 -22.475 -16.355  0.00  0.00    -0.000 C 
ATOM     31  C   UNL     1      38.565 -23.486 -15.822  0.00  0.00    +0.003 C 
BRANCH  29  34
ATOM     32  N   UNL     1      39.026 -25.562 -12.930  0.00  0.00    -0.343 N 
ATOM     33  N   UNL     1      39.504 -26.246 -15.114  0.00  0.00    -0.285 NA
ATOM     34  C   UNL     1      38.873 -25.411 -14.308  0.00  0.00    +0.117 C 
ATOM     35  H   UNL     1      39.594 -26.282 -12.575  0.00  0.00    +0.144 HD
ATOM     36  H   UNL     1      38.566 -24.947 -12.314  0.00  0.00    +0.144 HD
ATOM     37  H   UNL     1      40.068 -26.961 -14.737  0.00  0.00    +0.188 HD
ENDBRANCH  29  34
ENDBRANCH  25  26
ENDBRANCH  20  25
ENDBRANCH   1  20
TORSDOF 9
ENDMDL
MODEL 3
REMARK VINA RESULT:     -10.7      6.705     14.840
REMARK  Name = 5496659
REMARK  9 active torsions:
REMARK  status: ('A' for Active; 'I' for Inactive)
REMARK    1  A    between atoms: C_1  and  N_4
REMARK    2  A    between atoms: C_1  and  C_20
REMARK    3  A    between atoms: C_5  and  C_7
REMARK    4  A    between atoms: C_10  and  C_15
REMARK    5  A    between atoms: C_20  and  C_22
REMARK    6  A    between atoms: C_20  and  C_25
REMARK    7  A    between atoms: C_22  and  O_23
REMARK    8  A    between atoms: C_25  and  C_26
REMARK    9  A    between atoms: C_29  and  C_34
REMARK                            x       y       z     vdW  Elec       q    Type
REMARK                         _______ _______ _______ _____ _____    ______ ____
ROOT
ATOM      1  C   UNL     1      33.560 -11.456 -23.642  0.00  0.00    +0.083 C 
ATOM      2  C   UNL     1      34.763 -10.758 -24.275  0.00  0.00    +0.022 C 
ENDROOT
BRANCH   1   4
ATOM      3  O   UNL     1      33.492 -13.966 -25.035  0.00  0.00    -0.270 OA
ATOM      4  N   UNL     1      33.951 -12.744 -23.119  0.00  0.00    -0.302 N 
ATOM      5  C   UNL     1      33.882 -13.906 -23.872  0.00  0.00    +0.246 C 
ATOM      6  H   UNL     1      34.278 -12.799 -22.191  0.00  0.00    +0.150 HD
BRANCH   5   7
ATOM      7  C   UNL     1      34.296 -15.153 -23.180  0.00  0.00    +0.053 C 
ATOM      8  C   UNL     1      34.717 -16.256 -23.922  0.00  0.00    +0.005 C 
ATOM      9  C   UNL     1      34.263 -15.222 -21.788  0.00  0.00    +0.005 C 
ATOM     10  C   UNL     1      35.073 -17.496 -21.879  0.00  0.00    +0.000 C 
ATOM     11  C   UNL     1      35.105 -17.428 -23.273  0.00  0.00    +0.000 C 
ATOM     12  C   UNL     1      34.651 -16.392 -21.137  0.00  0.00    +0.000 C 
BRANCH  10  15
ATOM     13  O   UNL     1      36.598 -22.120 -19.304  0.00  0.00    -0.163 OA
ATOM     14  N   UNL     1      36.246 -21.051 -19.900  0.00  0.00    -0.127 N 
ATOM     15  C   UNL     1      35.473 -18.711 -21.204  0.00  0.00    +0.003 C 
ATOM     16  C   UNL     1      36.814 -18.933 -20.908  0.00  0.00    +0.022 C 
ATOM     17  C   UNL     1      34.519 -19.657 -20.848  0.00  0.00    +0.022 C 
ATOM     18  C   UNL     1      37.186 -20.104 -20.257  0.00  0.00    +0.121 C 
ATOM     19  C   UNL     1      34.917 -20.821 -20.198  0.00  0.00    +0.121 C 
ENDBRANCH  10  15
ENDBRANCH   5   7
ENDBRANCH   1   4
BRANCH   1  20
ATOM     20  C   UNL     1      32.858 -10.573 -22.585  0.00  0.00    +0.121 C 
BRANCH  20  22
ATOM     21  O   UNL     1      30.680 -11.411 -21.881  0.00  0.00    -0.250 OA
ATOM     22  C   UNL     1      31.895 -11.391 -21.730  0.00  0.00    +0.319 C 
BRANCH  22  23
ATOM     23  O   UNL     1      32.594 -12.084 -20.785  0.00  0.00    -0.444 OA
ATOM     24  C   UNL     1      31.843 -13.062 -20.059  0.00  0.00    +0.256 C 
ENDBRANCH  22  23
ENDBRANCH  20  22
BRANCH  20  25
ATOM     25  C   UNL     1      32.111  -9.385 -23.227  0.00  0.00    +0.039 C 
BRANCH  25  26
ATOM     26  C   UNL     1      32.104  -8.155 -22.349  0.00  0.00    -0.021 C 
ATOM     27  C   UNL     1      31.544  -6.966 -22.817  0.00  0.00    -0.002 C 
ATOM     28  C   UNL     1      32.660  -8.207 -21.071  0.00  0.00    -0.004 C 
ATOM     29  C   UNL     1      31.540  -5.831 -22.008  0.00  0.00    +0.030 C 
ATOM     30  C   UNL     1      32.655  -7.072 -20.261  0.00  0.00    -0.000 C 
ATOM     31  C   UNL     1      32.096  -5.883 -20.730  0.00  0.00    +0.003 C 
BRANCH  29  34
ATOM     32  N   UNL     1      31.355  -4.033 -23.711  0.00  0.00    -0.343 N 
ATOM     33  N   UNL     1      30.036  -3.971 -21.783  0.00  0.00    -0.285 NA
ATOM     34  C   UNL     1      30.958  -4.591 -22.497  0.00  0.00    +0.117 C 
ATOM     35  H   UNL     1      30.948  -3.193 -24.023  0.00  0.00    +0.144 HD
ATOM     36  H   UNL     1      32.043  -4.479 -24.256  0.00  0.00    +0.144 HD
ATOM     37  H   UNL     1      29.640  -3.130 -22.113  0.00  0.00    +0.188 HD
ENDBRANCH  29  34
ENDBRANCH  25  26
ENDBRANCH  20  25
ENDBRANCH   1  20
TORSDOF 9
ENDMDL
MODEL 4
REMARK VINA RESULT:     -10.7      3.927     11.095
REMARK  Name = 5496659
REMARK  9 active torsions:
REMARK  status: ('A' for Active; 'I' for Inactive)
REMARK    1  A    between atoms: C_1  and  N_4
REMARK    2  A    between atoms: C_1  and  C_20
REMARK    3  A    between atoms: C_5  and  C_7
REMARK    4  A    between atoms: C_10  and  C_15
REMARK    5  A    between atoms: C_20  and  C_22
REMARK    6  A    between atoms: C_20  and  C_25
REMARK    7  A    between atoms: C_22  and  O_23
REMARK    8  A    between atoms: C_25  and  C_26
REMARK    9  A    between atoms: C_29  and  C_34
REMARK                            x       y       z     vdW  Elec       q    Type
REMARK                         _______ _______ _______ _____ _____    ______ ____
ROOT
ATOM      1  C   UNL     1      35.858 -19.496 -21.377  0.00  0.00    +0.083 C 
ATOM      2  C   UNL     1      37.250 -19.008 -20.978  0.00  0.00    +0.022 C 
ENDROOT
BRANCH   1   4
ATOM      3  O   UNL     1      36.736 -21.984 -20.246  0.00  0.00    -0.270 OA
ATOM      4  N   UNL     1      35.246 -20.208 -20.279  0.00  0.00    -0.302 N 
ATOM      5  C   UNL     1      35.746 -21.409 -19.801  0.00  0.00    +0.246 C 
ATOM      6  H   UNL     1      34.444 -19.826 -19.855  0.00  0.00    +0.150 HD
BRANCH   5   7
ATOM      7  C   UNL     1      34.988 -22.028 -18.684  0.00  0.00    +0.053 C 
ATOM      8  C   UNL     1      35.654 -22.428 -17.526  0.00  0.00    +0.005 C 
ATOM      9  C   UNL     1      33.610 -22.210 -18.793  0.00  0.00    +0.005 C 
ATOM     10  C   UNL     1      33.563 -23.192 -16.586  0.00  0.00    +0.000 C 
ATOM     11  C   UNL     1      34.942 -23.010 -16.477  0.00  0.00    +0.000 C 
ATOM     12  C   UNL     1      32.897 -22.792 -17.745  0.00  0.00    +0.000 C 
BRANCH  10  15
ATOM     13  O   UNL     1      30.748 -25.493 -12.448  0.00  0.00    -0.163 OA
ATOM     14  N   UNL     1      31.399 -24.962 -13.405  0.00  0.00    -0.127 N 
ATOM     15  C   UNL     1      32.824 -23.797 -15.500  0.00  0.00    +0.003 C 
ATOM     16  C   UNL     1      33.503 -24.366 -14.427  0.00  0.00    +0.022 C 
ATOM     17  C   UNL     1      31.434 -23.810 -15.526  0.00  0.00    +0.022 C 
ATOM     18  C   UNL     1      32.780 -24.943 -13.389  0.00  0.00    +0.121 C 
ATOM     19  C   UNL     1      30.734 -24.394 -14.475  0.00  0.00    +0.121 C 
ENDBRANCH  10  15
ENDBRANCH   5   7
ENDBRANCH   1   4
BRANCH   1  20
ATOM     20  C   UNL     1      34.966 -18.352 -21.913  0.00  0.00    +0.121 C 
BRANCH  20  22
ATOM     21  O   UNL     1      34.256 -19.416 -23.988  0.00  0.00    -0.250 OA
ATOM     22  C   UNL     1      34.773 -18.461 -23.422  0.00  0.00    +0.319 C 
BRANCH  22  23
ATOM     23  O   UNL     1      35.263 -17.341 -24.030  0.00  0.00    -0.444 OA
ATOM     24  C   UNL     1      34.453 -16.809 -25.084  0.00  0.00    +0.256 C 
ENDBRANCH  22  23
ENDBRANCH  20  22
BRANCH  20  25
ATOM     25  C   UNL     1      35.532 -16.961 -21.555  0.00  0.00    +0.039 C 
BRANCH  25  26
ATOM     26  C   UNL     1      34.449 -15.942 -21.283  0.00  0.00    -0.021 C 
ATOM     27  C   UNL     1      34.367 -14.787 -22.062  0.00  0.00    -0.002 C 
ATOM     28  C   UNL     1      33.535 -16.154 -20.251  0.00  0.00    -0.004 C 
ATOM     29  C   UNL     1      33.370 -13.846 -21.809  0.00  0.00    +0.030 C 
ATOM     30  C   UNL     1      32.538 -15.213 -19.999  0.00  0.00    -0.000 C 
ATOM     31  C   UNL     1      32.455 -14.058 -20.777  0.00  0.00    +0.003 C 
BRANCH  29  34
ATOM     32  N   UNL     1      34.131 -12.439 -23.708  0.00  0.00    -0.343 N 
ATOM     33  N   UNL     1      32.393 -11.712 -22.325  0.00  0.00    -0.285 NA
ATOM     34  C   UNL     1      33.284 -12.641 -22.619  0.00  0.00    +0.117 C 
ATOM     35  H   UNL     1      34.056 -11.616 -24.243  0.00  0.00    +0.144 HD
ATOM     36  H   UNL     1      34.804 -13.119 -23.941  0.00  0.00    +0.144 HD
ATOM     37  H   UNL     1      32.334 -10.895 -22.873  0.00  0.00    +0.188 HD
ENDBRANCH  29  34
ENDBRANCH  25  26
ENDBRANCH  20  25
ENDBRANCH   1  20
TORSDOF 9
ENDMDL
MODEL 5
REMARK VINA RESULT:     -10.6      5.945     10.591
REMARK  Name = 5496659
REMARK  9 active torsions:
REMARK  status: ('A' for Active; 'I' for Inactive)
REMARK    1  A    between atoms: C_1  and  N_4
REMARK    2  A    between atoms: C_1  and  C_20
REMARK    3  A    between atoms: C_5  and  C_7
REMARK    4  A    between atoms: C_10  and  C_15
REMARK    5  A    between atoms: C_20  and  C_22
REMARK    6  A    between atoms: C_20  and  C_25
REMARK    7  A    between atoms: C_22  and  O_23
REMARK    8  A    between atoms: C_25  and  C_26
REMARK    9  A    between atoms: C_29  and  C_34
REMARK                            x       y       z     vdW  Elec       q    Type
REMARK                         _______ _______ _______ _____ _____    ______ ____
ROOT
ATOM      1  C   UNL     1      34.140 -16.220 -22.150  0.00  0.00    +0.083 C 
ATOM      2  C   UNL     1      34.762 -16.470 -20.777  0.00  0.00    +0.022 C 
ENDROOT
BRANCH   1   4
ATOM      3  O   UNL     1      32.027 -14.650 -21.005  0.00  0.00    -0.270 OA
ATOM      4  N   UNL     1      33.913 -14.807 -22.344  0.00  0.00    -0.302 N 
ATOM      5  C   UNL     1      32.859 -14.134 -21.746  0.00  0.00    +0.246 C 
ATOM      6  H   UNL     1      34.529 -14.303 -22.924  0.00  0.00    +0.150 HD
BRANCH   5   7
ATOM      7  C   UNL     1      32.748 -12.688 -22.066  0.00  0.00    +0.053 C 
ATOM      8  C   UNL     1      33.521 -12.139 -23.089  0.00  0.00    +0.005 C 
ATOM      9  C   UNL     1      31.871 -11.879 -21.344  0.00  0.00    +0.005 C 
ATOM     10  C   UNL     1      32.539  -9.971 -22.667  0.00  0.00    +0.000 C 
ATOM     11  C   UNL     1      33.417 -10.780 -23.389  0.00  0.00    +0.000 C 
ATOM     12  C   UNL     1      31.767 -10.521 -21.643  0.00  0.00    +0.000 C 
BRANCH  10  15
ATOM     13  O   UNL     1      32.130  -4.607 -23.847  0.00  0.00    -0.163 OA
ATOM     14  N   UNL     1      32.225  -5.846 -23.573  0.00  0.00    -0.127 N 
ATOM     15  C   UNL     1      32.432  -8.562 -22.976  0.00  0.00    +0.003 C 
ATOM     16  C   UNL     1      33.577  -7.816 -23.229  0.00  0.00    +0.022 C 
ATOM     17  C   UNL     1      31.183  -7.953 -23.021  0.00  0.00    +0.022 C 
ATOM     18  C   UNL     1      33.461  -6.462 -23.526  0.00  0.00    +0.121 C 
ATOM     19  C   UNL     1      31.093  -6.597 -23.320  0.00  0.00    +0.121 C 
ENDBRANCH  10  15
ENDBRANCH   5   7
ENDBRANCH   1   4
BRANCH   1  20
ATOM     20  C   UNL     1      34.968 -16.851 -23.293  0.00  0.00    +0.121 C 
BRANCH  20  22
ATOM     21  O   UNL     1      35.304 -16.331 -25.651  0.00  0.00    -0.250 OA
ATOM     22  C   UNL     1      34.620 -16.226 -24.641  0.00  0.00    +0.319 C 
BRANCH  22  23
ATOM     23  O   UNL     1      33.443 -15.541 -24.539  0.00  0.00    -0.444 OA
ATOM     24  C   UNL     1      33.025 -14.859 -25.726  0.00  0.00    +0.256 C 
ENDBRANCH  22  23
ENDBRANCH  20  22
BRANCH  20  25
ATOM     25  C   UNL     1      34.788 -18.382 -23.362  0.00  0.00    +0.039 C 
BRANCH  25  26
ATOM     26  C   UNL     1      35.407 -19.098 -22.184  0.00  0.00    -0.021 C 
ATOM     27  C   UNL     1      34.644 -19.990 -21.430  0.00  0.00    -0.002 C 
ATOM     28  C   UNL     1      36.741 -18.866 -21.850  0.00  0.00    -0.004 C 
ATOM     29  C   UNL     1      35.216 -20.648 -20.342  0.00  0.00    +0.030 C 
ATOM     30  C   UNL     1      37.313 -19.525 -20.762  0.00  0.00    -0.000 C 
ATOM     31  C   UNL     1      36.550 -20.415 -20.007  0.00  0.00    +0.003 C 
BRANCH  29  34
ATOM     32  N   UNL     1      35.001 -22.675 -18.923  0.00  0.00    -0.343 N 
ATOM     33  N   UNL     1      33.119 -21.386 -19.430  0.00  0.00    -0.285 NA
ATOM     34  C   UNL     1      34.420 -21.576 -19.554  0.00  0.00    +0.117 C 
ATOM     35  H   UNL     1      34.443 -23.291 -18.395  0.00  0.00    +0.144 HD
ATOM     36  H   UNL     1      35.969 -22.835 -19.006  0.00  0.00    +0.144 HD
ATOM     37  H   UNL     1      32.578 -22.014 -18.897  0.00  0.00    +0.188 HD
ENDBRANCH  29  34
ENDBRANCH  25  26
ENDBRANCH  20  25
ENDBRANCH   1  20
TORSDOF 9
ENDMDL
MODEL 6
REMARK VINA RESULT:     -10.6      2.049      2.872
REMARK  Name = 5496659
REMARK  9 active torsions:
REMARK  status: ('A' for Active; 'I' for Inactive)
REMARK    1  A    between atoms: C_1  and  N_4
REMARK    2  A    between atoms: C_1  and  C_20
REMARK    3  A    between atoms: C_5  and  C_7
REMARK    4  A    between atoms: C_10  and  C_15
REMARK    5  A    between atoms: C_20  and  C_22
REMARK    6  A    between atoms: C_20  and  C_25
REMARK    7  A    between atoms: C_22  and  O_23
REMARK    8  A    between atoms: C_25  and  C_26
REMARK    9  A    between atoms: C_29  and  C_34
REMARK                            x       y       z     vdW  Elec       q    Type
REMARK                         _______ _______ _______ _____ _____    ______ ____
ROOT
ATOM      1  C   UNL     1      31.999 -24.093 -16.253  0.00  0.00    +0.083 C 
ATOM      2  C   UNL     1      30.495 -23.998 -16.000  0.00  0.00    +0.022 C 
ENDROOT
BRANCH   1   4
ATOM      3  O   UNL     1      33.817 -24.396 -18.454  0.00  0.00    -0.270 OA
ATOM      4  N   UNL     1      32.415 -23.063 -17.176  0.00  0.00    -0.302 N 
ATOM      5  C   UNL     1      33.302 -23.308 -18.213  0.00  0.00    +0.246 C 
ATOM      6  H   UNL     1      32.056 -22.153 -17.064  0.00  0.00    +0.150 HD
BRANCH   5   7
ATOM      7  C   UNL     1      33.650 -22.137 -19.059  0.00  0.00    +0.053 C 
ATOM      8  C   UNL     1      32.644 -21.289 -19.523  0.00  0.00    +0.005 C 
ATOM      9  C   UNL     1      34.981 -21.886 -19.389  0.00  0.00    +0.005 C 
ATOM     10  C   UNL     1      34.302 -19.939 -20.648  0.00  0.00    +0.000 C 
ATOM     11  C   UNL     1      32.970 -20.190 -20.318  0.00  0.00    +0.000 C 
ATOM     12  C   UNL     1      35.308 -20.788 -20.184  0.00  0.00    +0.000 C 
BRANCH  10  15
ATOM     13  O   UNL     1      35.600 -15.605 -23.791  0.00  0.00    -0.163 OA
ATOM     14  N   UNL     1      35.299 -16.607 -23.064  0.00  0.00    -0.127 N 
ATOM     15  C   UNL     1      34.642 -18.801 -21.474  0.00  0.00    +0.003 C 
ATOM     16  C   UNL     1      34.715 -17.531 -20.912  0.00  0.00    +0.022 C 
ATOM     17  C   UNL     1      34.898 -18.976 -22.829  0.00  0.00    +0.022 C 
ATOM     18  C   UNL     1      35.043 -16.445 -21.716  0.00  0.00    +0.121 C 
ATOM     19  C   UNL     1      35.224 -17.873 -23.612  0.00  0.00    +0.121 C 
ENDBRANCH  10  15
ENDBRANCH   5   7
ENDBRANCH   1   4
BRANCH   1  20
ATOM     20  C   UNL     1      32.816 -24.080 -14.940  0.00  0.00    +0.121 C 
BRANCH  20  22
ATOM     21  O   UNL     1      31.575 -22.245 -13.923  0.00  0.00    -0.250 OA
ATOM     22  C   UNL     1      32.062 -23.365 -13.824  0.00  0.00    +0.319 C 
BRANCH  22  23
ATOM     23  O   UNL     1      32.019 -24.160 -12.715  0.00  0.00    -0.444 OA
ATOM     24  C   UNL     1      31.745 -25.543 -12.961  0.00  0.00    +0.256 C 
ENDBRANCH  22  23
ENDBRANCH  20  22
BRANCH  20  25
ATOM     25  C   UNL     1      34.206 -23.437 -15.130  0.00  0.00    +0.039 C 
BRANCH  25  26
ATOM     26  C   UNL     1      35.300 -24.179 -14.397  0.00  0.00    -0.021 C 
ATOM     27  C   UNL     1      35.816 -23.663 -13.208  0.00  0.00    -0.002 C 
ATOM     28  C   UNL     1      35.794 -25.378 -14.910  0.00  0.00    -0.004 C 
ATOM     29  C   UNL     1      36.827 -24.346 -12.533  0.00  0.00    +0.030 C 
ATOM     30  C   UNL     1      36.805 -26.061 -14.234  0.00  0.00    -0.000 C 
ATOM     31  C   UNL     1      37.322 -25.545 -13.046  0.00  0.00    +0.003 C 
BRANCH  29  34
ATOM     32  N   UNL     1      36.704 -23.977 -10.080  0.00  0.00    -0.343 N 
ATOM     33  N   UNL     1      38.506 -23.139 -11.309  0.00  0.00    -0.285 NA
ATOM     34  C   UNL     1      37.367 -23.807 -11.294  0.00  0.00    +0.117 C 
ATOM     35  H   UNL     1      37.087 -23.604  -9.254  0.00  0.00    +0.144 HD
ATOM     36  H   UNL     1      35.852 -24.470 -10.049  0.00  0.00    +0.144 HD
ATOM     37  H   UNL     1      38.873 -22.773 -10.471  0.00  0.00    +0.188 HD
ENDBRANCH  29  34
ENDBRANCH  25  26
ENDBRANCH  20  25
ENDBRANCH   1  20
TORSDOF 9
ENDMDL
MODEL 7
REMARK VINA RESULT:     -10.4      3.013     11.023
REMARK  Name = 5496659
REMARK  9 active torsions:
REMARK  status: ('A' for Active; 'I' for Inactive)
REMARK    1  A    between atoms: C_1  and  N_4
REMARK    2  A    between atoms: C_1  and  C_20
REMARK    3  A    between atoms: C_5  and  C_7
REMARK    4  A    between atoms: C_10  and  C_15
REMARK    5  A    between atoms: C_20  and  C_22
REMARK    6  A    between atoms: C_20  and  C_25
REMARK    7  A    between atoms: C_22  and  O_23
REMARK    8  A    between atoms: C_25  and  C_26
REMARK    9  A    between atoms: C_29  and  C_34
REMARK                            x       y       z     vdW  Elec       q    Type
REMARK                         _______ _______ _______ _____ _____    ______ ____
ROOT
ATOM      1  C   UNL     1      36.679 -19.780 -20.779  0.00  0.00    +0.083 C 
ATOM      2  C   UNL     1      38.006 -19.042 -20.946  0.00  0.00    +0.022 C 
ENDROOT
BRANCH   1   4
ATOM      3  O   UNL     1      35.897 -22.479 -20.191  0.00  0.00    -0.270 OA
ATOM      4  N   UNL     1      36.611 -20.394 -19.473  0.00  0.00    -0.302 N 
ATOM      5  C   UNL     1      36.220 -21.711 -19.289  0.00  0.00    +0.246 C 
ATOM      6  H   UNL     1      36.851 -19.856 -18.684  0.00  0.00    +0.150 HD
BRANCH   5   7
ATOM      7  C   UNL     1      36.178 -22.184 -17.882  0.00  0.00    +0.053 C 
ATOM      8  C   UNL     1      35.034 -22.814 -17.392  0.00  0.00    +0.005 C 
ATOM      9  C   UNL     1      37.282 -21.999 -17.051  0.00  0.00    +0.005 C 
ATOM     10  C   UNL     1      36.098 -23.073 -15.239  0.00  0.00    +0.000 C 
ATOM     11  C   UNL     1      34.994 -23.258 -16.070  0.00  0.00    +0.000 C 
ATOM     12  C   UNL     1      37.242 -22.443 -15.729  0.00  0.00    +0.000 C 
BRANCH  10  15
ATOM     13  O   UNL     1      35.944 -24.814 -10.015  0.00  0.00    -0.163 OA
ATOM     14  N   UNL     1      35.980 -24.412 -11.223  0.00  0.00    -0.127 N 
ATOM     15  C   UNL     1      36.058 -23.531 -13.867  0.00  0.00    +0.003 C 
ATOM     16  C   UNL     1      37.095 -23.213 -12.996  0.00  0.00    +0.022 C 
ATOM     17  C   UNL     1      34.983 -24.289 -13.417  0.00  0.00    +0.022 C 
ATOM     18  C   UNL     1      37.044 -23.658 -11.680  0.00  0.00    +0.121 C 
ATOM     19  C   UNL     1      34.956 -24.723 -12.096  0.00  0.00    +0.121 C 
ENDBRANCH  10  15
ENDBRANCH   5   7
ENDBRANCH   1   4
BRANCH   1  20
ATOM     20  C   UNL     1      35.462 -18.873 -21.073  0.00  0.00    +0.121 C 
BRANCH  20  22
ATOM     21  O   UNL     1      33.957 -20.169 -22.487  0.00  0.00    -0.250 OA
ATOM     22  C   UNL     1      34.218 -19.698 -21.387  0.00  0.00    +0.319 C 
BRANCH  22  23
ATOM     23  O   UNL     1      33.454 -19.824 -20.262  0.00  0.00    -0.444 OA
ATOM     24  C   UNL     1      32.766 -21.071 -20.122  0.00  0.00    +0.256 C 
ENDBRANCH  22  23
ENDBRANCH  20  22
BRANCH  20  25
ATOM     25  C   UNL     1      35.742 -17.886 -22.226  0.00  0.00    +0.039 C 
BRANCH  25  26
ATOM     26  C   UNL     1      34.941 -16.610 -22.110  0.00  0.00    -0.021 C 
ATOM     27  C   UNL     1      34.590 -15.899 -23.259  0.00  0.00    -0.002 C 
ATOM     28  C   UNL     1      34.554 -16.140 -20.855  0.00  0.00    -0.004 C 
ATOM     29  C   UNL     1      33.854 -14.720 -23.152  0.00  0.00    +0.030 C 
ATOM     30  C   UNL     1      33.817 -14.961 -20.748  0.00  0.00    -0.000 C 
ATOM     31  C   UNL     1      33.467 -14.251 -21.896  0.00  0.00    +0.003 C 
BRANCH  29  34
ATOM     32  N   UNL     1      32.783 -14.582 -25.388  0.00  0.00    -0.343 N 
ATOM     33  N   UNL     1      33.835 -12.709 -24.467  0.00  0.00    -0.285 NA
ATOM     34  C   UNL     1      33.490 -13.979 -24.349  0.00  0.00    +0.117 C 
ATOM     35  H   UNL     1      32.547 -14.061 -26.190  0.00  0.00    +0.144 HD
ATOM     36  H   UNL     1      32.519 -15.528 -25.320  0.00  0.00    +0.144 HD
ATOM     37  H   UNL     1      33.589 -12.206 -25.277  0.00  0.00    +0.188 HD
ENDBRANCH  29  34
ENDBRANCH  25  26
ENDBRANCH  20  25
ENDBRANCH   1  20
TORSDOF 9
ENDMDL
MODEL 8
REMARK VINA RESULT:     -10.0      8.498     16.578
REMARK  Name = 5496659
REMARK  9 active torsions:
REMARK  status: ('A' for Active; 'I' for Inactive)
REMARK    1  A    between atoms: C_1  and  N_4
REMARK    2  A    between atoms: C_1  and  C_20
REMARK    3  A    between atoms: C_5  and  C_7
REMARK    4  A    between atoms: C_10  and  C_15
REMARK    5  A    between atoms: C_20  and  C_22
REMARK    6  A    between atoms: C_20  and  C_25
REMARK    7  A    between atoms: C_22  and  O_23
REMARK    8  A    between atoms: C_25  and  C_26
REMARK    9  A    between atoms: C_29  and  C_34
REMARK                            x       y       z     vdW  Elec       q    Type
REMARK                         _______ _______ _______ _____ _____    ______ ____
ROOT
ATOM      1  C   UNL     1      31.465  -8.666 -21.932  0.00  0.00    +0.083 C 
ATOM      2  C   UNL     1      30.828  -8.282 -23.266  0.00  0.00    +0.022 C 
ENDROOT
BRANCH   1   4
ATOM      3  O   UNL     1      30.324 -11.150 -21.058  0.00  0.00    -0.270 OA
ATOM      4  N   UNL     1      32.070  -9.974 -22.027  0.00  0.00    -0.302 N 
ATOM      5  C   UNL     1      31.437 -11.121 -21.574  0.00  0.00    +0.246 C 
ATOM      6  H   UNL     1      32.967 -10.053 -22.427  0.00  0.00    +0.150 HD
BRANCH   5   7
ATOM      7  C   UNL     1      32.203 -12.385 -21.721  0.00  0.00    +0.053 C 
ATOM      8  C   UNL     1      33.106 -12.536 -22.773  0.00  0.00    +0.005 C 
ATOM      9  C   UNL     1      32.020 -13.421 -20.806  0.00  0.00    +0.005 C 
ATOM     10  C   UNL     1      33.642 -14.760 -21.995  0.00  0.00    +0.000 C 
ATOM     11  C   UNL     1      33.825 -13.723 -22.911  0.00  0.00    +0.000 C 
ATOM     12  C   UNL     1      32.738 -14.608 -20.943  0.00  0.00    +0.000 C 
BRANCH  10  15
ATOM     13  O   UNL     1      36.469 -19.456 -22.536  0.00  0.00    -0.163 OA
ATOM     14  N   UNL     1      35.816 -18.370 -22.411  0.00  0.00    -0.127 N 
ATOM     15  C   UNL     1      34.385 -15.993 -22.138  0.00  0.00    +0.003 C 
ATOM     16  C   UNL     1      34.768 -16.709 -21.008  0.00  0.00    +0.022 C 
ATOM     17  C   UNL     1      34.717 -16.464 -23.403  0.00  0.00    +0.022 C 
ATOM     18  C   UNL     1      35.481 -17.893 -21.159  0.00  0.00    +0.121 C 
ATOM     19  C   UNL     1      35.431 -17.651 -23.526  0.00  0.00    +0.121 C 
ENDBRANCH  10  15
ENDBRANCH   5   7
ENDBRANCH   1   4
BRANCH   1  20
ATOM     20  C   UNL     1      32.452  -7.590 -21.422  0.00  0.00    +0.121 C 
BRANCH  20  22
ATOM     21  O   UNL     1      33.441  -7.011 -19.270  0.00  0.00    -0.250 OA
ATOM     22  C   UNL     1      32.643  -7.684 -19.912  0.00  0.00    +0.319 C 
BRANCH  22  23
ATOM     23  O   UNL     1      31.797  -8.624 -19.399  0.00  0.00    -0.444 OA
ATOM     24  C   UNL     1      32.414  -9.634 -18.594  0.00  0.00    +0.256 C 
ENDBRANCH  22  23
ENDBRANCH  20  22
BRANCH  20  25
ATOM     25  C   UNL     1      32.004  -6.164 -21.807  0.00  0.00    +0.039 C 
BRANCH  25  26
ATOM     26  C   UNL     1      32.573  -5.710 -23.132  0.00  0.00    -0.021 C 
ATOM     27  C   UNL     1      31.963  -4.669 -23.832  0.00  0.00    -0.002 C 
ATOM     28  C   UNL     1      33.706  -6.333 -23.655  0.00  0.00    -0.004 C 
ATOM     29  C   UNL     1      32.487  -4.251 -25.055  0.00  0.00    +0.030 C 
ATOM     30  C   UNL     1      34.229  -5.915 -24.878  0.00  0.00    -0.000 C 
ATOM     31  C   UNL     1      33.619  -4.875 -25.579  0.00  0.00    +0.003 C 
BRANCH  29  34
ATOM     32  N   UNL     1      30.844  -2.395 -25.207  0.00  0.00    -0.343 N 
ATOM     33  N   UNL     1      32.222  -2.902 -27.026  0.00  0.00    -0.285 NA
ATOM     34  C   UNL     1      31.850  -3.167 -25.786  0.00  0.00    +0.117 C 
ATOM     35  H   UNL     1      30.426  -1.666 -25.721  0.00  0.00    +0.144 HD
ATOM     36  H   UNL     1      30.551  -2.579 -24.286  0.00  0.00    +0.144 HD
ATOM     37  H   UNL     1      31.792  -2.168 -27.522  0.00  0.00    +0.188 HD
ENDBRANCH  29  34
ENDBRANCH  25  26
ENDBRANCH  20  25
ENDBRANCH   1  20
TORSDOF 9
ENDMDL
MODEL 9
REMARK VINA RESULT:     -10.0      2.865     11.153
REMARK  Name = 5496659
REMARK  9 active torsions:
REMARK  status: ('A' for Active; 'I' for Inactive)
REMARK    1  A    between atoms: C_1  and  N_4
REMARK    2  A    between atoms: C_1  and  C_20
REMARK    3  A    between atoms: C_5  and  C_7
REMARK    4  A    between atoms: C_10  and  C_15
REMARK    5  A    between atoms: C_20  and  C_22
REMARK    6  A    between atoms: C_20  and  C_25
REMARK    7  A    between atoms: C_22  and  O_23
REMARK    8  A    between atoms: C_25  and  C_26
REMARK    9  A    between atoms: C_29  and  C_34
REMARK                            x       y       z     vdW  Elec       q    Type
REMARK                         _______ _______ _______ _____ _____    ______ ____
ROOT
ATOM      1  C   UNL     1      34.772 -19.578 -22.318  0.00  0.00    +0.083 C 
ATOM      2  C   UNL     1      34.870 -20.472 -23.553  0.00  0.00    +0.022 C 
ENDROOT
BRANCH   1   4
ATOM      3  O   UNL     1      32.725 -20.764 -20.691  0.00  0.00    -0.270 OA
ATOM      4  N   UNL     1      34.968 -20.361 -21.120  0.00  0.00    -0.302 N 
ATOM      5  C   UNL     1      33.911 -20.894 -20.399  0.00  0.00    +0.246 C 
ATOM      6  H   UNL     1      35.887 -20.521 -20.803  0.00  0.00    +0.150 HD
BRANCH   5   7
ATOM      7  C   UNL     1      34.277 -21.653 -19.176  0.00  0.00    +0.053 C 
ATOM      8  C   UNL     1      33.292 -22.315 -18.444  0.00  0.00    +0.005 C 
ATOM      9  C   UNL     1      35.607 -21.704 -18.759  0.00  0.00    +0.005 C 
ATOM     10  C   UNL     1      34.966 -23.078 -16.878  0.00  0.00    +0.000 C 
ATOM     11  C   UNL     1      33.636 -23.027 -17.295  0.00  0.00    +0.000 C 
ATOM     12  C   UNL     1      35.952 -22.416 -17.611  0.00  0.00    +0.000 C 
BRANCH  10  15
ATOM     13  O   UNL     1      36.331 -25.886 -12.340  0.00  0.00    -0.163 OA
ATOM     14  N   UNL     1      36.015 -25.237 -13.389  0.00  0.00    -0.127 N 
ATOM     15  C   UNL     1      35.325 -23.815 -15.686  0.00  0.00    +0.003 C 
ATOM     16  C   UNL     1      34.332 -24.379 -14.892  0.00  0.00    +0.022 C 
ATOM     17  C   UNL     1      36.662 -23.961 -15.333  0.00  0.00    +0.022 C 
ATOM     18  C   UNL     1      34.690 -25.086 -13.749  0.00  0.00    +0.121 C 
ATOM     19  C   UNL     1      36.993 -24.672 -14.185  0.00  0.00    +0.121 C 
ENDBRANCH  10  15
ENDBRANCH   5   7
ENDBRANCH   1   4
BRANCH   1  20
ATOM     20  C   UNL     1      35.726 -18.363 -22.396  0.00  0.00    +0.121 C 
BRANCH  20  22
ATOM     21  O   UNL     1      38.080 -18.950 -22.162  0.00  0.00    -0.250 OA
ATOM     22  C   UNL     1      37.022 -18.627 -21.637  0.00  0.00    +0.319 C 
BRANCH  22  23
ATOM     23  O   UNL     1      36.816 -18.448 -20.299  0.00  0.00    -0.444 OA
ATOM     24  C   UNL     1      37.797 -19.041 -19.441  0.00  0.00    +0.256 C 
ENDBRANCH  22  23
ENDBRANCH  20  22
BRANCH  20  25
ATOM     25  C   UNL     1      35.062 -17.073 -21.870  0.00  0.00    +0.039 C 
BRANCH  25  26
ATOM     26  C   UNL     1      34.604 -16.156 -22.981  0.00  0.00    -0.021 C 
ATOM     27  C   UNL     1      34.395 -14.801 -22.725  0.00  0.00    -0.002 C 
ATOM     28  C   UNL     1      34.388 -16.666 -24.261  0.00  0.00    -0.004 C 
ATOM     29  C   UNL     1      33.970 -13.956 -23.750  0.00  0.00    +0.030 C 
ATOM     30  C   UNL     1      33.963 -15.821 -25.286  0.00  0.00    -0.000 C 
ATOM     31  C   UNL     1      33.754 -14.466 -25.030  0.00  0.00    +0.003 C 
BRANCH  29  34
ATOM     32  N   UNL     1      34.447 -11.557 -24.181  0.00  0.00    -0.343 N 
ATOM     33  N   UNL     1      32.880 -12.175 -22.561  0.00  0.00    -0.285 NA
ATOM     34  C   UNL     1      33.751 -12.543 -23.483  0.00  0.00    +0.117 C 
ATOM     35  H   UNL     1      34.282 -10.606 -23.984  0.00  0.00    +0.144 HD
ATOM     36  H   UNL     1      35.102 -11.811 -24.870  0.00  0.00    +0.144 HD
ATOM     37  H   UNL     1      32.730 -11.219 -22.379  0.00  0.00    +0.188 HD
ENDBRANCH  29  34
ENDBRANCH  25  26
ENDBRANCH  20  25
ENDBRANCH   1  20
TORSDOF 9
ENDMDL
