MODEL 1
REMARK VINA RESULT:     -11.7      0.000      0.000
REMARK  Name = 72696796
REMARK  9 active torsions:
REMARK  status: ('A' for Active; 'I' for Inactive)
REMARK    1  A    between atoms: N_2  and  C_29
REMARK    2  A    between atoms: C_10  and  C_12
REMARK    3  A    between atoms: C_13  and  C_16
REMARK    4  A    between atoms: N_15  and  C_18
REMARK    5  A    between atoms: C_18  and  C_20
REMARK    6  A    between atoms: C_29  and  O_30
REMARK    7  A    between atoms: O_30  and  P_31
REMARK    8  A    between atoms: P_31  and  O_33
REMARK    9  A    between atoms: P_31  and  O_35
REMARK                            x       y       z     vdW  Elec       q    Type
REMARK                         _______ _______ _______ _____ _____    ______ ____
ROOT
ATOM      1  O   UNL     1      31.635  -8.129 -19.125  0.00  0.00    -0.274 OA
ATOM      2  N   UNL     1      32.283  -9.412 -20.958  0.00  0.00    -0.217 N 
ATOM      3  N   UNL     1      33.021 -10.812 -22.770  0.00  0.00    -0.229 NA
ATOM      4  C   UNL     1      31.421 -11.684 -19.469  0.00  0.00    +0.039 C 
ATOM      5  C   UNL     1      32.098 -11.835 -20.794  0.00  0.00    +0.010 C 
ATOM      6  C   UNL     1      31.951 -10.459 -18.754  0.00  0.00    +0.090 C 
ATOM      7  C   UNL     1      32.487 -10.710 -21.526  0.00  0.00    +0.135 C 
ATOM      8  C   UNL     1      31.905  -9.222 -19.627  0.00  0.00    +0.233 C 
ATOM      9  C   UNL     1      32.273 -13.097 -21.370  0.00  0.00    +0.000 C 
ATOM     10  C   UNL     1      32.835 -13.214 -22.633  0.00  0.00    +0.019 C 
ATOM     11  C   UNL     1      33.188 -12.050 -23.287  0.00  0.00    +0.100 C 
ENDROOT
BRANCH  10  12
ATOM     12  C   UNL     1      33.056 -14.513 -23.241  0.00  0.00    +0.006 C 
ATOM     13  C   UNL     1      34.224 -14.935 -23.782  0.00  0.00    +0.058 C 
BRANCH  13  16
ATOM     14  O   UNL     1      34.010 -16.434 -25.594  0.00  0.00    -0.270 OA
ATOM     15  N   UNL     1      34.788 -17.315 -23.589  0.00  0.00    -0.267 N 
ATOM     16  C   UNL     1      34.318 -16.286 -24.410  0.00  0.00    +0.250 C 
ATOM     17  C   UNL     1      34.937 -18.657 -24.137  0.00  0.00    +0.116 C 
BRANCH  15  18
ATOM     18  C   UNL     1      35.192 -17.158 -22.193  0.00  0.00    +0.158 C 
BRANCH  18  20
ATOM     19  O   UNL     1      33.949 -18.941 -21.112  0.00  0.00    -0.456 OA
ATOM     20  C   UNL     1      35.176 -18.466 -21.454  0.00  0.00    +0.139 A 
ATOM     21  C   UNL     1      36.165 -19.322 -21.030  0.00  0.00    +0.013 A 
ATOM     22  C   UNL     1      35.510 -20.402 -20.382  0.00  0.00    +0.033 A 
ATOM     23  C   UNL     1      34.150 -20.119 -20.458  0.00  0.00    +0.145 A 
ATOM     24  C   UNL     1      37.618 -19.150 -21.216  0.00  0.00    +0.034 C 
ATOM     25  C   UNL     1      35.915 -21.584 -19.739  0.00  0.00    +0.003 C 
ATOM     26  C   UNL     1      33.152 -20.938 -19.935  0.00  0.00    +0.037 C 
ATOM     27  C   UNL     1      34.934 -22.429 -19.202  0.00  0.00    +0.000 C 
ATOM     28  C   UNL     1      33.577 -22.109 -19.300  0.00  0.00    +0.003 C 
ENDBRANCH  18  20
ENDBRANCH  15  18
ENDBRANCH  13  16
ENDBRANCH  10  12
BRANCH   2  29
ATOM     29  C   UNL     1      32.480  -8.262 -21.835  0.00  0.00    +0.257 C 
BRANCH  29  30
ATOM     30  O   UNL     1      31.231  -7.633 -22.052  0.00  0.00    -0.251 OA
BRANCH  30  31
ATOM     31  P   UNL     1      31.150  -6.021 -21.928  0.00  0.00    +0.475 P 
ATOM     32  O   UNL     1      29.779  -5.459 -21.684  0.00  0.00    -0.227 OA
BRANCH  31  33
ATOM     33  O   UNL     1      31.868  -5.508 -23.283  0.00  0.00    -0.303 OA
ATOM     34  H   UNL     1      32.815  -5.713 -23.245  0.00  0.00    +0.222 HD
ENDBRANCH  31  33
BRANCH  31  35
ATOM     35  O   UNL     1      32.238  -5.670 -20.783  0.00  0.00    -0.303 OA
ATOM     36  H   UNL     1      31.811  -5.692 -19.913  0.00  0.00    +0.222 HD
ENDBRANCH  31  35
ENDBRANCH  30  31
ENDBRANCH  29  30
ENDBRANCH   2  29
TORSDOF 9
ENDMDL
MODEL 2
REMARK VINA RESULT:     -11.7      5.793     12.119
REMARK  Name = 72696796
REMARK  9 active torsions:
REMARK  status: ('A' for Active; 'I' for Inactive)
REMARK    1  A    between atoms: N_2  and  C_29
REMARK    2  A    between atoms: C_10  and  C_12
REMARK    3  A    between atoms: C_13  and  C_16
REMARK    4  A    between atoms: N_15  and  C_18
REMARK    5  A    between atoms: C_18  and  C_20
REMARK    6  A    between atoms: C_29  and  O_30
REMARK    7  A    between atoms: O_30  and  P_31
REMARK    8  A    between atoms: P_31  and  O_33
REMARK    9  A    between atoms: P_31  and  O_35
REMARK                            x       y       z     vdW  Elec       q    Type
REMARK                         _______ _______ _______ _____ _____    ______ ____
ROOT
ATOM      1  O   UNL     1      36.091 -24.126 -13.890  0.00  0.00    -0.274 OA
ATOM      2  N   UNL     1      35.066 -23.496 -15.885  0.00  0.00    -0.217 N 
ATOM      3  N   UNL     1      34.054 -22.724 -17.927  0.00  0.00    -0.229 NA
ATOM      4  C   UNL     1      37.593 -22.427 -16.658  0.00  0.00    +0.039 C 
ATOM      5  C   UNL     1      36.377 -22.241 -17.510  0.00  0.00    +0.010 C 
ATOM      6  C   UNL     1      37.197 -22.472 -15.196  0.00  0.00    +0.090 C 
ATOM      7  C   UNL     1      35.153 -22.798 -17.131  0.00  0.00    +0.135 C 
ATOM      8  C   UNL     1      36.089 -23.471 -14.934  0.00  0.00    +0.233 C 
ATOM      9  C   UNL     1      36.460 -21.588 -18.743  0.00  0.00    +0.000 C 
ATOM     10  C   UNL     1      35.339 -21.490 -19.556  0.00  0.00    +0.019 C 
ATOM     11  C   UNL     1      34.170 -22.072 -19.105  0.00  0.00    +0.100 C 
ENDROOT
BRANCH  10  12
ATOM     12  C   UNL     1      35.389 -20.791 -20.826  0.00  0.00    +0.006 C 
ATOM     13  C   UNL     1      34.715 -19.654 -21.121  0.00  0.00    +0.058 C 
BRANCH  13  16
ATOM     14  O   UNL     1      34.757 -19.765 -23.479  0.00  0.00    -0.270 OA
ATOM     15  N   UNL     1      34.969 -17.657 -22.522  0.00  0.00    -0.267 N 
ATOM     16  C   UNL     1      34.823 -19.046 -22.479  0.00  0.00    +0.250 C 
ATOM     17  C   UNL     1      35.050 -16.985 -23.814  0.00  0.00    +0.116 C 
BRANCH  15  18
ATOM     18  C   UNL     1      35.015 -16.780 -21.354  0.00  0.00    +0.158 C 
BRANCH  18  20
ATOM     19  O   UNL     1      34.814 -14.716 -22.615  0.00  0.00    -0.456 OA
ATOM     20  C   UNL     1      34.314 -15.475 -21.604  0.00  0.00    +0.139 A 
ATOM     21  C   UNL     1      33.238 -14.853 -21.015  0.00  0.00    +0.013 A 
ATOM     22  C   UNL     1      33.056 -13.626 -21.706  0.00  0.00    +0.033 A 
ATOM     23  C   UNL     1      34.050 -13.589 -22.678  0.00  0.00    +0.145 A 
ATOM     24  C   UNL     1      32.434 -15.365 -19.889  0.00  0.00    +0.034 C 
ATOM     25  C   UNL     1      32.164 -12.544 -21.615  0.00  0.00    +0.003 C 
ATOM     26  C   UNL     1      34.222 -12.541 -23.580  0.00  0.00    +0.037 C 
ATOM     27  C   UNL     1      32.312 -11.474 -22.509  0.00  0.00    +0.000 C 
ATOM     28  C   UNL     1      33.324 -11.475 -23.472  0.00  0.00    +0.003 C 
ENDBRANCH  18  20
ENDBRANCH  15  18
ENDBRANCH  13  16
ENDBRANCH  10  12
BRANCH   2  29
ATOM     29  C   UNL     1      33.849 -24.259 -15.632  0.00  0.00    +0.257 C 
BRANCH  29  30
ATOM     30  O   UNL     1      33.005 -23.507 -14.780  0.00  0.00    -0.251 OA
BRANCH  30  31
ATOM     31  P   UNL     1      32.320 -24.255 -13.519  0.00  0.00    +0.475 P 
ATOM     32  O   UNL     1      31.012 -24.935 -13.803  0.00  0.00    -0.227 OA
BRANCH  31  33
ATOM     33  O   UNL     1      32.258 -23.099 -12.391  0.00  0.00    -0.303 OA
ATOM     34  H   UNL     1      33.018 -22.505 -12.493  0.00  0.00    +0.222 HD
ENDBRANCH  31  33
BRANCH  31  35
ATOM     35  O   UNL     1      33.487 -25.234 -12.974  0.00  0.00    -0.303 OA
ATOM     36  H   UNL     1      33.183 -25.686 -12.172  0.00  0.00    +0.222 HD
ENDBRANCH  31  35
ENDBRANCH  30  31
ENDBRANCH  29  30
ENDBRANCH   2  29
TORSDOF 9
ENDMDL
MODEL 3
REMARK VINA RESULT:     -11.6      6.114     12.550
REMARK  Name = 72696796
REMARK  9 active torsions:
REMARK  status: ('A' for Active; 'I' for Inactive)
REMARK    1  A    between atoms: N_2  and  C_29
REMARK    2  A    between atoms: C_10  and  C_12
REMARK    3  A    between atoms: C_13  and  C_16
REMARK    4  A    between atoms: N_15  and  C_18
REMARK    5  A    between atoms: C_18  and  C_20
REMARK    6  A    between atoms: C_29  and  O_30
REMARK    7  A    between atoms: O_30  and  P_31
REMARK    8  A    between atoms: P_31  and  O_33
REMARK    9  A    between atoms: P_31  and  O_35
REMARK                            x       y       z     vdW  Elec       q    Type
REMARK                         _______ _______ _______ _____ _____    ______ ____
ROOT
ATOM      1  O   UNL     1      34.153 -24.582 -14.092  0.00  0.00    -0.274 OA
ATOM      2  N   UNL     1      35.294 -23.405 -15.747  0.00  0.00    -0.217 N 
ATOM      3  N   UNL     1      36.419 -22.269 -17.546  0.00  0.00    -0.229 NA
ATOM      4  C   UNL     1      32.783 -23.150 -17.072  0.00  0.00    +0.039 C 
ATOM      5  C   UNL     1      34.049 -22.672 -17.709  0.00  0.00    +0.010 C 
ATOM      6  C   UNL     1      33.067 -24.355 -16.199  0.00  0.00    +0.090 C 
ATOM      7  C   UNL     1      35.267 -22.776 -17.033  0.00  0.00    +0.135 C 
ATOM      8  C   UNL     1      34.201 -24.102 -15.227  0.00  0.00    +0.233 C 
ATOM      9  C   UNL     1      34.028 -22.028 -18.950  0.00  0.00    +0.000 C 
ATOM     10  C   UNL     1      35.202 -21.522 -19.491  0.00  0.00    +0.019 C 
ATOM     11  C   UNL     1      36.361 -21.666 -18.754  0.00  0.00    +0.100 C 
ENDROOT
BRANCH  10  12
ATOM     12  C   UNL     1      35.214 -20.878 -20.791  0.00  0.00    +0.006 C 
ATOM     13  C   UNL     1      34.832 -19.602 -21.035  0.00  0.00    +0.058 C 
BRANCH  13  16
ATOM     14  O   UNL     1      34.705 -19.824 -23.383  0.00  0.00    -0.270 OA
ATOM     15  N   UNL     1      35.036 -17.680 -22.547  0.00  0.00    -0.267 N 
ATOM     16  C   UNL     1      34.859 -19.061 -22.426  0.00  0.00    +0.250 C 
ATOM     17  C   UNL     1      35.042 -17.073 -23.872  0.00  0.00    +0.116 C 
BRANCH  15  18
ATOM     18  C   UNL     1      35.186 -16.751 -21.429  0.00  0.00    +0.158 C 
BRANCH  18  20
ATOM     19  O   UNL     1      34.899 -14.679 -22.658  0.00  0.00    -0.456 OA
ATOM     20  C   UNL     1      34.433 -15.472 -21.658  0.00  0.00    +0.139 A 
ATOM     21  C   UNL     1      33.334 -14.903 -21.057  0.00  0.00    +0.013 A 
ATOM     22  C   UNL     1      33.102 -13.674 -21.728  0.00  0.00    +0.033 A 
ATOM     23  C   UNL     1      34.090 -13.582 -22.703  0.00  0.00    +0.145 A 
ATOM     24  C   UNL     1      32.554 -15.463 -19.937  0.00  0.00    +0.034 C 
ATOM     25  C   UNL     1      32.167 -12.630 -21.619  0.00  0.00    +0.003 C 
ATOM     26  C   UNL     1      34.217 -12.514 -23.589  0.00  0.00    +0.037 C 
ATOM     27  C   UNL     1      32.269 -11.541 -22.497  0.00  0.00    +0.000 C 
ATOM     28  C   UNL     1      33.277 -11.487 -23.463  0.00  0.00    +0.003 C 
ENDBRANCH  18  20
ENDBRANCH  15  18
ENDBRANCH  13  16
ENDBRANCH  10  12
BRANCH   2  29
ATOM     29  C   UNL     1      36.525 -23.289 -14.973  0.00  0.00    +0.257 C 
BRANCH  29  30
ATOM     30  O   UNL     1      37.376 -24.371 -15.301  0.00  0.00    -0.251 OA
BRANCH  30  31
ATOM     31  P   UNL     1      37.882 -25.341 -14.109  0.00  0.00    +0.475 P 
ATOM     32  O   UNL     1      38.649 -24.669 -13.008  0.00  0.00    -0.227 OA
BRANCH  31  33
ATOM     33  O   UNL     1      38.688 -26.503 -14.893  0.00  0.00    -0.303 OA
ATOM     34  H   UNL     1      38.097 -27.257 -15.050  0.00  0.00    +0.222 HD
ENDBRANCH  31  33
BRANCH  31  35
ATOM     35  O   UNL     1      36.531 -26.094 -13.630  0.00  0.00    -0.303 OA
ATOM     36  H   UNL     1      36.322 -25.836 -12.719  0.00  0.00    +0.222 HD
ENDBRANCH  31  35
ENDBRANCH  30  31
ENDBRANCH  29  30
ENDBRANCH   2  29
TORSDOF 9
ENDMDL
MODEL 4
REMARK VINA RESULT:     -10.6      6.513     12.224
REMARK  Name = 72696796
REMARK  9 active torsions:
REMARK  status: ('A' for Active; 'I' for Inactive)
REMARK    1  A    between atoms: N_2  and  C_29
REMARK    2  A    between atoms: C_10  and  C_12
REMARK    3  A    between atoms: C_13  and  C_16
REMARK    4  A    between atoms: N_15  and  C_18
REMARK    5  A    between atoms: C_18  and  C_20
REMARK    6  A    between atoms: C_29  and  O_30
REMARK    7  A    between atoms: O_30  and  P_31
REMARK    8  A    between atoms: P_31  and  O_33
REMARK    9  A    between atoms: P_31  and  O_35
REMARK                            x       y       z     vdW  Elec       q    Type
REMARK                         _______ _______ _______ _____ _____    ______ ____
ROOT
ATOM      1  O   UNL     1      30.680 -25.616 -12.682  0.00  0.00    -0.274 OA
ATOM      2  N   UNL     1      31.351 -24.711 -14.722  0.00  0.00    -0.217 N 
ATOM      3  N   UNL     1      32.099 -23.678 -16.762  0.00  0.00    -0.229 NA
ATOM      4  C   UNL     1      33.974 -24.574 -13.615  0.00  0.00    +0.039 C 
ATOM      5  C   UNL     1      33.668 -24.003 -14.964  0.00  0.00    +0.010 C 
ATOM      6  C   UNL     1      32.759 -24.458 -12.718  0.00  0.00    +0.090 C 
ATOM      7  C   UNL     1      32.385 -24.106 -15.505  0.00  0.00    +0.135 C 
ATOM      8  C   UNL     1      31.511 -25.017 -13.368  0.00  0.00    +0.233 C 
ATOM      9  C   UNL     1      34.679 -23.438 -15.747  0.00  0.00    +0.000 C 
ATOM     10  C   UNL     1      34.394 -22.981 -17.027  0.00  0.00    +0.019 C 
ATOM     11  C   UNL     1      33.099 -23.125 -17.484  0.00  0.00    +0.100 C 
ENDROOT
BRANCH  10  12
ATOM     12  C   UNL     1      35.417 -22.363 -17.850  0.00  0.00    +0.006 C 
ATOM     13  C   UNL     1      35.186 -21.623 -18.960  0.00  0.00    +0.058 C 
BRANCH  13  16
ATOM     14  O   UNL     1      37.477 -21.437 -19.500  0.00  0.00    -0.270 OA
ATOM     15  N   UNL     1      35.997 -20.151 -20.748  0.00  0.00    -0.267 N 
ATOM     16  C   UNL     1      36.327 -21.065 -19.743  0.00  0.00    +0.250 C 
ATOM     17  C   UNL     1      37.054 -19.585 -21.577  0.00  0.00    +0.116 C 
BRANCH  15  18
ATOM     18  C   UNL     1      34.640 -19.721 -21.079  0.00  0.00    +0.158 C 
BRANCH  18  20
ATOM     19  O   UNL     1      34.500 -17.342 -20.621  0.00  0.00    -0.456 OA
ATOM     20  C   UNL     1      34.606 -18.304 -21.575  0.00  0.00    +0.139 A 
ATOM     21  C   UNL     1      34.660 -17.742 -22.829  0.00  0.00    +0.013 A 
ATOM     22  C   UNL     1      34.583 -16.336 -22.643  0.00  0.00    +0.033 A 
ATOM     23  C   UNL     1      34.485 -16.143 -21.269  0.00  0.00    +0.145 A 
ATOM     24  C   UNL     1      34.776 -18.461 -24.112  0.00  0.00    +0.034 C 
ATOM     25  C   UNL     1      34.584 -15.209 -23.482  0.00  0.00    +0.003 C 
ATOM     26  C   UNL     1      34.388 -14.892 -20.661  0.00  0.00    +0.037 C 
ATOM     27  C   UNL     1      34.488 -13.937 -22.900  0.00  0.00    +0.000 C 
ATOM     28  C   UNL     1      34.391 -13.785 -21.514  0.00  0.00    +0.003 C 
ENDBRANCH  18  20
ENDBRANCH  15  18
ENDBRANCH  13  16
ENDBRANCH  10  12
BRANCH   2  29
ATOM     29  C   UNL     1      30.093 -25.013 -15.397  0.00  0.00    +0.257 C 
BRANCH  29  30
ATOM     30  O   UNL     1      29.098 -24.121 -14.933  0.00  0.00    -0.251 OA
BRANCH  30  31
ATOM     31  P   UNL     1      28.249 -23.278 -16.023  0.00  0.00    +0.475 P 
ATOM     32  O   UNL     1      27.147 -22.425 -15.467  0.00  0.00    -0.227 OA
BRANCH  31  33
ATOM     33  O   UNL     1      27.772 -24.409 -17.076  0.00  0.00    -0.303 OA
ATOM     34  H   UNL     1      26.868 -24.689 -16.863  0.00  0.00    +0.222 HD
ENDBRANCH  31  33
BRANCH  31  35
ATOM     35  O   UNL     1      29.382 -22.468 -16.846  0.00  0.00    -0.303 OA
ATOM     36  H   UNL     1      28.976 -22.030 -17.611  0.00  0.00    +0.222 HD
ENDBRANCH  31  35
ENDBRANCH  30  31
ENDBRANCH  29  30
ENDBRANCH   2  29
TORSDOF 9
ENDMDL
MODEL 5
REMARK VINA RESULT:     -10.5      1.724      2.991
REMARK  Name = 72696796
REMARK  9 active torsions:
REMARK  status: ('A' for Active; 'I' for Inactive)
REMARK    1  A    between atoms: N_2  and  C_29
REMARK    2  A    between atoms: C_10  and  C_12
REMARK    3  A    between atoms: C_13  and  C_16
REMARK    4  A    between atoms: N_15  and  C_18
REMARK    5  A    between atoms: C_18  and  C_20
REMARK    6  A    between atoms: C_29  and  O_30
REMARK    7  A    between atoms: O_30  and  P_31
REMARK    8  A    between atoms: P_31  and  O_33
REMARK    9  A    between atoms: P_31  and  O_35
REMARK                            x       y       z     vdW  Elec       q    Type
REMARK                         _______ _______ _______ _____ _____    ______ ____
ROOT
ATOM      1  O   UNL     1      33.061  -7.077 -22.100  0.00  0.00    -0.274 OA
ATOM      2  N   UNL     1      32.514  -9.341 -22.036  0.00  0.00    -0.217 N 
ATOM      3  N   UNL     1      31.952 -11.680 -22.100  0.00  0.00    -0.229 NA
ATOM      4  C   UNL     1      34.742  -9.764 -23.763  0.00  0.00    +0.039 C 
ATOM      5  C   UNL     1      33.820 -10.883 -23.395  0.00  0.00    +0.010 C 
ATOM      6  C   UNL     1      33.975  -8.458 -23.810  0.00  0.00    +0.090 C 
ATOM      7  C   UNL     1      32.751 -10.666 -22.523  0.00  0.00    +0.135 C 
ATOM      8  C   UNL     1      33.171  -8.220 -22.549  0.00  0.00    +0.233 C 
ATOM      9  C   UNL     1      34.062 -12.186 -23.842  0.00  0.00    +0.000 C 
ATOM     10  C   UNL     1      33.241 -13.226 -23.430  0.00  0.00    +0.019 C 
ATOM     11  C   UNL     1      32.209 -12.923 -22.565  0.00  0.00    +0.100 C 
ENDROOT
BRANCH  10  12
ATOM     12  C   UNL     1      33.451 -14.582 -23.903  0.00  0.00    +0.006 C 
ATOM     13  C   UNL     1      34.601 -15.286 -23.777  0.00  0.00    +0.058 C 
BRANCH  13  16
ATOM     14  O   UNL     1      34.569 -16.848 -25.547  0.00  0.00    -0.270 OA
ATOM     15  N   UNL     1      34.981 -17.683 -23.418  0.00  0.00    -0.267 N 
ATOM     16  C   UNL     1      34.704 -16.666 -24.336  0.00  0.00    +0.250 C 
ATOM     17  C   UNL     1      35.127 -19.054 -23.890  0.00  0.00    +0.116 C 
BRANCH  15  18
ATOM     18  C   UNL     1      35.180 -17.488 -21.983  0.00  0.00    +0.158 C 
BRANCH  18  20
ATOM     19  O   UNL     1      33.924 -19.262 -20.904  0.00  0.00    -0.456 OA
ATOM     20  C   UNL     1      35.154 -18.788 -21.231  0.00  0.00    +0.139 A 
ATOM     21  C   UNL     1      36.138 -19.639 -20.784  0.00  0.00    +0.013 A 
ATOM     22  C   UNL     1      35.475 -20.713 -20.135  0.00  0.00    +0.033 A 
ATOM     23  C   UNL     1      34.116 -20.433 -20.235  0.00  0.00    +0.145 A 
ATOM     24  C   UNL     1      37.594 -19.466 -20.950  0.00  0.00    +0.034 C 
ATOM     25  C   UNL     1      35.872 -21.888 -19.474  0.00  0.00    +0.003 C 
ATOM     26  C   UNL     1      33.111 -21.249 -19.719  0.00  0.00    +0.037 C 
ATOM     27  C   UNL     1      34.884 -22.729 -18.945  0.00  0.00    +0.000 C 
ATOM     28  C   UNL     1      33.528 -22.413 -19.066  0.00  0.00    +0.003 C 
ENDBRANCH  18  20
ENDBRANCH  15  18
ENDBRANCH  13  16
ENDBRANCH  10  12
BRANCH   2  29
ATOM     29  C   UNL     1      31.545  -9.191 -20.955  0.00  0.00    +0.257 C 
BRANCH  29  30
ATOM     30  O   UNL     1      32.174  -9.512 -19.729  0.00  0.00    -0.251 OA
BRANCH  30  31
ATOM     31  P   UNL     1      31.525 -10.677 -18.811  0.00  0.00    +0.475 P 
ATOM     32  O   UNL     1      30.027 -10.763 -18.840  0.00  0.00    -0.227 OA
BRANCH  31  33
ATOM     33  O   UNL     1      32.166 -10.401 -17.353  0.00  0.00    -0.303 OA
ATOM     34  H   UNL     1      32.892 -11.025 -17.196  0.00  0.00    +0.222 HD
ENDBRANCH  31  33
BRANCH  31  35
ATOM     35  O   UNL     1      32.289 -12.018 -19.298  0.00  0.00    -0.303 OA
ATOM     36  H   UNL     1      33.224 -11.967 -19.046  0.00  0.00    +0.222 HD
ENDBRANCH  31  35
ENDBRANCH  30  31
ENDBRANCH  29  30
ENDBRANCH   2  29
TORSDOF 9
ENDMDL
MODEL 6
REMARK VINA RESULT:      -9.8      1.261      2.319
REMARK  Name = 72696796
REMARK  9 active torsions:
REMARK  status: ('A' for Active; 'I' for Inactive)
REMARK    1  A    between atoms: N_2  and  C_29
REMARK    2  A    between atoms: C_10  and  C_12
REMARK    3  A    between atoms: C_13  and  C_16
REMARK    4  A    between atoms: N_15  and  C_18
REMARK    5  A    between atoms: C_18  and  C_20
REMARK    6  A    between atoms: C_29  and  O_30
REMARK    7  A    between atoms: O_30  and  P_31
REMARK    8  A    between atoms: P_31  and  O_33
REMARK    9  A    between atoms: P_31  and  O_35
REMARK                            x       y       z     vdW  Elec       q    Type
REMARK                         _______ _______ _______ _____ _____    ______ ____
ROOT
ATOM      1  O   UNL     1      34.014  -6.755 -22.746  0.00  0.00    -0.274 OA
ATOM      2  N   UNL     1      33.213  -8.928 -22.493  0.00  0.00    -0.217 N 
ATOM      3  N   UNL     1      32.378 -11.181 -22.362  0.00  0.00    -0.229 NA
ATOM      4  C   UNL     1      35.226  -9.714 -24.352  0.00  0.00    +0.039 C 
ATOM      5  C   UNL     1      34.213 -10.691 -23.844  0.00  0.00    +0.010 C 
ATOM      6  C   UNL     1      34.616  -8.329 -24.426  0.00  0.00    +0.090 C 
ATOM      7  C   UNL     1      33.253 -10.297 -22.909  0.00  0.00    +0.135 C 
ATOM      8  C   UNL     1      33.952  -7.926 -23.126  0.00  0.00    +0.233 C 
ATOM      9  C   UNL     1      34.264 -12.036 -24.221  0.00  0.00    +0.000 C 
ATOM     10  C   UNL     1      33.364 -12.945 -23.682  0.00  0.00    +0.019 C 
ATOM     11  C   UNL     1      32.449 -12.470 -22.763  0.00  0.00    +0.100 C 
ENDROOT
BRANCH  10  12
ATOM     12  C   UNL     1      33.374 -14.340 -24.079  0.00  0.00    +0.006 C 
ATOM     13  C   UNL     1      34.466 -15.140 -24.100  0.00  0.00    +0.058 C 
BRANCH  13  16
ATOM     14  O   UNL     1      34.048 -16.795 -25.732  0.00  0.00    -0.270 OA
ATOM     15  N   UNL     1      34.639 -17.538 -23.610  0.00  0.00    -0.267 N 
ATOM     16  C   UNL     1      34.354 -16.555 -24.562  0.00  0.00    +0.250 C 
ATOM     17  C   UNL     1      34.581 -18.943 -23.993  0.00  0.00    +0.116 C 
BRANCH  15  18
ATOM     18  C   UNL     1      35.037 -17.279 -22.228  0.00  0.00    +0.158 C 
BRANCH  18  20
ATOM     19  O   UNL     1      34.000 -19.098 -21.001  0.00  0.00    -0.456 OA
ATOM     20  C   UNL     1      35.164 -18.547 -21.433  0.00  0.00    +0.139 A 
ATOM     21  C   UNL     1      36.240 -19.304 -21.031  0.00  0.00    +0.013 A 
ATOM     22  C   UNL     1      35.708 -20.399 -20.300  0.00  0.00    +0.033 A 
ATOM     23  C   UNL     1      34.328 -20.225 -20.309  0.00  0.00    +0.145 A 
ATOM     24  C   UNL     1      37.663 -19.030 -21.308  0.00  0.00    +0.034 C 
ATOM     25  C   UNL     1      36.241 -21.514 -19.631  0.00  0.00    +0.003 C 
ATOM     26  C   UNL     1      33.428 -21.093 -19.695  0.00  0.00    +0.037 C 
ATOM     27  C   UNL     1      35.359 -22.406 -19.003  0.00  0.00    +0.000 C 
ATOM     28  C   UNL     1      33.978 -22.196 -19.035  0.00  0.00    +0.003 C 
ENDBRANCH  18  20
ENDBRANCH  15  18
ENDBRANCH  13  16
ENDBRANCH  10  12
BRANCH   2  29
ATOM     29  C   UNL     1      32.362  -8.602 -21.354  0.00  0.00    +0.257 C 
BRANCH  29  30
ATOM     30  O   UNL     1      31.205  -7.935 -21.823  0.00  0.00    -0.251 OA
BRANCH  30  31
ATOM     31  P   UNL     1      31.143  -6.322 -21.701  0.00  0.00    +0.475 P 
ATOM     32  O   UNL     1      31.220  -5.572 -22.999  0.00  0.00    -0.227 OA
BRANCH  31  33
ATOM     33  O   UNL     1      32.319  -5.985 -20.645  0.00  0.00    -0.303 OA
ATOM     34  H   UNL     1      32.675  -6.811 -20.281  0.00  0.00    +0.222 HD
ENDBRANCH  31  33
BRANCH  31  35
ATOM     35  O   UNL     1      29.795  -6.055 -20.845  0.00  0.00    -0.303 OA
ATOM     36  H   UNL     1      29.457  -6.897 -20.502  0.00  0.00    +0.222 HD
ENDBRANCH  31  35
ENDBRANCH  30  31
ENDBRANCH  29  30
ENDBRANCH   2  29
TORSDOF 9
ENDMDL
MODEL 7
REMARK VINA RESULT:      -9.3      9.392     13.969
REMARK  Name = 72696796
REMARK  9 active torsions:
REMARK  status: ('A' for Active; 'I' for Inactive)
REMARK    1  A    between atoms: N_2  and  C_29
REMARK    2  A    between atoms: C_10  and  C_12
REMARK    3  A    between atoms: C_13  and  C_16
REMARK    4  A    between atoms: N_15  and  C_18
REMARK    5  A    between atoms: C_18  and  C_20
REMARK    6  A    between atoms: C_29  and  O_30
REMARK    7  A    between atoms: O_30  and  P_31
REMARK    8  A    between atoms: P_31  and  O_33
REMARK    9  A    between atoms: P_31  and  O_35
REMARK                            x       y       z     vdW  Elec       q    Type
REMARK                         _______ _______ _______ _____ _____    ______ ____
ROOT
ATOM      1  O   UNL     1      36.446 -26.300 -10.905  0.00  0.00    -0.274 OA
ATOM      2  N   UNL     1      37.388 -25.138 -12.691  0.00  0.00    -0.217 N 
ATOM      3  N   UNL     1      38.255 -23.967 -14.606  0.00  0.00    -0.229 NA
ATOM      4  C   UNL     1      34.908 -23.746 -12.883  0.00  0.00    +0.039 C 
ATOM      5  C   UNL     1      35.996 -23.537 -13.889  0.00  0.00    +0.010 C 
ATOM      6  C   UNL     1      34.947 -25.170 -12.368  0.00  0.00    +0.090 C 
ATOM      7  C   UNL     1      37.217 -24.204 -13.762  0.00  0.00    +0.135 C 
ATOM      8  C   UNL     1      36.327 -25.568 -11.889  0.00  0.00    +0.233 C 
ATOM      9  C   UNL     1      35.849 -22.605 -14.920  0.00  0.00    +0.000 C 
ATOM     10  C   UNL     1      36.896 -22.368 -15.799  0.00  0.00    +0.019 C 
ATOM     11  C   UNL     1      38.069 -23.069 -15.599  0.00  0.00    +0.100 C 
ENDROOT
BRANCH  10  12
ATOM     12  C   UNL     1      36.761 -21.429 -16.896  0.00  0.00    +0.006 C 
ATOM     13  C   UNL     1      37.217 -21.626 -18.156  0.00  0.00    +0.058 C 
BRANCH  13  16
ATOM     14  O   UNL     1      37.640 -19.493 -19.077  0.00  0.00    -0.270 OA
ATOM     15  N   UNL     1      36.213 -20.887 -20.269  0.00  0.00    -0.267 N 
ATOM     16  C   UNL     1      37.044 -20.566 -19.193  0.00  0.00    +0.250 C 
ATOM     17  C   UNL     1      36.019 -19.916 -21.339  0.00  0.00    +0.116 C 
BRANCH  15  18
ATOM     18  C   UNL     1      35.524 -22.164 -20.447  0.00  0.00    +0.158 C 
BRANCH  18  20
ATOM     19  O   UNL     1      34.713 -23.372 -18.505  0.00  0.00    -0.456 OA
ATOM     20  C   UNL     1      34.467 -22.381 -19.402  0.00  0.00    +0.139 A 
ATOM     21  C   UNL     1      33.260 -21.776 -19.141  0.00  0.00    +0.013 A 
ATOM     22  C   UNL     1      32.718 -22.435 -18.006  0.00  0.00    +0.033 A 
ATOM     23  C   UNL     1      33.649 -23.407 -17.654  0.00  0.00    +0.145 A 
ATOM     24  C   UNL     1      32.652 -20.663 -19.895  0.00  0.00    +0.034 C 
ATOM     25  C   UNL     1      31.546 -22.317 -17.240  0.00  0.00    +0.003 C 
ATOM     26  C   UNL     1      33.496 -24.282 -16.580  0.00  0.00    +0.037 C 
ATOM     27  C   UNL     1      31.364 -23.184 -16.153  0.00  0.00    +0.000 C 
ATOM     28  C   UNL     1      32.323 -24.148 -15.832  0.00  0.00    +0.003 C 
ENDBRANCH  18  20
ENDBRANCH  15  18
ENDBRANCH  13  16
ENDBRANCH  10  12
BRANCH   2  29
ATOM     29  C   UNL     1      38.738 -25.636 -12.449  0.00  0.00    +0.257 C 
BRANCH  29  30
ATOM     30  O   UNL     1      39.076 -26.555 -13.470  0.00  0.00    -0.251 OA
BRANCH  30  31
ATOM     31  P   UNL     1      40.537 -26.439 -14.157  0.00  0.00    +0.475 P 
ATOM     32  O   UNL     1      41.500 -27.541 -13.822  0.00  0.00    -0.227 OA
BRANCH  31  33
ATOM     33  O   UNL     1      41.025 -24.954 -13.742  0.00  0.00    -0.303 OA
ATOM     34  H   UNL     1      40.345 -24.531 -13.195  0.00  0.00    +0.222 HD
ENDBRANCH  31  33
BRANCH  31  35
ATOM     35  O   UNL     1      40.207 -26.286 -15.734  0.00  0.00    -0.303 OA
ATOM     36  H   UNL     1      39.956 -27.150 -16.097  0.00  0.00    +0.222 HD
ENDBRANCH  31  35
ENDBRANCH  30  31
ENDBRANCH  29  30
ENDBRANCH   2  29
TORSDOF 9
ENDMDL
MODEL 8
REMARK VINA RESULT:      -9.3      4.219      7.720
REMARK  Name = 72696796
REMARK  9 active torsions:
REMARK  status: ('A' for Active; 'I' for Inactive)
REMARK    1  A    between atoms: N_2  and  C_29
REMARK    2  A    between atoms: C_10  and  C_12
REMARK    3  A    between atoms: C_13  and  C_16
REMARK    4  A    between atoms: N_15  and  C_18
REMARK    5  A    between atoms: C_18  and  C_20
REMARK    6  A    between atoms: C_29  and  O_30
REMARK    7  A    between atoms: O_30  and  P_31
REMARK    8  A    between atoms: P_31  and  O_33
REMARK    9  A    between atoms: P_31  and  O_35
REMARK                            x       y       z     vdW  Elec       q    Type
REMARK                         _______ _______ _______ _____ _____    ______ ____
ROOT
ATOM      1  O   UNL     1      32.386  -2.165 -26.912  0.00  0.00    -0.274 OA
ATOM      2  N   UNL     1      32.883  -4.102 -25.717  0.00  0.00    -0.217 N 
ATOM      3  N   UNL     1      33.408  -6.030 -24.375  0.00  0.00    -0.229 NA
ATOM      4  C   UNL     1      30.851  -3.302 -23.886  0.00  0.00    +0.039 C 
ATOM      5  C   UNL     1      31.707  -4.499 -23.622  0.00  0.00    +0.010 C 
ATOM      6  C   UNL     1      31.641  -2.262 -24.654  0.00  0.00    +0.090 C 
ATOM      7  C   UNL     1      32.678  -4.896 -24.544  0.00  0.00    +0.135 C 
ATOM      8  C   UNL     1      32.306  -2.841 -25.885  0.00  0.00    +0.233 C 
ATOM      9  C   UNL     1      31.492  -5.298 -22.494  0.00  0.00    +0.000 C 
ATOM     10  C   UNL     1      32.245  -6.448 -22.302  0.00  0.00    +0.019 C 
ATOM     11  C   UNL     1      33.182  -6.768 -23.266  0.00  0.00    +0.100 C 
ENDROOT
BRANCH  10  12
ATOM     12  C   UNL     1      32.065  -7.278 -21.126  0.00  0.00    +0.006 C 
ATOM     13  C   UNL     1      32.157  -8.629 -21.100  0.00  0.00    +0.058 C 
BRANCH  13  16
ATOM     14  O   UNL     1      32.122  -8.823 -18.747  0.00  0.00    -0.270 OA
ATOM     15  N   UNL     1      31.435 -10.680 -19.964  0.00  0.00    -0.267 N 
ATOM     16  C   UNL     1      31.916  -9.375 -19.830  0.00  0.00    +0.250 C 
ATOM     17  C   UNL     1      31.146 -11.463 -18.769  0.00  0.00    +0.116 C 
BRANCH  15  18
ATOM     18  C   UNL     1      31.150 -11.344 -21.234  0.00  0.00    +0.158 C 
BRANCH  18  20
ATOM     19  O   UNL     1      32.075 -13.501 -20.617  0.00  0.00    -0.456 OA
ATOM     20  C   UNL     1      32.105 -12.472 -21.504  0.00  0.00    +0.139 A 
ATOM     21  C   UNL     1      33.039 -12.704 -22.486  0.00  0.00    +0.013 A 
ATOM     22  C   UNL     1      33.628 -13.961 -22.191  0.00  0.00    +0.033 A 
ATOM     23  C   UNL     1      33.002 -14.409 -21.032  0.00  0.00    +0.145 A 
ATOM     24  C   UNL     1      33.360 -11.819 -23.622  0.00  0.00    +0.034 C 
ATOM     25  C   UNL     1      34.622 -14.767 -22.773  0.00  0.00    +0.003 C 
ATOM     26  C   UNL     1      33.296 -15.617 -20.403  0.00  0.00    +0.037 C 
ATOM     27  C   UNL     1      34.939 -15.989 -22.163  0.00  0.00    +0.000 C 
ATOM     28  C   UNL     1      34.286 -16.404 -20.999  0.00  0.00    +0.003 C 
ENDBRANCH  18  20
ENDBRANCH  15  18
ENDBRANCH  13  16
ENDBRANCH  10  12
BRANCH   2  29
ATOM     29  C   UNL     1      33.730  -4.665 -26.764  0.00  0.00    +0.257 C 
BRANCH  29  30
ATOM     30  O   UNL     1      35.055  -4.204 -26.579  0.00  0.00    -0.251 OA
BRANCH  30  31
ATOM     31  P   UNL     1      35.815  -3.522 -27.835  0.00  0.00    +0.475 P 
ATOM     32  O   UNL     1      36.929  -2.579 -27.483  0.00  0.00    -0.227 OA
BRANCH  31  33
ATOM     33  O   UNL     1      34.608  -2.866 -28.687  0.00  0.00    -0.303 OA
ATOM     34  H   UNL     1      34.248  -3.526 -29.300  0.00  0.00    +0.222 HD
ENDBRANCH  31  33
BRANCH  31  35
ATOM     35  O   UNL     1      36.259  -4.784 -28.744  0.00  0.00    -0.303 OA
ATOM     36  H   UNL     1      36.328  -5.575 -28.188  0.00  0.00    +0.222 HD
ENDBRANCH  31  35
ENDBRANCH  30  31
ENDBRANCH  29  30
ENDBRANCH   2  29
TORSDOF 9
ENDMDL
MODEL 9
REMARK VINA RESULT:      -9.3      3.283      5.650
REMARK  Name = 72696796
REMARK  9 active torsions:
REMARK  status: ('A' for Active; 'I' for Inactive)
REMARK    1  A    between atoms: N_2  and  C_29
REMARK    2  A    between atoms: C_10  and  C_12
REMARK    3  A    between atoms: C_13  and  C_16
REMARK    4  A    between atoms: N_15  and  C_18
REMARK    5  A    between atoms: C_18  and  C_20
REMARK    6  A    between atoms: C_29  and  O_30
REMARK    7  A    between atoms: O_30  and  P_31
REMARK    8  A    between atoms: P_31  and  O_33
REMARK    9  A    between atoms: P_31  and  O_35
REMARK                            x       y       z     vdW  Elec       q    Type
REMARK                         _______ _______ _______ _____ _____    ______ ____
ROOT
ATOM      1  O   UNL     1      32.283  -2.886 -24.872  0.00  0.00    -0.274 OA
ATOM      2  N   UNL     1      32.887  -5.081 -24.375  0.00  0.00    -0.217 N 
ATOM      3  N   UNL     1      33.491  -7.320 -23.736  0.00  0.00    -0.229 NA
ATOM      4  C   UNL     1      30.473  -5.233 -22.867  0.00  0.00    +0.039 C 
ATOM      5  C   UNL     1      31.459  -6.358 -22.871  0.00  0.00    +0.010 C 
ATOM      6  C   UNL     1      31.197  -3.911 -23.018  0.00  0.00    +0.090 C 
ATOM      7  C   UNL     1      32.622  -6.280 -23.640  0.00  0.00    +0.135 C 
ATOM      8  C   UNL     1      32.145  -3.910 -24.199  0.00  0.00    +0.233 C 
ATOM      9  C   UNL     1      31.193  -7.545 -22.181  0.00  0.00    +0.000 C 
ATOM     10  C   UNL     1      32.083  -8.607 -22.257  0.00  0.00    +0.019 C 
ATOM     11  C   UNL     1      33.207  -8.446 -23.043  0.00  0.00    +0.100 C 
ENDROOT
BRANCH  10  12
ATOM     12  C   UNL     1      31.848  -9.839 -21.527  0.00  0.00    +0.006 C 
ATOM     13  C   UNL     1      32.202 -11.077 -21.946  0.00  0.00    +0.058 C 
BRANCH  13  16
ATOM     14  O   UNL     1      30.963 -12.216 -20.290  0.00  0.00    -0.270 OA
ATOM     15  N   UNL     1      32.634 -13.421 -21.366  0.00  0.00    -0.267 N 
ATOM     16  C   UNL     1      31.875 -12.274 -21.117  0.00  0.00    +0.250 C 
ATOM     17  C   UNL     1      32.353 -14.641 -20.619  0.00  0.00    +0.116 C 
BRANCH  15  18
ATOM     18  C   UNL     1      33.695 -13.526 -22.365  0.00  0.00    +0.158 C 
BRANCH  18  20
ATOM     19  O   UNL     1      34.554 -15.592 -21.423  0.00  0.00    -0.456 OA
ATOM     20  C   UNL     1      34.154 -14.945 -22.549  0.00  0.00    +0.139 A 
ATOM     21  C   UNL     1      34.263 -15.766 -23.647  0.00  0.00    +0.013 A 
ATOM     22  C   UNL     1      34.764 -17.006 -23.172  0.00  0.00    +0.033 A 
ATOM     23  C   UNL     1      34.927 -16.847 -21.800  0.00  0.00    +0.145 A 
ATOM     24  C   UNL     1      33.924 -15.422 -25.041  0.00  0.00    +0.034 C 
ATOM     25  C   UNL     1      35.099 -18.243 -23.749  0.00  0.00    +0.003 C 
ATOM     26  C   UNL     1      35.404 -17.843 -20.949  0.00  0.00    +0.037 C 
ATOM     27  C   UNL     1      35.581 -19.265 -22.919  0.00  0.00    +0.000 C 
ATOM     28  C   UNL     1      35.730 -19.065 -21.544  0.00  0.00    +0.003 C 
ENDBRANCH  18  20
ENDBRANCH  15  18
ENDBRANCH  13  16
ENDBRANCH  10  12
BRANCH   2  29
ATOM     29  C   UNL     1      33.978  -5.119 -25.344  0.00  0.00    +0.257 C 
BRANCH  29  30
ATOM     30  O   UNL     1      33.433  -5.074 -26.649  0.00  0.00    -0.251 OA
BRANCH  30  31
ATOM     31  P   UNL     1      33.982  -3.949 -27.675  0.00  0.00    +0.475 P 
ATOM     32  O   UNL     1      34.708  -4.471 -28.880  0.00  0.00    -0.227 OA
BRANCH  31  33
ATOM     33  O   UNL     1      34.849  -2.971 -26.723  0.00  0.00    -0.303 OA
ATOM     34  H   UNL     1      35.538  -2.535 -27.249  0.00  0.00    +0.222 HD
ENDBRANCH  31  33
BRANCH  31  35
ATOM     35  O   UNL     1      32.669  -3.063 -28.008  0.00  0.00    -0.303 OA
ATOM     36  H   UNL     1      32.939  -2.226 -28.418  0.00  0.00    +0.222 HD
ENDBRANCH  31  35
ENDBRANCH  30  31
ENDBRANCH  29  30
ENDBRANCH   2  29
TORSDOF 9
ENDMDL
