MODEL 1
REMARK VINA RESULT:     -12.0      0.000      0.000
REMARK  Name = 44129603
REMARK  3 active torsions:
REMARK  status: ('A' for Active; 'I' for Inactive)
REMARK    1  A    between atoms: N_5  and  C_17
REMARK    2  A    between atoms: C_12  and  C_24
REMARK    3  A    between atoms: C_24  and  O_25
REMARK                            x       y       z     vdW  Elec       q    Type
REMARK                         _______ _______ _______ _____ _____    ______ ____
ROOT
ATOM      1  N   UNL     1      36.705 -23.234 -14.818  0.00  0.00    -0.246 N 
ATOM      2  N   UNL     1      37.682 -23.324 -13.893  0.00  0.00    -0.163 NA
ATOM      3  N   UNL     1      34.107 -23.128 -16.249  0.00  0.00    -0.336 NA
ATOM      4  N   UNL     1      31.792 -23.814 -16.263  0.00  0.00    -0.170 NA
ATOM      5  N   UNL     1      32.716 -22.635 -18.070  0.00  0.00    -0.247 N 
ATOM      6  C   UNL     1      34.550 -24.442 -12.179  0.00  0.00    +0.035 C 
ATOM      7  C   UNL     1      35.677 -23.989 -13.038  0.00  0.00    +0.024 A 
ATOM      8  C   UNL     1      33.387 -25.024 -13.029  0.00  0.00    +0.035 C 
ATOM      9  C   UNL     1      35.488 -23.629 -14.354  0.00  0.00    +0.106 A 
ATOM     10  C   UNL     1      33.170 -24.333 -14.359  0.00  0.00    +0.030 C 
ATOM     11  C   UNL     1      34.215 -23.696 -15.033  0.00  0.00    +0.158 C 
ATOM     12  C   UNL     1      37.046 -23.782 -12.807  0.00  0.00    +0.174 A 
ATOM     13  C   UNL     1      31.971 -24.369 -15.043  0.00  0.00    +0.110 C 
ATOM     14  C   UNL     1      37.041 -22.730 -16.130  0.00  0.00    +0.154 C 
ATOM     15  C   UNL     1      32.881 -23.222 -16.797  0.00  0.00    +0.149 C 
ATOM     16  H   UNL     1      31.805 -22.725 -18.432  0.00  0.00    +0.165 HD
ENDROOT
BRANCH   5  17
ATOM     17  C   UNL     1      33.597 -21.946 -18.923  0.00  0.00    +0.058 C 
ATOM     18  C   UNL     1      33.111 -20.953 -19.773  0.00  0.00    +0.015 C 
ATOM     19  C   UNL     1      34.957 -22.255 -18.916  0.00  0.00    +0.015 C 
ATOM     20  C   UNL     1      33.986 -20.268 -20.618  0.00  0.00    +0.001 C 
ATOM     21  C   UNL     1      35.832 -21.571 -19.761  0.00  0.00    +0.001 C 
ATOM     22  C   UNL     1      35.346 -20.578 -20.612  0.00  0.00    +0.000 C 
ENDBRANCH   5  17
BRANCH  12  24
ATOM     23  O   UNL     1      37.725 -25.031 -10.884  0.00  0.00    -0.243 OA
ATOM     24  C   UNL     1      37.781 -24.010 -11.596  0.00  0.00    +0.357 C 
BRANCH  24  25
ATOM     25  O   UNL     1      38.597 -22.965 -11.254  0.00  0.00    -0.476 OA
ATOM     26  H   UNL     1      38.814 -22.312 -11.892  0.00  0.00    +0.295 HD
ENDBRANCH  24  25
ENDBRANCH  12  24
TORSDOF 3
ENDMDL
MODEL 2
REMARK VINA RESULT:     -10.5     11.110     13.929
REMARK  Name = 44129603
REMARK  3 active torsions:
REMARK  status: ('A' for Active; 'I' for Inactive)
REMARK    1  A    between atoms: N_5  and  C_17
REMARK    2  A    between atoms: C_12  and  C_24
REMARK    3  A    between atoms: C_24  and  O_25
REMARK                            x       y       z     vdW  Elec       q    Type
REMARK                         _______ _______ _______ _____ _____    ______ ____
ROOT
ATOM      1  N   UNL     1      33.684 -12.922 -23.835  0.00  0.00    -0.246 N 
ATOM      2  N   UNL     1      34.282 -13.924 -24.511  0.00  0.00    -0.163 NA
ATOM      3  N   UNL     1      32.482 -11.176 -21.759  0.00  0.00    -0.336 NA
ATOM      4  N   UNL     1      31.364 -11.074 -19.621  0.00  0.00    -0.170 NA
ATOM      5  N   UNL     1      31.694  -9.139 -20.907  0.00  0.00    -0.247 N 
ATOM      6  C   UNL     1      33.450 -15.318 -21.139  0.00  0.00    +0.035 C 
ATOM      7  C   UNL     1      33.674 -14.590 -22.417  0.00  0.00    +0.024 A 
ATOM      8  C   UNL     1      32.279 -14.697 -20.330  0.00  0.00    +0.035 C 
ATOM      9  C   UNL     1      33.297 -13.276 -22.580  0.00  0.00    +0.106 A 
ATOM     10  C   UNL     1      32.167 -13.191 -20.439  0.00  0.00    +0.030 C 
ATOM     11  C   UNL     1      32.618 -12.501 -21.567  0.00  0.00    +0.158 C 
ATOM     12  C   UNL     1      34.276 -14.939 -23.637  0.00  0.00    +0.174 A 
ATOM     13  C   UNL     1      31.529 -12.410 -19.495  0.00  0.00    +0.110 C 
ATOM     14  C   UNL     1      33.550 -11.638 -24.483  0.00  0.00    +0.154 C 
ATOM     15  C   UNL     1      31.855 -10.533 -20.756  0.00  0.00    +0.149 C 
ATOM     16  H   UNL     1      31.233  -8.709 -20.151  0.00  0.00    +0.165 HD
ENDROOT
BRANCH   5  17
ATOM     17  C   UNL     1      32.064  -8.242 -21.926  0.00  0.00    +0.058 C 
ATOM     18  C   UNL     1      31.156  -7.916 -22.932  0.00  0.00    +0.015 C 
ATOM     19  C   UNL     1      33.341  -7.680 -21.929  0.00  0.00    +0.015 C 
ATOM     20  C   UNL     1      31.523  -7.025 -23.942  0.00  0.00    +0.001 C 
ATOM     21  C   UNL     1      33.708  -6.790 -22.940  0.00  0.00    +0.001 C 
ATOM     22  C   UNL     1      32.800  -6.463 -23.945  0.00  0.00    +0.000 C 
ENDBRANCH   5  17
BRANCH  12  24
ATOM     23  O   UNL     1      34.468 -16.924 -24.958  0.00  0.00    -0.243 OA
ATOM     24  C   UNL     1      34.841 -16.204 -24.012  0.00  0.00    +0.357 C 
BRANCH  24  25
ATOM     25  O   UNL     1      35.882 -16.590 -23.210  0.00  0.00    -0.476 OA
ATOM     26  H   UNL     1      36.757 -16.592 -23.547  0.00  0.00    +0.295 HD
ENDBRANCH  24  25
ENDBRANCH  12  24
TORSDOF 3
ENDMDL
MODEL 3
REMARK VINA RESULT:      -9.8      1.753      4.573
REMARK  Name = 44129603
REMARK  3 active torsions:
REMARK  status: ('A' for Active; 'I' for Inactive)
REMARK    1  A    between atoms: N_5  and  C_17
REMARK    2  A    between atoms: C_12  and  C_24
REMARK    3  A    between atoms: C_24  and  O_25
REMARK                            x       y       z     vdW  Elec       q    Type
REMARK                         _______ _______ _______ _____ _____    ______ ____
ROOT
ATOM      1  N   UNL     1      35.164 -24.065 -13.334  0.00  0.00    -0.246 N 
ATOM      2  N   UNL     1      36.111 -24.355 -12.419  0.00  0.00    -0.163 NA
ATOM      3  N   UNL     1      33.665 -23.467 -15.825  0.00  0.00    -0.336 NA
ATOM      4  N   UNL     1      33.765 -22.562 -18.062  0.00  0.00    -0.170 NA
ATOM      5  N   UNL     1      31.726 -23.252 -17.125  0.00  0.00    -0.247 N 
ATOM      6  C   UNL     1      37.955 -23.459 -15.549  0.00  0.00    +0.035 C 
ATOM      7  C   UNL     1      37.045 -23.758 -14.411  0.00  0.00    +0.024 A 
ATOM      8  C   UNL     1      37.273 -22.532 -16.592  0.00  0.00    +0.035 C 
ATOM      9  C   UNL     1      35.676 -23.695 -14.539  0.00  0.00    +0.106 A 
ATOM     10  C   UNL     1      35.790 -22.775 -16.777  0.00  0.00    +0.030 C 
ATOM     11  C   UNL     1      34.998 -23.295 -15.751  0.00  0.00    +0.158 C 
ATOM     12  C   UNL     1      37.258 -24.170 -13.085  0.00  0.00    +0.174 A 
ATOM     13  C   UNL     1      35.100 -22.412 -17.918  0.00  0.00    +0.110 C 
ATOM     14  C   UNL     1      33.775 -24.195 -12.955  0.00  0.00    +0.154 C 
ATOM     15  C   UNL     1      33.122 -23.085 -16.996  0.00  0.00    +0.149 C 
ATOM     16  H   UNL     1      31.371 -22.962 -17.997  0.00  0.00    +0.165 HD
ENDROOT
BRANCH   5  17
ATOM     17  C   UNL     1      30.742 -23.752 -16.253  0.00  0.00    +0.058 C 
ATOM     18  C   UNL     1      31.027 -24.841 -15.430  0.00  0.00    +0.015 C 
ATOM     19  C   UNL     1      29.481 -23.156 -16.211  0.00  0.00    +0.015 C 
ATOM     20  C   UNL     1      30.051 -25.335 -14.564  0.00  0.00    +0.001 C 
ATOM     21  C   UNL     1      28.505 -23.651 -15.345  0.00  0.00    +0.001 C 
ATOM     22  C   UNL     1      28.790 -24.740 -14.522  0.00  0.00    +0.000 C 
ENDBRANCH   5  17
BRANCH  12  24
ATOM     23  O   UNL     1      39.421 -25.150 -12.796  0.00  0.00    -0.243 OA
ATOM     24  C   UNL     1      38.510 -24.388 -12.419  0.00  0.00    +0.357 C 
BRANCH  24  25
ATOM     25  O   UNL     1      38.645 -23.655 -11.270  0.00  0.00    -0.476 OA
ATOM     26  H   UNL     1      39.244 -23.933 -10.605  0.00  0.00    +0.295 HD
ENDBRANCH  24  25
ENDBRANCH  12  24
TORSDOF 3
ENDMDL
MODEL 4
REMARK VINA RESULT:      -9.7     10.987     13.970
REMARK  Name = 44129603
REMARK  3 active torsions:
REMARK  status: ('A' for Active; 'I' for Inactive)
REMARK    1  A    between atoms: N_5  and  C_17
REMARK    2  A    between atoms: C_12  and  C_24
REMARK    3  A    between atoms: C_24  and  O_25
REMARK                            x       y       z     vdW  Elec       q    Type
REMARK                         _______ _______ _______ _____ _____    ______ ____
ROOT
ATOM      1  N   UNL     1      33.594 -12.811 -23.503  0.00  0.00    -0.246 N 
ATOM      2  N   UNL     1      34.214 -13.845 -24.107  0.00  0.00    -0.163 NA
ATOM      3  N   UNL     1      32.343 -10.956 -21.553  0.00  0.00    -0.336 NA
ATOM      4  N   UNL     1      31.198 -10.737 -19.438  0.00  0.00    -0.170 NA
ATOM      5  N   UNL     1      31.517  -8.881 -20.840  0.00  0.00    -0.247 N 
ATOM      6  C   UNL     1      33.361 -15.037 -20.665  0.00  0.00    +0.035 C 
ATOM      7  C   UNL     1      33.590 -14.387 -21.983  0.00  0.00    +0.024 A 
ATOM      8  C   UNL     1      32.171 -14.383 -19.909  0.00  0.00    +0.035 C 
ATOM      9  C   UNL     1      33.197 -13.091 -22.232  0.00  0.00    +0.106 A 
ATOM     10  C   UNL     1      32.040 -12.889 -20.113  0.00  0.00    +0.030 C 
ATOM     11  C   UNL     1      32.495 -12.265 -21.277  0.00  0.00    +0.158 C 
ATOM     12  C   UNL     1      34.212 -14.803 -23.172  0.00  0.00    +0.174 A 
ATOM     13  C   UNL     1      31.380 -12.060 -19.227  0.00  0.00    +0.110 C 
ATOM     14  C   UNL     1      33.450 -11.572 -24.231  0.00  0.00    +0.154 C 
ATOM     15  C   UNL     1      31.695 -10.261 -20.599  0.00  0.00    +0.149 C 
ATOM     16  H   UNL     1      31.041  -8.412 -20.117  0.00  0.00    +0.165 HD
ENDROOT
BRANCH   5  17
ATOM     17  C   UNL     1      31.888  -8.045 -21.908  0.00  0.00    +0.058 C 
ATOM     18  C   UNL     1      32.925  -7.127 -21.749  0.00  0.00    +0.015 C 
ATOM     19  C   UNL     1      31.216  -8.135 -23.128  0.00  0.00    +0.015 C 
ATOM     20  C   UNL     1      33.293  -6.299 -22.810  0.00  0.00    +0.001 C 
ATOM     21  C   UNL     1      31.585  -7.306 -24.189  0.00  0.00    +0.001 C 
ATOM     22  C   UNL     1      32.622  -6.388 -24.029  0.00  0.00    +0.000 C 
ENDBRANCH   5  17
BRANCH  12  24
ATOM     23  O   UNL     1      34.917 -17.031 -22.663  0.00  0.00    -0.243 OA
ATOM     24  C   UNL     1      34.798 -16.081 -23.460  0.00  0.00    +0.357 C 
BRANCH  24  25
ATOM     25  O   UNL     1      35.244 -16.191 -24.750  0.00  0.00    -0.476 OA
ATOM     26  H   UNL     1      36.037 -16.655 -24.933  0.00  0.00    +0.295 HD
ENDBRANCH  24  25
ENDBRANCH  12  24
TORSDOF 3
ENDMDL
MODEL 5
REMARK VINA RESULT:      -9.7      3.548      7.036
REMARK  Name = 44129603
REMARK  3 active torsions:
REMARK  status: ('A' for Active; 'I' for Inactive)
REMARK    1  A    between atoms: N_5  and  C_17
REMARK    2  A    between atoms: C_12  and  C_24
REMARK    3  A    between atoms: C_24  and  O_25
REMARK                            x       y       z     vdW  Elec       q    Type
REMARK                         _______ _______ _______ _____ _____    ______ ____
ROOT
ATOM      1  N   UNL     1      32.537 -24.230 -14.915  0.00  0.00    -0.246 N 
ATOM      2  N   UNL     1      31.191 -24.304 -14.882  0.00  0.00    -0.163 NA
ATOM      3  N   UNL     1      35.360 -23.524 -15.496  0.00  0.00    -0.336 NA
ATOM      4  N   UNL     1      36.917 -22.639 -17.117  0.00  0.00    -0.170 NA
ATOM      5  N   UNL     1      37.663 -23.489 -15.060  0.00  0.00    -0.247 N 
ATOM      6  C   UNL     1      32.027 -22.228 -17.881  0.00  0.00    +0.035 C 
ATOM      7  C   UNL     1      31.905 -23.084 -16.671  0.00  0.00    +0.024 A 
ATOM      8  C   UNL     1      33.409 -22.408 -18.566  0.00  0.00    +0.035 C 
ATOM      9  C   UNL     1      33.010 -23.515 -15.972  0.00  0.00    +0.106 A 
ATOM     10  C   UNL     1      34.562 -22.635 -17.611  0.00  0.00    +0.030 C 
ATOM     11  C   UNL     1      34.372 -23.228 -16.361  0.00  0.00    +0.158 C 
ATOM     12  C   UNL     1      30.811 -23.598 -15.955  0.00  0.00    +0.174 A 
ATOM     13  C   UNL     1      35.878 -22.373 -17.938  0.00  0.00    +0.110 C 
ATOM     14  C   UNL     1      33.289 -24.869 -13.860  0.00  0.00    +0.154 C 
ATOM     15  C   UNL     1      36.593 -23.204 -15.935  0.00  0.00    +0.149 C 
ATOM     16  H   UNL     1      38.545 -23.238 -15.418  0.00  0.00    +0.165 HD
ENDROOT
BRANCH   5  17
ATOM     17  C   UNL     1      37.718 -24.062 -13.776  0.00  0.00    +0.058 C 
ATOM     18  C   UNL     1      37.390 -23.297 -12.657  0.00  0.00    +0.015 C 
ATOM     19  C   UNL     1      38.099 -25.395 -13.623  0.00  0.00    +0.015 C 
ATOM     20  C   UNL     1      37.443 -23.865 -11.383  0.00  0.00    +0.001 C 
ATOM     21  C   UNL     1      38.152 -25.963 -12.349  0.00  0.00    +0.001 C 
ATOM     22  C   UNL     1      37.825 -25.198 -11.230  0.00  0.00    +0.000 C 
ENDBRANCH   5  17
BRANCH  12  24
ATOM     23  O   UNL     1      28.841 -22.401 -16.591  0.00  0.00    -0.243 OA
ATOM     24  C   UNL     1      29.415 -23.454 -16.255  0.00  0.00    +0.357 C 
BRANCH  24  25
ATOM     25  O   UNL     1      28.715 -24.625 -16.138  0.00  0.00    -0.476 OA
ATOM     26  H   UNL     1      27.929 -24.652 -15.628  0.00  0.00    +0.295 HD
ENDBRANCH  24  25
ENDBRANCH  12  24
TORSDOF 3
ENDMDL
MODEL 6
REMARK VINA RESULT:      -9.5      8.360     11.851
REMARK  Name = 44129603
REMARK  3 active torsions:
REMARK  status: ('A' for Active; 'I' for Inactive)
REMARK    1  A    between atoms: N_5  and  C_17
REMARK    2  A    between atoms: C_12  and  C_24
REMARK    3  A    between atoms: C_24  and  O_25
REMARK                            x       y       z     vdW  Elec       q    Type
REMARK                         _______ _______ _______ _____ _____    ______ ____
ROOT
ATOM      1  N   UNL     1      33.015 -14.687 -20.883  0.00  0.00    -0.246 N 
ATOM      2  N   UNL     1      32.444 -13.675 -20.198  0.00  0.00    -0.163 NA
ATOM      3  N   UNL     1      34.387 -16.371 -22.905  0.00  0.00    -0.336 NA
ATOM      4  N   UNL     1      34.889 -16.693 -25.245  0.00  0.00    -0.170 NA
ATOM      5  N   UNL     1      35.536 -18.278 -23.639  0.00  0.00    -0.247 N 
ATOM      6  C   UNL     1      32.907 -12.412 -23.690  0.00  0.00    +0.035 C 
ATOM      7  C   UNL     1      32.791 -13.102 -22.377  0.00  0.00    +0.024 A 
ATOM      8  C   UNL     1      32.973 -13.429 -24.861  0.00  0.00    +0.035 C 
ATOM      9  C   UNL     1      33.235 -14.392 -22.193  0.00  0.00    +0.106 A 
ATOM     10  C   UNL     1      33.721 -14.707 -24.545  0.00  0.00    +0.030 C 
ATOM     11  C   UNL     1      33.803 -15.207 -23.243  0.00  0.00    +0.158 C 
ATOM     12  C   UNL     1      32.314 -12.709 -21.116  0.00  0.00    +0.174 A 
ATOM     13  C   UNL     1      34.281 -15.516 -25.515  0.00  0.00    +0.110 C 
ATOM     14  C   UNL     1      33.335 -15.905 -20.175  0.00  0.00    +0.154 C 
ATOM     15  C   UNL     1      34.905 -17.052 -23.945  0.00  0.00    +0.149 C 
ATOM     16  H   UNL     1      35.901 -18.742 -24.427  0.00  0.00    +0.165 HD
ENDROOT
BRANCH   5  17
ATOM     17  C   UNL     1      35.745 -18.967 -22.431  0.00  0.00    +0.058 C 
ATOM     18  C   UNL     1      34.739 -19.776 -21.906  0.00  0.00    +0.015 C 
ATOM     19  C   UNL     1      36.961 -18.840 -21.758  0.00  0.00    +0.015 C 
ATOM     20  C   UNL     1      34.947 -20.461 -20.707  0.00  0.00    +0.001 C 
ATOM     21  C   UNL     1      37.169 -19.524 -20.560  0.00  0.00    +0.001 C 
ATOM     22  C   UNL     1      36.163 -20.333 -20.035  0.00  0.00    +0.000 C 
ENDBRANCH   5  17
BRANCH  12  24
ATOM     23  O   UNL     1      31.976 -10.345 -21.266  0.00  0.00    -0.243 OA
ATOM     24  C   UNL     1      31.729 -11.451 -20.747  0.00  0.00    +0.357 C 
BRANCH  24  25
ATOM     25  O   UNL     1      30.825 -11.556 -19.724  0.00  0.00    -0.476 OA
ATOM     26  H   UNL     1      31.041 -12.048 -18.956  0.00  0.00    +0.295 HD
ENDBRANCH  24  25
ENDBRANCH  12  24
TORSDOF 3
ENDMDL
MODEL 7
REMARK VINA RESULT:      -9.5      3.596      6.697
REMARK  Name = 44129603
REMARK  3 active torsions:
REMARK  status: ('A' for Active; 'I' for Inactive)
REMARK    1  A    between atoms: N_5  and  C_17
REMARK    2  A    between atoms: C_12  and  C_24
REMARK    3  A    between atoms: C_24  and  O_25
REMARK                            x       y       z     vdW  Elec       q    Type
REMARK                         _______ _______ _______ _____ _____    ______ ____
ROOT
ATOM      1  N   UNL     1      36.531 -22.097 -17.648  0.00  0.00    -0.246 N 
ATOM      2  N   UNL     1      36.884 -21.334 -18.702  0.00  0.00    -0.163 NA
ATOM      3  N   UNL     1      35.127 -23.884 -15.740  0.00  0.00    -0.336 NA
ATOM      4  N   UNL     1      32.996 -24.685 -14.933  0.00  0.00    -0.170 NA
ATOM      5  N   UNL     1      35.002 -25.330 -13.898  0.00  0.00    -0.247 N 
ATOM      6  C   UNL     1      33.235 -22.038 -19.130  0.00  0.00    +0.035 C 
ATOM      7  C   UNL     1      34.667 -21.857 -18.771  0.00  0.00    +0.024 A 
ATOM      8  C   UNL     1      32.373 -22.360 -17.878  0.00  0.00    +0.035 C 
ATOM      9  C   UNL     1      35.211 -22.429 -17.643  0.00  0.00    +0.106 A 
ATOM     10  C   UNL     1      33.066 -23.215 -16.838  0.00  0.00    +0.030 C 
ATOM     11  C   UNL     1      34.455 -23.206 -16.689  0.00  0.00    +0.158 C 
ATOM     12  C   UNL     1      35.742 -21.195 -19.386  0.00  0.00    +0.174 A 
ATOM     13  C   UNL     1      32.385 -23.976 -15.908  0.00  0.00    +0.110 C 
ATOM     14  C   UNL     1      37.551 -22.478 -16.699  0.00  0.00    +0.154 C 
ATOM     15  C   UNL     1      34.342 -24.595 -14.908  0.00  0.00    +0.149 C 
ATOM     16  H   UNL     1      34.391 -25.836 -13.315  0.00  0.00    +0.165 HD
ENDROOT
BRANCH   5  17
ATOM     17  C   UNL     1      36.359 -25.481 -13.563  0.00  0.00    +0.058 C 
ATOM     18  C   UNL     1      36.897 -24.766 -12.494  0.00  0.00    +0.015 C 
ATOM     19  C   UNL     1      37.167 -26.347 -14.301  0.00  0.00    +0.015 C 
ATOM     20  C   UNL     1      38.244 -24.917 -12.160  0.00  0.00    +0.001 C 
ATOM     21  C   UNL     1      38.514 -26.498 -13.967  0.00  0.00    +0.001 C 
ATOM     22  C   UNL     1      39.052 -25.783 -12.898  0.00  0.00    +0.000 C 
ENDBRANCH   5  17
BRANCH  12  24
ATOM     23  O   UNL     1      34.901 -20.529 -21.524  0.00  0.00    -0.243 OA
ATOM     24  C   UNL     1      35.727 -20.424 -20.597  0.00  0.00    +0.357 C 
BRANCH  24  25
ATOM     25  O   UNL     1      36.744 -19.511 -20.669  0.00  0.00    -0.476 OA
ATOM     26  H   UNL     1      36.908 -19.054 -21.470  0.00  0.00    +0.295 HD
ENDBRANCH  24  25
ENDBRANCH  12  24
TORSDOF 3
ENDMDL
MODEL 8
REMARK VINA RESULT:      -9.1      8.067     11.619
REMARK  Name = 44129603
REMARK  3 active torsions:
REMARK  status: ('A' for Active; 'I' for Inactive)
REMARK    1  A    between atoms: N_5  and  C_17
REMARK    2  A    between atoms: C_12  and  C_24
REMARK    3  A    between atoms: C_24  and  O_25
REMARK                            x       y       z     vdW  Elec       q    Type
REMARK                         _______ _______ _______ _____ _____    ______ ____
ROOT
ATOM      1  N   UNL     1      34.577 -16.087 -20.863  0.00  0.00    -0.246 N 
ATOM      2  N   UNL     1      35.072 -17.237 -20.361  0.00  0.00    -0.163 NA
ATOM      3  N   UNL     1      33.395 -13.982 -22.588  0.00  0.00    -0.336 NA
ATOM      4  N   UNL     1      33.068 -13.180 -24.843  0.00  0.00    -0.170 NA
ATOM      5  N   UNL     1      32.351 -11.922 -22.995  0.00  0.00    -0.247 N 
ATOM      6  C   UNL     1      34.824 -17.760 -24.058  0.00  0.00    +0.035 C 
ATOM      7  C   UNL     1      34.865 -17.350 -22.629  0.00  0.00    +0.024 A 
ATOM      8  C   UNL     1      34.867 -16.527 -25.002  0.00  0.00    +0.035 C 
ATOM      9  C   UNL     1      34.442 -16.106 -22.217  0.00  0.00    +0.106 A 
ATOM     10  C   UNL     1      34.132 -15.310 -24.484  0.00  0.00    +0.030 C 
ATOM     11  C   UNL     1      33.971 -15.077 -23.116  0.00  0.00    +0.158 C 
ATOM     12  C   UNL     1      35.242 -18.005 -21.445  0.00  0.00    +0.174 A 
ATOM     13  C   UNL     1      33.662 -14.303 -25.305  0.00  0.00    +0.110 C 
ATOM     14  C   UNL     1      34.240 -15.023 -19.946  0.00  0.00    +0.154 C 
ATOM     15  C   UNL     1      32.970 -13.087 -23.500  0.00  0.00    +0.149 C 
ATOM     16  H   UNL     1      32.054 -11.297 -23.695  0.00  0.00    +0.165 HD
ENDROOT
BRANCH   5  17
ATOM     17  C   UNL     1      32.074 -11.480 -21.688  0.00  0.00    +0.058 C 
ATOM     18  C   UNL     1      31.747 -12.402 -20.695  0.00  0.00    +0.015 C 
ATOM     19  C   UNL     1      32.128 -10.119 -21.388  0.00  0.00    +0.015 C 
ATOM     20  C   UNL     1      31.474 -11.964 -19.398  0.00  0.00    +0.001 C 
ATOM     21  C   UNL     1      31.855  -9.681 -20.091  0.00  0.00    +0.001 C 
ATOM     22  C   UNL     1      31.528 -10.603 -19.098  0.00  0.00    +0.000 C 
ENDBRANCH   5  17
BRANCH  12  24
ATOM     23  O   UNL     1      35.259 -20.377 -21.754  0.00  0.00    -0.243 OA
ATOM     24  C   UNL     1      35.766 -19.333 -21.300  0.00  0.00    +0.357 C 
BRANCH  24  25
ATOM     25  O   UNL     1      36.933 -19.377 -20.586  0.00  0.00    -0.476 OA
ATOM     26  H   UNL     1      37.674 -19.840 -20.926  0.00  0.00    +0.295 HD
ENDBRANCH  24  25
ENDBRANCH  12  24
TORSDOF 3
ENDMDL
MODEL 9
REMARK VINA RESULT:      -9.0      2.560      4.389
REMARK  Name = 44129603
REMARK  3 active torsions:
REMARK  status: ('A' for Active; 'I' for Inactive)
REMARK    1  A    between atoms: N_5  and  C_17
REMARK    2  A    between atoms: C_12  and  C_24
REMARK    3  A    between atoms: C_24  and  O_25
REMARK                            x       y       z     vdW  Elec       q    Type
REMARK                         _______ _______ _______ _____ _____    ______ ____
ROOT
ATOM      1  N   UNL     1      32.554 -23.323 -16.164  0.00  0.00    -0.246 N 
ATOM      2  N   UNL     1      31.486 -23.908 -15.584  0.00  0.00    -0.163 NA
ATOM      3  N   UNL     1      35.283 -22.558 -17.044  0.00  0.00    -0.336 NA
ATOM      4  N   UNL     1      37.634 -22.518 -16.493  0.00  0.00    -0.170 NA
ATOM      5  N   UNL     1      36.832 -21.496 -18.448  0.00  0.00    -0.247 N 
ATOM      6  C   UNL     1      34.480 -25.203 -13.752  0.00  0.00    +0.035 C 
ATOM      7  C   UNL     1      33.428 -24.561 -14.583  0.00  0.00    +0.024 A 
ATOM      8  C   UNL     1      35.780 -24.353 -13.726  0.00  0.00    +0.035 C 
ATOM      9  C   UNL     1      33.737 -23.679 -15.594  0.00  0.00    +0.106 A 
ATOM     10  C   UNL     1      36.091 -23.637 -15.023  0.00  0.00    +0.030 C 
ATOM     11  C   UNL     1      35.083 -23.259 -15.913  0.00  0.00    +0.158 C 
ATOM     12  C   UNL     1      32.027 -24.666 -14.622  0.00  0.00    +0.174 A 
ATOM     13  C   UNL     1      37.361 -23.219 -15.370  0.00  0.00    +0.110 C 
ATOM     14  C   UNL     1      32.333 -22.443 -17.289  0.00  0.00    +0.154 C 
ATOM     15  C   UNL     1      36.569 -22.227 -17.269  0.00  0.00    +0.149 C 
ATOM     16  H   UNL     1      37.783 -21.277 -18.574  0.00  0.00    +0.165 HD
ENDROOT
BRANCH   5  17
ATOM     17  C   UNL     1      36.001 -21.020 -19.479  0.00  0.00    +0.058 C 
ATOM     18  C   UNL     1      34.656 -21.388 -19.517  0.00  0.00    +0.015 C 
ATOM     19  C   UNL     1      36.523 -20.179 -20.462  0.00  0.00    +0.015 C 
ATOM     20  C   UNL     1      33.832 -20.914 -20.539  0.00  0.00    +0.001 C 
ATOM     21  C   UNL     1      35.699 -19.706 -21.483  0.00  0.00    +0.001 C 
ATOM     22  C   UNL     1      34.354 -20.073 -21.522  0.00  0.00    +0.000 C 
ENDBRANCH   5  17
BRANCH  12  24
ATOM     23  O   UNL     1      31.200 -25.474 -12.528  0.00  0.00    -0.243 OA
ATOM     24  C   UNL     1      31.178 -25.453 -13.774  0.00  0.00    +0.357 C 
BRANCH  24  25
ATOM     25  O   UNL     1      30.288 -26.226 -14.470  0.00  0.00    -0.476 OA
ATOM     26  H   UNL     1      30.020 -25.972 -15.331  0.00  0.00    +0.295 HD
ENDBRANCH  24  25
ENDBRANCH  12  24
TORSDOF 3
ENDMDL
