MODEL 1
REMARK VINA RESULT:     -12.6      0.000      0.000
REMARK  Name = 448889
REMARK  5 active torsions:
REMARK  status: ('A' for Active; 'I' for Inactive)
REMARK    1  A    between atoms: C_1  and  N_2
REMARK    2  A    between atoms: C_1  and  C_16
REMARK    3  A    between atoms: C_6  and  C_10
REMARK    4  A    between atoms: C_16  and  C_17
REMARK    5  A    between atoms: C_17  and  C_21
REMARK                            x       y       z     vdW  Elec       q    Type
REMARK                         _______ _______ _______ _____ _____    ______ ____
ROOT
ATOM      1  C   UNL     1      35.230 -16.293 -24.452  0.00  0.00    -0.076 C 
ENDROOT
BRANCH   1   2
ATOM      2  N   UNL     1      35.381 -17.389 -23.498  0.00  0.00    +0.390 N 
ATOM      3  C   UNL     1      34.541 -18.532 -23.868  0.00  0.00    -0.072 C 
ATOM      4  C   UNL     1      34.846 -19.723 -22.946  0.00  0.00    +0.003 C 
ATOM      5  C   UNL     1      35.070 -16.936 -22.133  0.00  0.00    -0.051 C 
ATOM      6  C   UNL     1      34.867 -19.347 -21.482  0.00  0.00    -0.031 C 
ATOM      7  C   UNL     1      34.968 -18.051 -21.126  0.00  0.00    -0.053 C 
ATOM      8  H   UNL     1      36.354 -17.693 -23.522  0.00  0.00    -0.079 HD
BRANCH   6  10
ATOM      9  F   UNL     1      34.540 -23.454 -17.667  0.00  0.00    -0.204 F 
ATOM     10  C   UNL     1      34.779 -20.431 -20.475  0.00  0.00    -0.004 C 
ATOM     11  C   UNL     1      33.533 -20.872 -20.025  0.00  0.00    +0.002 C 
ATOM     12  C   UNL     1      35.945 -21.016 -19.974  0.00  0.00    +0.002 C 
ATOM     13  C   UNL     1      33.452 -21.893 -19.078  0.00  0.00    +0.030 C 
ATOM     14  C   UNL     1      35.863 -22.037 -19.027  0.00  0.00    +0.030 C 
ATOM     15  C   UNL     1      34.617 -22.475 -18.578  0.00  0.00    +0.140 C 
ENDBRANCH   6  10
ENDBRANCH   1   2
BRANCH   1  16
ATOM     16  C   UNL     1      33.815 -15.713 -24.373  0.00  0.00    -0.014 C 
BRANCH  16  17
ATOM     17  C   UNL     1      33.810 -14.194 -24.312  0.00  0.00    +0.074 C 
BRANCH  17  21
ATOM     18  O   UNL     1      32.246 -14.990 -19.954  0.00  0.00    -0.209 OA
ATOM     19  N   UNL     1      32.910 -12.381 -22.924  0.00  0.00    -0.290 N 
ATOM     20  N   UNL     1      33.010 -14.608 -22.080  0.00  0.00    -0.322 NA
ATOM     21  C   UNL     1      33.206 -13.721 -23.012  0.00  0.00    +0.173 C 
ATOM     22  C   UNL     1      32.350 -11.886 -21.745  0.00  0.00    +0.058 C 
ATOM     23  C   UNL     1      32.106 -12.772 -20.687  0.00  0.00    +0.108 C 
ATOM     24  C   UNL     1      32.029 -10.534 -21.594  0.00  0.00    -0.008 C 
ATOM     25  C   UNL     1      32.459 -14.209 -20.875  0.00  0.00    +0.207 C 
ATOM     26  C   UNL     1      31.548 -12.317 -19.490  0.00  0.00    +0.014 C 
ATOM     27  C   UNL     1      31.471 -10.076 -20.399  0.00  0.00    -0.003 C 
ATOM     28  C   UNL     1      31.230 -10.965 -19.351  0.00  0.00    +0.001 C 
ATOM     29  C   UNL     1      32.269  -9.548 -22.690  0.00  0.00    +0.032 C 
ATOM     30  H   UNL     1      33.092 -11.780 -23.682  0.00  0.00    +0.154 HD
ENDBRANCH  17  21
ENDBRANCH  16  17
ENDBRANCH   1  16
TORSDOF 5
ENDMDL
MODEL 2
REMARK VINA RESULT:     -12.0      1.380      2.184
REMARK  Name = 448889
REMARK  5 active torsions:
REMARK  status: ('A' for Active; 'I' for Inactive)
REMARK    1  A    between atoms: C_1  and  N_2
REMARK    2  A    between atoms: C_1  and  C_16
REMARK    3  A    between atoms: C_6  and  C_10
REMARK    4  A    between atoms: C_16  and  C_17
REMARK    5  A    between atoms: C_17  and  C_21
REMARK                            x       y       z     vdW  Elec       q    Type
REMARK                         _______ _______ _______ _____ _____    ______ ____
ROOT
ATOM      1  C   UNL     1      35.045 -16.082 -24.668  0.00  0.00    -0.076 C 
ENDROOT
BRANCH   1   2
ATOM      2  N   UNL     1      35.255 -17.166 -23.712  0.00  0.00    +0.390 N 
ATOM      3  C   UNL     1      34.466 -18.348 -24.071  0.00  0.00    -0.072 C 
ATOM      4  C   UNL     1      34.834 -19.520 -23.148  0.00  0.00    +0.003 C 
ATOM      5  C   UNL     1      34.936 -16.724 -22.345  0.00  0.00    -0.051 C 
ATOM      6  C   UNL     1      34.851 -19.138 -21.685  0.00  0.00    -0.031 C 
ATOM      7  C   UNL     1      34.895 -17.838 -21.335  0.00  0.00    -0.053 C 
ATOM      8  H   UNL     1      36.241 -17.424 -23.743  0.00  0.00    -0.079 HD
BRANCH   6  10
ATOM      9  F   UNL     1      34.749 -23.243 -17.855  0.00  0.00    -0.204 F 
ATOM     10  C   UNL     1      34.823 -20.222 -20.674  0.00  0.00    -0.004 C 
ATOM     11  C   UNL     1      33.603 -20.701 -20.193  0.00  0.00    +0.002 C 
ATOM     12  C   UNL     1      36.018 -20.768 -20.200  0.00  0.00    +0.002 C 
ATOM     13  C   UNL     1      33.577 -21.722 -19.242  0.00  0.00    +0.030 C 
ATOM     14  C   UNL     1      35.992 -21.788 -19.249  0.00  0.00    +0.030 C 
ATOM     15  C   UNL     1      34.772 -22.264 -18.769  0.00  0.00    +0.140 C 
ENDBRANCH   6  10
ENDBRANCH   1   2
BRANCH   1  16
ATOM     16  C   UNL     1      33.950 -15.138 -24.166  0.00  0.00    -0.014 C 
BRANCH  16  17
ATOM     17  C   UNL     1      34.209 -13.689 -24.550  0.00  0.00    +0.074 C 
BRANCH  17  21
ATOM     18  O   UNL     1      32.705  -9.426 -23.269  0.00  0.00    -0.209 OA
ATOM     19  N   UNL     1      33.106 -13.317 -22.389  0.00  0.00    -0.290 N 
ATOM     20  N   UNL     1      33.441 -11.503 -23.900  0.00  0.00    -0.322 NA
ATOM     21  C   UNL     1      33.546 -12.757 -23.566  0.00  0.00    +0.173 C 
ATOM     22  C   UNL     1      32.484 -12.502 -21.441  0.00  0.00    +0.058 C 
ATOM     23  C   UNL     1      32.327 -11.137 -21.719  0.00  0.00    +0.108 C 
ATOM     24  C   UNL     1      32.014 -13.012 -20.228  0.00  0.00    -0.008 C 
ATOM     25  C   UNL     1      32.837 -10.620 -23.022  0.00  0.00    +0.207 C 
ATOM     26  C   UNL     1      31.709 -10.288 -20.797  0.00  0.00    +0.014 C 
ATOM     27  C   UNL     1      31.396 -12.166 -19.305  0.00  0.00    -0.003 C 
ATOM     28  C   UNL     1      31.246 -10.809 -19.589  0.00  0.00    +0.001 C 
ATOM     29  C   UNL     1      32.155 -14.459 -19.882  0.00  0.00    +0.032 C 
ATOM     30  H   UNL     1      33.227 -14.278 -22.219  0.00  0.00    +0.154 HD
ENDBRANCH  17  21
ENDBRANCH  16  17
ENDBRANCH   1  16
TORSDOF 5
ENDMDL
MODEL 3
REMARK VINA RESULT:     -11.9      1.626      2.641
REMARK  Name = 448889
REMARK  5 active torsions:
REMARK  status: ('A' for Active; 'I' for Inactive)
REMARK    1  A    between atoms: C_1  and  N_2
REMARK    2  A    between atoms: C_1  and  C_16
REMARK    3  A    between atoms: C_6  and  C_10
REMARK    4  A    between atoms: C_16  and  C_17
REMARK    5  A    between atoms: C_17  and  C_21
REMARK                            x       y       z     vdW  Elec       q    Type
REMARK                         _______ _______ _______ _____ _____    ______ ____
ROOT
ATOM      1  C   UNL     1      34.978 -16.437 -24.547  0.00  0.00    -0.076 C 
ENDROOT
BRANCH   1   2
ATOM      2  N   UNL     1      34.666 -17.372 -23.469  0.00  0.00    +0.390 N 
ATOM      3  C   UNL     1      35.560 -17.176 -22.324  0.00  0.00    -0.072 C 
ATOM      4  C   UNL     1      35.102 -18.053 -21.148  0.00  0.00    +0.003 C 
ATOM      5  C   UNL     1      34.731 -18.761 -23.948  0.00  0.00    -0.051 C 
ATOM      6  C   UNL     1      34.824 -19.484 -21.552  0.00  0.00    -0.031 C 
ATOM      7  C   UNL     1      34.658 -19.791 -22.853  0.00  0.00    -0.053 C 
ATOM      8  H   UNL     1      33.712 -17.184 -23.159  0.00  0.00    -0.079 HD
BRANCH   6  10
ATOM      9  F   UNL     1      34.489 -23.375 -17.518  0.00  0.00    -0.204 F 
ATOM     10  C   UNL     1      34.736 -20.511 -20.486  0.00  0.00    -0.004 C 
ATOM     11  C   UNL     1      35.899 -21.073 -19.957  0.00  0.00    +0.002 C 
ATOM     12  C   UNL     1      33.489 -20.919 -20.009  0.00  0.00    +0.002 C 
ATOM     13  C   UNL     1      35.817 -22.040 -18.954  0.00  0.00    +0.030 C 
ATOM     14  C   UNL     1      33.406 -21.885 -19.006  0.00  0.00    +0.030 C 
ATOM     15  C   UNL     1      34.569 -22.446 -18.479  0.00  0.00    +0.140 C 
ENDBRANCH   6  10
ENDBRANCH   1   2
BRANCH   1  16
ATOM     16  C   UNL     1      33.895 -15.360 -24.644  0.00  0.00    -0.014 C 
BRANCH  16  17
ATOM     17  C   UNL     1      33.433 -14.873 -23.280  0.00  0.00    +0.074 C 
BRANCH  17  21
ATOM     18  O   UNL     1      34.930 -10.683 -24.787  0.00  0.00    -0.209 OA
ATOM     19  N   UNL     1      32.571 -12.786 -22.320  0.00  0.00    -0.290 N 
ATOM     20  N   UNL     1      34.204 -12.730 -24.056  0.00  0.00    -0.322 NA
ATOM     21  C   UNL     1      33.419 -13.365 -23.235  0.00  0.00    +0.173 C 
ATOM     22  C   UNL     1      32.516 -11.393 -22.233  0.00  0.00    +0.058 C 
ATOM     23  C   UNL     1      33.327 -10.629 -23.083  0.00  0.00    +0.108 C 
ATOM     24  C   UNL     1      31.674 -10.745 -21.326  0.00  0.00    -0.008 C 
ATOM     25  C   UNL     1      34.215 -11.346 -24.043  0.00  0.00    +0.207 C 
ATOM     26  C   UNL     1      33.301  -9.233 -23.029  0.00  0.00    +0.014 C 
ATOM     27  C   UNL     1      31.645  -9.351 -21.269  0.00  0.00    -0.003 C 
ATOM     28  C   UNL     1      32.457  -8.597 -22.117  0.00  0.00    +0.001 C 
ATOM     29  C   UNL     1      30.788 -11.513 -20.398  0.00  0.00    +0.032 C 
ATOM     30  H   UNL     1      32.012 -13.345 -21.735  0.00  0.00    +0.154 HD
ENDBRANCH  17  21
ENDBRANCH  16  17
ENDBRANCH   1  16
TORSDOF 5
ENDMDL
MODEL 4
REMARK VINA RESULT:     -11.6      1.365      1.990
REMARK  Name = 448889
REMARK  5 active torsions:
REMARK  status: ('A' for Active; 'I' for Inactive)
REMARK    1  A    between atoms: C_1  and  N_2
REMARK    2  A    between atoms: C_1  and  C_16
REMARK    3  A    between atoms: C_6  and  C_10
REMARK    4  A    between atoms: C_16  and  C_17
REMARK    5  A    between atoms: C_17  and  C_21
REMARK                            x       y       z     vdW  Elec       q    Type
REMARK                         _______ _______ _______ _____ _____    ______ ____
ROOT
ATOM      1  C   UNL     1      35.142 -16.368 -24.486  0.00  0.00    -0.076 C 
ENDROOT
BRANCH   1   2
ATOM      2  N   UNL     1      35.315 -17.442 -23.511  0.00  0.00    +0.390 N 
ATOM      3  C   UNL     1      34.514 -18.616 -23.871  0.00  0.00    -0.072 C 
ATOM      4  C   UNL     1      34.845 -19.782 -22.926  0.00  0.00    +0.003 C 
ATOM      5  C   UNL     1      34.977 -16.977 -22.157  0.00  0.00    -0.051 C 
ATOM      6  C   UNL     1      34.839 -19.381 -21.468  0.00  0.00    -0.031 C 
ATOM      7  C   UNL     1      34.898 -18.077 -21.134  0.00  0.00    -0.053 C 
ATOM      8  H   UNL     1      36.298 -17.717 -23.520  0.00  0.00    -0.079 HD
BRANCH   6  10
ATOM      9  F   UNL     1      34.595 -23.433 -17.589  0.00  0.00    -0.204 F 
ATOM     10  C   UNL     1      34.774 -20.451 -20.444  0.00  0.00    -0.004 C 
ATOM     11  C   UNL     1      33.537 -20.907 -19.984  0.00  0.00    +0.002 C 
ATOM     12  C   UNL     1      35.950 -21.007 -19.937  0.00  0.00    +0.002 C 
ATOM     13  C   UNL     1      33.476 -21.914 -19.020  0.00  0.00    +0.030 C 
ATOM     14  C   UNL     1      35.889 -22.014 -18.974  0.00  0.00    +0.030 C 
ATOM     15  C   UNL     1      34.653 -22.467 -18.515  0.00  0.00    +0.140 C 
ENDBRANCH   6  10
ENDBRANCH   1   2
BRANCH   1  16
ATOM     16  C   UNL     1      34.809 -15.055 -23.772  0.00  0.00    -0.014 C 
BRANCH  16  17
ATOM     17  C   UNL     1      33.312 -14.829 -23.635  0.00  0.00    +0.074 C 
BRANCH  17  21
ATOM     18  O   UNL     1      30.931 -11.807 -20.938  0.00  0.00    -0.209 OA
ATOM     19  N   UNL     1      33.806 -12.426 -23.664  0.00  0.00    -0.290 N 
ATOM     20  N   UNL     1      32.089 -13.286 -22.251  0.00  0.00    -0.322 NA
ATOM     21  C   UNL     1      33.033 -13.433 -23.136  0.00  0.00    +0.173 C 
ATOM     22  C   UNL     1      33.592 -11.113 -23.238  0.00  0.00    +0.058 C 
ATOM     23  C   UNL     1      32.595 -10.863 -22.285  0.00  0.00    +0.108 C 
ATOM     24  C   UNL     1      34.346 -10.046 -23.735  0.00  0.00    -0.008 C 
ATOM     25  C   UNL     1      31.807 -12.020 -21.770  0.00  0.00    +0.207 C 
ATOM     26  C   UNL     1      32.351  -9.564 -21.832  0.00  0.00    +0.014 C 
ATOM     27  C   UNL     1      34.104  -8.747 -23.285  0.00  0.00    -0.003 C 
ATOM     28  C   UNL     1      33.109  -8.507 -22.337  0.00  0.00    +0.001 C 
ATOM     29  C   UNL     1      35.421 -10.257 -24.752  0.00  0.00    +0.032 C 
ATOM     30  H   UNL     1      34.499 -12.627 -24.332  0.00  0.00    +0.154 HD
ENDBRANCH  17  21
ENDBRANCH  16  17
ENDBRANCH   1  16
TORSDOF 5
ENDMDL
MODEL 5
REMARK VINA RESULT:     -11.6      5.661     11.408
REMARK  Name = 448889
REMARK  5 active torsions:
REMARK  status: ('A' for Active; 'I' for Inactive)
REMARK    1  A    between atoms: C_1  and  N_2
REMARK    2  A    between atoms: C_1  and  C_16
REMARK    3  A    between atoms: C_6  and  C_10
REMARK    4  A    between atoms: C_16  and  C_17
REMARK    5  A    between atoms: C_17  and  C_21
REMARK                            x       y       z     vdW  Elec       q    Type
REMARK                         _______ _______ _______ _____ _____    ______ ____
ROOT
ATOM      1  C   UNL     1      36.532 -21.875 -19.414  0.00  0.00    -0.076 C 
ENDROOT
BRANCH   1   2
ATOM      2  N   UNL     1      36.086 -20.548 -19.830  0.00  0.00    +0.390 N 
ATOM      3  C   UNL     1      34.884 -20.632 -20.665  0.00  0.00    -0.072 C 
ATOM      4  C   UNL     1      34.344 -19.221 -20.946  0.00  0.00    +0.003 C 
ATOM      5  C   UNL     1      37.161 -19.834 -20.537  0.00  0.00    -0.051 C 
ATOM      6  C   UNL     1      35.417 -18.258 -21.402  0.00  0.00    -0.031 C 
ATOM      7  C   UNL     1      36.715 -18.562 -21.205  0.00  0.00    -0.053 C 
ATOM      8  H   UNL     1      35.849 -20.020 -18.990  0.00  0.00    -0.079 HD
BRANCH   6  10
ATOM      9  F   UNL     1      33.830 -13.466 -23.861  0.00  0.00    -0.204 F 
ATOM     10  C   UNL     1      34.998 -16.993 -22.051  0.00  0.00    -0.004 C 
ATOM     11  C   UNL     1      34.986 -16.890 -23.444  0.00  0.00    +0.002 C 
ATOM     12  C   UNL     1      34.612 -15.900 -21.272  0.00  0.00    +0.002 C 
ATOM     13  C   UNL     1      34.591 -15.700 -24.055  0.00  0.00    +0.030 C 
ATOM     14  C   UNL     1      34.217 -14.710 -21.884  0.00  0.00    +0.030 C 
ATOM     15  C   UNL     1      34.207 -14.609 -23.275  0.00  0.00    +0.140 C 
ENDBRANCH   6  10
ENDBRANCH   1   2
BRANCH   1  16
ATOM     16  C   UNL     1      36.076 -22.161 -17.981  0.00  0.00    -0.014 C 
BRANCH  16  17
ATOM     17  C   UNL     1      37.208 -22.035 -16.973  0.00  0.00    +0.074 C 
BRANCH  17  21
ATOM     18  O   UNL     1      34.506 -23.851 -13.586  0.00  0.00    -0.209 OA
ATOM     19  N   UNL     1      38.051 -23.770 -15.456  0.00  0.00    -0.290 N 
ATOM     20  N   UNL     1      35.819 -22.961 -15.240  0.00  0.00    -0.322 NA
ATOM     21  C   UNL     1      36.987 -22.974 -15.813  0.00  0.00    +0.173 C 
ATOM     22  C   UNL     1      37.905 -24.659 -14.389  0.00  0.00    +0.058 C 
ATOM     23  C   UNL     1      36.678 -24.713 -13.715  0.00  0.00    +0.108 C 
ATOM     24  C   UNL     1      38.948 -25.495 -13.980  0.00  0.00    -0.008 C 
ATOM     25  C   UNL     1      35.582 -23.811 -14.173  0.00  0.00    +0.207 C 
ATOM     26  C   UNL     1      36.490 -25.590 -12.643  0.00  0.00    +0.014 C 
ATOM     27  C   UNL     1      38.764 -26.372 -12.909  0.00  0.00    -0.003 C 
ATOM     28  C   UNL     1      37.539 -26.418 -12.243  0.00  0.00    +0.001 C 
ATOM     29  C   UNL     1      40.276 -25.478 -14.665  0.00  0.00    +0.032 C 
ATOM     30  H   UNL     1      38.903 -23.713 -15.946  0.00  0.00    +0.154 HD
ENDBRANCH  17  21
ENDBRANCH  16  17
ENDBRANCH   1  16
TORSDOF 5
ENDMDL
MODEL 6
REMARK VINA RESULT:     -11.6      3.852      9.570
REMARK  Name = 448889
REMARK  5 active torsions:
REMARK  status: ('A' for Active; 'I' for Inactive)
REMARK    1  A    between atoms: C_1  and  N_2
REMARK    2  A    between atoms: C_1  and  C_16
REMARK    3  A    between atoms: C_6  and  C_10
REMARK    4  A    between atoms: C_16  and  C_17
REMARK    5  A    between atoms: C_17  and  C_21
REMARK                            x       y       z     vdW  Elec       q    Type
REMARK                         _______ _______ _______ _____ _____    ______ ____
ROOT
ATOM      1  C   UNL     1      36.272 -18.678 -22.379  0.00  0.00    -0.076 C 
ENDROOT
BRANCH   1   2
ATOM      2  N   UNL     1      35.751 -17.323 -22.217  0.00  0.00    +0.390 N 
ATOM      3  C   UNL     1      34.859 -17.235 -21.057  0.00  0.00    -0.072 C 
ATOM      4  C   UNL     1      34.462 -15.770 -20.815  0.00  0.00    +0.003 C 
ATOM      5  C   UNL     1      35.059 -16.881 -23.439  0.00  0.00    -0.051 C 
ATOM      6  C   UNL     1      34.005 -15.066 -22.073  0.00  0.00    -0.031 C 
ATOM      7  C   UNL     1      34.290 -15.598 -23.277  0.00  0.00    -0.053 C 
ATOM      8  H   UNL     1      36.542 -16.700 -22.054  0.00  0.00    -0.079 HD
BRANCH   6  10
ATOM      9  F   UNL     1      31.166 -10.249 -21.553  0.00  0.00    -0.204 F 
ATOM     10  C   UNL     1      33.256 -13.794 -21.934  0.00  0.00    -0.004 C 
ATOM     11  C   UNL     1      32.352 -13.624 -20.884  0.00  0.00    +0.002 C 
ATOM     12  C   UNL     1      33.452 -12.763 -22.855  0.00  0.00    +0.002 C 
ATOM     13  C   UNL     1      31.647 -12.427 -20.754  0.00  0.00    +0.030 C 
ATOM     14  C   UNL     1      32.747 -11.566 -22.725  0.00  0.00    +0.030 C 
ATOM     15  C   UNL     1      31.844 -11.398 -21.676  0.00  0.00    +0.140 C 
ENDBRANCH   6  10
ENDBRANCH   1   2
BRANCH   1  16
ATOM     16  C   UNL     1      35.577 -19.632 -21.405  0.00  0.00    -0.014 C 
BRANCH  16  17
ATOM     17  C   UNL     1      36.558 -20.349 -20.491  0.00  0.00    +0.074 C 
BRANCH  17  21
ATOM     18  O   UNL     1      32.706 -22.625 -19.059  0.00  0.00    -0.209 OA
ATOM     19  N   UNL     1      36.524 -21.606 -18.384  0.00  0.00    -0.290 N 
ATOM     20  N   UNL     1      34.582 -21.512 -19.763  0.00  0.00    -0.322 NA
ATOM     21  C   UNL     1      35.820 -21.210 -19.497  0.00  0.00    +0.173 C 
ATOM     22  C   UNL     1      35.892 -22.406 -17.430  0.00  0.00    +0.058 C 
ATOM     23  C   UNL     1      34.557 -22.780 -17.636  0.00  0.00    +0.108 C 
ATOM     24  C   UNL     1      36.555 -22.842 -16.279  0.00  0.00    -0.008 C 
ATOM     25  C   UNL     1      33.875 -22.302 -18.873  0.00  0.00    +0.207 C 
ATOM     26  C   UNL     1      33.888 -23.581 -16.706  0.00  0.00    +0.014 C 
ATOM     27  C   UNL     1      35.889 -23.641 -15.348  0.00  0.00    -0.003 C 
ATOM     28  C   UNL     1      34.560 -24.008 -15.561  0.00  0.00    +0.001 C 
ATOM     29  C   UNL     1      37.977 -22.472 -16.010  0.00  0.00    +0.032 C 
ATOM     30  H   UNL     1      37.461 -21.330 -18.262  0.00  0.00    +0.154 HD
ENDBRANCH  17  21
ENDBRANCH  16  17
ENDBRANCH   1  16
TORSDOF 5
ENDMDL
MODEL 7
REMARK VINA RESULT:     -11.6      2.780      5.152
REMARK  Name = 448889
REMARK  5 active torsions:
REMARK  status: ('A' for Active; 'I' for Inactive)
REMARK    1  A    between atoms: C_1  and  N_2
REMARK    2  A    between atoms: C_1  and  C_16
REMARK    3  A    between atoms: C_6  and  C_10
REMARK    4  A    between atoms: C_16  and  C_17
REMARK    5  A    between atoms: C_17  and  C_21
REMARK                            x       y       z     vdW  Elec       q    Type
REMARK                         _______ _______ _______ _____ _____    ______ ____
ROOT
ATOM      1  C   UNL     1      34.370 -20.201 -21.251  0.00  0.00    -0.076 C 
ENDROOT
BRANCH   1   2
ATOM      2  N   UNL     1      34.645 -20.719 -19.913  0.00  0.00    +0.390 N 
ATOM      3  C   UNL     1      35.952 -21.381 -19.860  0.00  0.00    -0.072 C 
ATOM      4  C   UNL     1      36.284 -21.764 -18.410  0.00  0.00    +0.003 C 
ATOM      5  C   UNL     1      33.579 -21.638 -19.482  0.00  0.00    -0.051 C 
ATOM      6  C   UNL     1      35.143 -22.466 -17.708  0.00  0.00    -0.031 C 
ATOM      7  C   UNL     1      33.899 -22.397 -18.222  0.00  0.00    -0.053 C 
ATOM      8  H   UNL     1      34.666 -19.928 -19.270  0.00  0.00    -0.079 HD
BRANCH   6  10
ATOM      9  F   UNL     1      36.248 -25.287 -12.981  0.00  0.00    -0.204 F 
ATOM     10  C   UNL     1      35.435 -23.210 -16.460  0.00  0.00    -0.004 C 
ATOM     11  C   UNL     1      36.715 -23.172 -15.904  0.00  0.00    +0.002 C 
ATOM     12  C   UNL     1      34.430 -23.952 -15.836  0.00  0.00    +0.002 C 
ATOM     13  C   UNL     1      36.990 -23.872 -14.729  0.00  0.00    +0.030 C 
ATOM     14  C   UNL     1      34.705 -24.652 -14.661  0.00  0.00    +0.030 C 
ATOM     15  C   UNL     1      35.985 -24.613 -14.108  0.00  0.00    +0.140 C 
ENDBRANCH   6  10
ENDBRANCH   1   2
BRANCH   1  16
ATOM     16  C   UNL     1      35.529 -19.320 -21.725  0.00  0.00    -0.014 C 
BRANCH  16  17
ATOM     17  C   UNL     1      35.511 -19.092 -23.228  0.00  0.00    +0.074 C 
BRANCH  17  21
ATOM     18  O   UNL     1      33.974 -15.870 -26.282  0.00  0.00    -0.209 OA
ATOM     19  N   UNL     1      34.769 -16.876 -22.483  0.00  0.00    -0.290 N 
ATOM     20  N   UNL     1      34.725 -17.446 -24.797  0.00  0.00    -0.322 NA
ATOM     21  C   UNL     1      34.966 -17.723 -23.548  0.00  0.00    +0.173 C 
ATOM     22  C   UNL     1      34.265 -15.595 -22.719  0.00  0.00    +0.058 C 
ATOM     23  C   UNL     1      33.976 -15.213 -24.036  0.00  0.00    +0.108 C 
ATOM     24  C   UNL     1      34.041 -14.689 -21.679  0.00  0.00    -0.008 C 
ATOM     25  C   UNL     1      34.223 -16.199 -25.127  0.00  0.00    +0.207 C 
ATOM     26  C   UNL     1      33.469 -13.940 -24.315  0.00  0.00    +0.014 C 
ATOM     27  C   UNL     1      33.536 -13.417 -21.954  0.00  0.00    -0.003 C 
ATOM     28  C   UNL     1      33.252 -13.044 -23.268  0.00  0.00    +0.001 C 
ATOM     29  C   UNL     1      34.332 -15.046 -20.257  0.00  0.00    +0.032 C 
ATOM     30  H   UNL     1      34.980 -17.168 -21.568  0.00  0.00    +0.154 HD
ENDBRANCH  17  21
ENDBRANCH  16  17
ENDBRANCH   1  16
TORSDOF 5
ENDMDL
MODEL 8
REMARK VINA RESULT:     -11.6      4.729     10.094
REMARK  Name = 448889
REMARK  5 active torsions:
REMARK  status: ('A' for Active; 'I' for Inactive)
REMARK    1  A    between atoms: C_1  and  N_2
REMARK    2  A    between atoms: C_1  and  C_16
REMARK    3  A    between atoms: C_6  and  C_10
REMARK    4  A    between atoms: C_16  and  C_17
REMARK    5  A    between atoms: C_17  and  C_21
REMARK                            x       y       z     vdW  Elec       q    Type
REMARK                         _______ _______ _______ _____ _____    ______ ____
ROOT
ATOM      1  C   UNL     1      36.550 -21.678 -19.512  0.00  0.00    -0.076 C 
ENDROOT
BRANCH   1   2
ATOM      2  N   UNL     1      36.098 -20.354 -19.936  0.00  0.00    +0.390 N 
ATOM      3  C   UNL     1      34.875 -20.445 -20.739  0.00  0.00    -0.072 C 
ATOM      4  C   UNL     1      34.334 -19.036 -21.027  0.00  0.00    +0.003 C 
ATOM      5  C   UNL     1      37.158 -19.656 -20.680  0.00  0.00    -0.051 C 
ATOM      6  C   UNL     1      35.399 -18.084 -21.523  0.00  0.00    -0.031 C 
ATOM      7  C   UNL     1      36.700 -18.391 -21.356  0.00  0.00    -0.053 C 
ATOM      8  H   UNL     1      35.885 -19.814 -19.098  0.00  0.00    -0.079 HD
BRANCH   6  10
ATOM      9  F   UNL     1      33.769 -13.322 -24.011  0.00  0.00    -0.204 F 
ATOM     10  C   UNL     1      34.969 -16.828 -22.181  0.00  0.00    -0.004 C 
ATOM     11  C   UNL     1      34.937 -16.740 -23.574  0.00  0.00    +0.002 C 
ATOM     12  C   UNL     1      34.593 -15.727 -21.408  0.00  0.00    +0.002 C 
ATOM     13  C   UNL     1      34.531 -15.557 -24.193  0.00  0.00    +0.030 C 
ATOM     14  C   UNL     1      34.187 -14.544 -22.026  0.00  0.00    +0.030 C 
ATOM     15  C   UNL     1      34.157 -14.458 -23.418  0.00  0.00    +0.140 C 
ENDBRANCH   6  10
ENDBRANCH   1   2
BRANCH   1  16
ATOM     16  C   UNL     1      35.698 -22.178 -18.343  0.00  0.00    -0.014 C 
BRANCH  16  17
ATOM     17  C   UNL     1      34.426 -22.873 -18.803  0.00  0.00    +0.074 C 
BRANCH  17  21
ATOM     18  O   UNL     1      30.211 -22.712 -16.736  0.00  0.00    -0.209 OA
ATOM     19  N   UNL     1      34.086 -23.718 -16.524  0.00  0.00    -0.290 N 
ATOM     20  N   UNL     1      32.264 -22.787 -17.749  0.00  0.00    -0.322 NA
ATOM     21  C   UNL     1      33.514 -23.133 -17.630  0.00  0.00    +0.173 C 
ATOM     22  C   UNL     1      33.289 -23.983 -15.409  0.00  0.00    +0.058 C 
ATOM     23  C   UNL     1      31.930 -23.644 -15.451  0.00  0.00    +0.108 C 
ATOM     24  C   UNL     1      33.811 -24.577 -14.256  0.00  0.00    -0.008 C 
ATOM     25  C   UNL     1      31.399 -23.013 -16.694  0.00  0.00    +0.207 C 
ATOM     26  C   UNL     1      31.098 -23.894 -14.356  0.00  0.00    +0.014 C 
ATOM     27  C   UNL     1      32.983 -24.827 -13.160  0.00  0.00    -0.003 C 
ATOM     28  C   UNL     1      31.631 -24.486 -13.211  0.00  0.00    +0.001 C 
ATOM     29  C   UNL     1      35.252 -24.958 -14.159  0.00  0.00    +0.032 C 
ATOM     30  H   UNL     1      35.043 -23.946 -16.520  0.00  0.00    +0.154 HD
ENDBRANCH  17  21
ENDBRANCH  16  17
ENDBRANCH   1  16
TORSDOF 5
ENDMDL
MODEL 9
REMARK VINA RESULT:     -11.5      2.758      5.059
REMARK  Name = 448889
REMARK  5 active torsions:
REMARK  status: ('A' for Active; 'I' for Inactive)
REMARK    1  A    between atoms: C_1  and  N_2
REMARK    2  A    between atoms: C_1  and  C_16
REMARK    3  A    between atoms: C_6  and  C_10
REMARK    4  A    between atoms: C_16  and  C_17
REMARK    5  A    between atoms: C_17  and  C_21
REMARK                            x       y       z     vdW  Elec       q    Type
REMARK                         _______ _______ _______ _____ _____    ______ ____
ROOT
ATOM      1  C   UNL     1      35.884 -20.338 -21.100  0.00  0.00    -0.076 C 
ENDROOT
BRANCH   1   2
ATOM      2  N   UNL     1      35.345 -20.839 -19.839  0.00  0.00    +0.390 N 
ATOM      3  C   UNL     1      36.157 -21.944 -19.318  0.00  0.00    -0.072 C 
ATOM      4  C   UNL     1      35.666 -22.336 -17.916  0.00  0.00    +0.003 C 
ATOM      5  C   UNL     1      33.943 -21.256 -20.000  0.00  0.00    -0.051 C 
ATOM      6  C   UNL     1      34.165 -22.507 -17.841  0.00  0.00    -0.031 C 
ATOM      7  C   UNL     1      33.386 -22.002 -18.817  0.00  0.00    -0.053 C 
ATOM      8  H   UNL     1      35.378 -20.078 -19.160  0.00  0.00    -0.079 HD
BRANCH   6  10
ATOM      9  F   UNL     1      32.014 -25.241 -13.435  0.00  0.00    -0.204 F 
ATOM     10  C   UNL     1      33.597 -23.229 -16.679  0.00  0.00    -0.004 C 
ATOM     11  C   UNL     1      32.213 -23.323 -16.520  0.00  0.00    +0.002 C 
ATOM     12  C   UNL     1      34.444 -23.818 -15.738  0.00  0.00    +0.002 C 
ATOM     13  C   UNL     1      31.677 -24.003 -15.426  0.00  0.00    +0.030 C 
ATOM     14  C   UNL     1      33.909 -24.498 -14.643  0.00  0.00    +0.030 C 
ATOM     15  C   UNL     1      32.526 -24.590 -14.487  0.00  0.00    +0.140 C 
ENDBRANCH   6  10
ENDBRANCH   1   2
BRANCH   1  16
ATOM     16  C   UNL     1      34.860 -19.433 -21.791  0.00  0.00    -0.014 C 
BRANCH  16  17
ATOM     17  C   UNL     1      35.254 -19.091 -23.219  0.00  0.00    +0.074 C 
BRANCH  17  21
ATOM     18  O   UNL     1      33.908 -15.852 -26.345  0.00  0.00    -0.209 OA
ATOM     19  N   UNL     1      34.671 -16.810 -22.527  0.00  0.00    -0.290 N 
ATOM     20  N   UNL     1      34.566 -17.436 -24.825  0.00  0.00    -0.322 NA
ATOM     21  C   UNL     1      34.799 -17.696 -23.571  0.00  0.00    +0.173 C 
ATOM     22  C   UNL     1      34.253 -15.504 -22.793  0.00  0.00    +0.058 C 
ATOM     23  C   UNL     1      33.977 -15.138 -24.117  0.00  0.00    +0.108 C 
ATOM     24  C   UNL     1      34.102 -14.558 -21.775  0.00  0.00    -0.008 C 
ATOM     25  C   UNL     1      34.145 -16.167 -25.183  0.00  0.00    +0.207 C 
ATOM     26  C   UNL     1      33.555 -13.842 -24.426  0.00  0.00    +0.014 C 
ATOM     27  C   UNL     1      33.680 -13.262 -22.080  0.00  0.00    -0.003 C 
ATOM     28  C   UNL     1      33.409 -12.906 -23.402  0.00  0.00    +0.001 C 
ATOM     29  C   UNL     1      34.382 -14.897 -20.347  0.00  0.00    +0.032 C 
ATOM     30  H   UNL     1      34.871 -17.092 -21.606  0.00  0.00    +0.154 HD
ENDBRANCH  17  21
ENDBRANCH  16  17
ENDBRANCH   1  16
TORSDOF 5
ENDMDL
