MODEL 1
REMARK VINA RESULT:     -12.8      0.000      0.000
REMARK  Name = 9800765
REMARK  5 active torsions:
REMARK  status: ('A' for Active; 'I' for Inactive)
REMARK    1  A    between atoms: C_3  and  C_17
REMARK    2  A    between atoms: C_5  and  N_8
REMARK    3  A    between atoms: N_8  and  C_14
REMARK    4  A    between atoms: C_17  and  C_20
REMARK    5  A    between atoms: C_23  and  C_26
REMARK                            x       y       z     vdW  Elec       q    Type
REMARK                         _______ _______ _______ _____ _____    ______ ____
ROOT
ATOM      1  O   UNL     1      36.592 -22.749 -15.472  0.00  0.00    -0.337 OA
ATOM      2  N   UNL     1      35.884 -22.738 -16.668  0.00  0.00    -0.079 NA
ATOM      3  C   UNL     1      34.697 -23.274 -16.372  0.00  0.00    +0.106 C 
ATOM      4  C   UNL     1      34.599 -23.639 -15.018  0.00  0.00    +0.076 C 
ATOM      5  C   UNL     1      35.812 -23.286 -14.506  0.00  0.00    +0.252 C 
ENDROOT
BRANCH   3   6
ATOM      6  C   UNL     1      33.675 -23.420 -17.421  0.00  0.00    +0.066 C 
ATOM      7  C   UNL     1      32.223 -23.423 -16.883  0.00  0.00    +0.011 C 
BRANCH   6   9
ATOM      8  F   UNL     1      36.796 -20.930 -20.194  0.00  0.00    -0.204 F 
ATOM      9  C   UNL     1      33.961 -22.360 -18.490  0.00  0.00    -0.015 C 
ATOM     10  C   UNL     1      35.266 -22.131 -18.854  0.00  0.00    +0.026 C 
ATOM     11  C   UNL     1      32.901 -21.681 -19.042  0.00  0.00    -0.004 C 
ATOM     12  C   UNL     1      34.475 -20.459 -20.408  0.00  0.00    +0.027 C 
ATOM     13  C   UNL     1      35.527 -21.166 -19.827  0.00  0.00    +0.140 C 
ATOM     14  C   UNL     1      33.161 -20.717 -20.015  0.00  0.00    +0.002 C 
BRANCH  12  15
ATOM     15  C   UNL     1      34.740 -19.459 -21.419  0.00  0.00    +0.002 C 
ATOM     16  C   UNL     1      34.728 -19.813 -22.769  0.00  0.00    +0.000 C 
ATOM     17  C   UNL     1      35.006 -18.142 -21.046  0.00  0.00    +0.000 C 
ATOM     18  C   UNL     1      34.982 -18.849 -23.744  0.00  0.00    +0.000 C 
ATOM     19  C   UNL     1      35.260 -17.178 -22.022  0.00  0.00    +0.000 C 
ATOM     20  C   UNL     1      35.249 -17.532 -23.371  0.00  0.00    +0.000 C 
ENDBRANCH  12  15
ENDBRANCH   6   9
ENDBRANCH   3   6
BRANCH   5  21
ATOM     21  N   UNL     1      36.281 -23.410 -13.233  0.00  0.00    -0.147 NA
BRANCH  21  29
ATOM     22  O   UNL     1      39.113 -27.139 -14.369  0.00  0.00    -0.350 OA
ATOM     23  N   UNL     1      37.289 -25.477 -13.044  0.00  0.00    -0.277 N 
ATOM     24  N   UNL     1      35.416 -25.168 -11.815  0.00  0.00    -0.373 N 
ATOM     25  C   UNL     1      37.083 -26.923 -13.060  0.00  0.00    +0.125 C 
ATOM     26  C   UNL     1      38.675 -25.049 -13.218  0.00  0.00    +0.125 C 
ATOM     27  C   UNL     1      37.734 -27.511 -14.306  0.00  0.00    +0.164 C 
ATOM     28  C   UNL     1      39.256 -25.719 -14.457  0.00  0.00    +0.164 C 
ATOM     29  C   UNL     1      36.305 -24.611 -12.712  0.00  0.00    +0.182 C 
ATOM     30  H   UNL     1      35.548 -26.091 -11.499  0.00  0.00    +0.158 HD
ATOM     31  H   UNL     1      34.649 -24.642 -11.491  0.00  0.00    +0.158 HD
ENDBRANCH  21  29
ENDBRANCH   5  21
TORSDOF 5
ENDMDL
MODEL 2
REMARK VINA RESULT:     -12.8      1.200      1.528
REMARK  Name = 9800765
REMARK  5 active torsions:
REMARK  status: ('A' for Active; 'I' for Inactive)
REMARK    1  A    between atoms: C_3  and  C_17
REMARK    2  A    between atoms: C_5  and  N_8
REMARK    3  A    between atoms: N_8  and  C_14
REMARK    4  A    between atoms: C_17  and  C_20
REMARK    5  A    between atoms: C_23  and  C_26
REMARK                            x       y       z     vdW  Elec       q    Type
REMARK                         _______ _______ _______ _____ _____    ______ ____
ROOT
ATOM      1  O   UNL     1      37.547 -21.557 -16.456  0.00  0.00    -0.337 OA
ATOM      2  N   UNL     1      36.829 -21.550 -17.645  0.00  0.00    -0.079 NA
ATOM      3  C   UNL     1      35.891 -22.489 -17.487  0.00  0.00    +0.106 C 
ATOM      4  C   UNL     1      35.969 -23.114 -16.231  0.00  0.00    +0.076 C 
ATOM      5  C   UNL     1      37.022 -22.490 -15.631  0.00  0.00    +0.252 C 
ENDROOT
BRANCH   3   6
ATOM      6  C   UNL     1      34.932 -22.758 -18.571  0.00  0.00    +0.066 C 
ATOM      7  C   UNL     1      33.534 -23.200 -18.072  0.00  0.00    +0.011 C 
BRANCH   6   9
ATOM      8  F   UNL     1      37.298 -19.387 -21.153  0.00  0.00    -0.204 F 
ATOM      9  C   UNL     1      34.928 -21.535 -19.494  0.00  0.00    -0.015 C 
ATOM     10  C   UNL     1      36.133 -21.018 -19.903  0.00  0.00    +0.026 C 
ATOM     11  C   UNL     1      33.718 -21.003 -19.875  0.00  0.00    -0.004 C 
ATOM     12  C   UNL     1      34.920 -19.341 -21.149  0.00  0.00    +0.027 C 
ATOM     13  C   UNL     1      36.130 -19.904 -20.744  0.00  0.00    +0.140 C 
ATOM     14  C   UNL     1      33.714 -19.890 -20.714  0.00  0.00    +0.002 C 
BRANCH  12  15
ATOM     15  C   UNL     1      34.911 -18.187 -22.022  0.00  0.00    +0.002 C 
ATOM     16  C   UNL     1      34.927 -18.361 -23.406  0.00  0.00    +0.000 C 
ATOM     17  C   UNL     1      34.885 -16.902 -21.480  0.00  0.00    +0.000 C 
ATOM     18  C   UNL     1      34.917 -17.249 -24.248  0.00  0.00    +0.000 C 
ATOM     19  C   UNL     1      34.875 -15.790 -22.323  0.00  0.00    +0.000 C 
ATOM     20  C   UNL     1      34.892 -15.963 -23.707  0.00  0.00    +0.000 C 
ENDBRANCH  12  15
ENDBRANCH   6   9
ENDBRANCH   3   6
BRANCH   5  21
ATOM     21  N   UNL     1      37.554 -22.693 -14.393  0.00  0.00    -0.147 NA
BRANCH  21  29
ATOM     22  O   UNL     1      38.551 -27.402 -14.166  0.00  0.00    -0.350 OA
ATOM     23  N   UNL     1      37.532 -24.857 -13.591  0.00  0.00    -0.277 N 
ATOM     24  N   UNL     1      35.885 -23.502 -12.841  0.00  0.00    -0.373 N 
ATOM     25  C   UNL     1      36.715 -26.043 -13.351  0.00  0.00    +0.125 C 
ATOM     26  C   UNL     1      38.974 -25.088 -13.577  0.00  0.00    +0.125 C 
ATOM     27  C   UNL     1      37.149 -27.155 -14.298  0.00  0.00    +0.164 C 
ATOM     28  C   UNL     1      39.309 -26.241 -14.514  0.00  0.00    +0.164 C 
ATOM     29  C   UNL     1      37.003 -23.614 -13.643  0.00  0.00    +0.182 C 
ATOM     30  H   UNL     1      35.570 -24.278 -12.323  0.00  0.00    +0.158 HD
ATOM     31  H   UNL     1      35.401 -22.646 -12.787  0.00  0.00    +0.158 HD
ENDBRANCH  21  29
ENDBRANCH   5  21
TORSDOF 5
ENDMDL
MODEL 3
REMARK VINA RESULT:     -12.3      1.081      1.529
REMARK  Name = 9800765
REMARK  5 active torsions:
REMARK  status: ('A' for Active; 'I' for Inactive)
REMARK    1  A    between atoms: C_3  and  C_17
REMARK    2  A    between atoms: C_5  and  N_8
REMARK    3  A    between atoms: N_8  and  C_14
REMARK    4  A    between atoms: C_17  and  C_20
REMARK    5  A    between atoms: C_23  and  C_26
REMARK                            x       y       z     vdW  Elec       q    Type
REMARK                         _______ _______ _______ _____ _____    ______ ____
ROOT
ATOM      1  O   UNL     1      35.064 -23.016 -14.170  0.00  0.00    -0.337 OA
ATOM      2  N   UNL     1      33.955 -23.216 -14.982  0.00  0.00    -0.079 NA
ATOM      3  C   UNL     1      34.446 -23.313 -16.221  0.00  0.00    +0.106 C 
ATOM      4  C   UNL     1      35.845 -23.184 -16.251  0.00  0.00    +0.076 C 
ATOM      5  C   UNL     1      36.175 -23.001 -14.941  0.00  0.00    +0.252 C 
ENDROOT
BRANCH   3   6
ATOM      6  C   UNL     1      33.536 -23.532 -17.356  0.00  0.00    +0.066 C 
ATOM      7  C   UNL     1      32.043 -23.616 -16.953  0.00  0.00    +0.011 C 
BRANCH   6   9
ATOM      8  F   UNL     1      36.740 -21.095 -20.079  0.00  0.00    -0.204 F 
ATOM      9  C   UNL     1      33.857 -22.471 -18.413  0.00  0.00    -0.015 C 
ATOM     10  C   UNL     1      35.170 -22.270 -18.763  0.00  0.00    +0.026 C 
ATOM     11  C   UNL     1      32.818 -21.761 -18.968  0.00  0.00    -0.004 C 
ATOM     12  C   UNL     1      34.433 -20.566 -20.309  0.00  0.00    +0.027 C 
ATOM     13  C   UNL     1      35.463 -21.304 -19.726  0.00  0.00    +0.140 C 
ATOM     14  C   UNL     1      33.111 -20.794 -19.930  0.00  0.00    +0.002 C 
BRANCH  12  15
ATOM     15  C   UNL     1      34.732 -19.563 -21.309  0.00  0.00    +0.002 C 
ATOM     16  C   UNL     1      35.018 -18.254 -20.918  0.00  0.00    +0.000 C 
ATOM     17  C   UNL     1      34.735 -19.905 -22.661  0.00  0.00    +0.000 C 
ATOM     18  C   UNL     1      35.306 -17.288 -21.881  0.00  0.00    +0.000 C 
ATOM     19  C   UNL     1      35.023 -18.937 -23.623  0.00  0.00    +0.000 C 
ATOM     20  C   UNL     1      35.309 -17.628 -23.234  0.00  0.00    +0.000 C 
ENDBRANCH  12  15
ENDBRANCH   6   9
ENDBRANCH   3   6
BRANCH   5  21
ATOM     21  N   UNL     1      37.402 -22.819 -14.378  0.00  0.00    -0.147 NA
BRANCH  21  29
ATOM     22  O   UNL     1      38.002 -27.525 -13.533  0.00  0.00    -0.350 OA
ATOM     23  N   UNL     1      37.952 -24.742 -13.226  0.00  0.00    -0.277 N 
ATOM     24  N   UNL     1      37.624 -22.889 -11.971  0.00  0.00    -0.373 N 
ATOM     25  C   UNL     1      37.614 -25.608 -12.100  0.00  0.00    +0.125 C 
ATOM     26  C   UNL     1      38.814 -25.350 -14.236  0.00  0.00    +0.125 C 
ATOM     27  C   UNL     1      37.071 -26.931 -12.627  0.00  0.00    +0.164 C 
ATOM     28  C   UNL     1      38.218 -26.684 -14.669  0.00  0.00    +0.164 C 
ATOM     29  C   UNL     1      37.642 -23.426 -13.242  0.00  0.00    +0.182 C 
ATOM     30  H   UNL     1      37.823 -23.459 -11.193  0.00  0.00    +0.158 HD
ATOM     31  H   UNL     1      37.411 -21.937 -11.841  0.00  0.00    +0.158 HD
ENDBRANCH  21  29
ENDBRANCH   5  21
TORSDOF 5
ENDMDL
MODEL 4
REMARK VINA RESULT:     -12.3      1.830      2.692
REMARK  Name = 9800765
REMARK  5 active torsions:
REMARK  status: ('A' for Active; 'I' for Inactive)
REMARK    1  A    between atoms: C_3  and  C_17
REMARK    2  A    between atoms: C_5  and  N_8
REMARK    3  A    between atoms: N_8  and  C_14
REMARK    4  A    between atoms: C_17  and  C_20
REMARK    5  A    between atoms: C_23  and  C_26
REMARK                            x       y       z     vdW  Elec       q    Type
REMARK                         _______ _______ _______ _____ _____    ______ ____
ROOT
ATOM      1  O   UNL     1      37.521 -21.504 -16.740  0.00  0.00    -0.337 OA
ATOM      2  N   UNL     1      36.994 -21.432 -18.023  0.00  0.00    -0.079 NA
ATOM      3  C   UNL     1      35.997 -22.321 -18.038  0.00  0.00    +0.106 C 
ATOM      4  C   UNL     1      35.850 -22.977 -16.804  0.00  0.00    +0.076 C 
ATOM      5  C   UNL     1      36.829 -22.425 -16.033  0.00  0.00    +0.252 C 
ENDROOT
BRANCH   3   6
ATOM      6  C   UNL     1      35.202 -22.512 -19.262  0.00  0.00    +0.066 C 
ATOM      7  C   UNL     1      33.839 -23.206 -19.019  0.00  0.00    +0.011 C 
BRANCH   6   9
ATOM      8  F   UNL     1      37.332 -18.719 -21.430  0.00  0.00    -0.204 F 
ATOM      9  C   UNL     1      35.116 -21.156 -19.970  0.00  0.00    -0.015 C 
ATOM     10  C   UNL     1      36.281 -20.555 -20.379  0.00  0.00    +0.026 C 
ATOM     11  C   UNL     1      33.876 -20.595 -20.166  0.00  0.00    -0.004 C 
ATOM     12  C   UNL     1      34.961 -18.724 -21.239  0.00  0.00    +0.027 C 
ATOM     13  C   UNL     1      36.203 -19.320 -21.024  0.00  0.00    +0.140 C 
ATOM     14  C   UNL     1      33.798 -19.361 -20.810  0.00  0.00    +0.002 C 
BRANCH  12  15
ATOM     15  C   UNL     1      34.875 -17.444 -21.909  0.00  0.00    +0.002 C 
ATOM     16  C   UNL     1      35.039 -17.369 -23.293  0.00  0.00    +0.000 C 
ATOM     17  C   UNL     1      34.627 -16.286 -21.172  0.00  0.00    +0.000 C 
ATOM     18  C   UNL     1      34.954 -16.136 -23.939  0.00  0.00    +0.000 C 
ATOM     19  C   UNL     1      34.542 -15.053 -21.820  0.00  0.00    +0.000 C 
ATOM     20  C   UNL     1      34.707 -14.977 -23.203  0.00  0.00    +0.000 C 
ENDBRANCH  12  15
ENDBRANCH   6   9
ENDBRANCH   3   6
BRANCH   5  21
ATOM     21  N   UNL     1      37.155 -22.685 -14.735  0.00  0.00    -0.147 NA
BRANCH  21  29
ATOM     22  O   UNL     1      35.709 -25.594 -11.176  0.00  0.00    -0.350 OA
ATOM     23  N   UNL     1      36.918 -24.626 -13.510  0.00  0.00    -0.277 N 
ATOM     24  N   UNL     1      38.629 -24.585 -14.988  0.00  0.00    -0.373 N 
ATOM     25  C   UNL     1      37.603 -25.623 -12.691  0.00  0.00    +0.125 C 
ATOM     26  C   UNL     1      35.463 -24.615 -13.382  0.00  0.00    +0.125 C 
ATOM     27  C   UNL     1      37.133 -25.497 -11.246  0.00  0.00    +0.164 C 
ATOM     28  C   UNL     1      35.088 -24.533 -11.907  0.00  0.00    +0.164 C 
ATOM     29  C   UNL     1      37.564 -23.895 -14.446  0.00  0.00    +0.182 C 
ATOM     30  H   UNL     1      38.833 -25.498 -14.679  0.00  0.00    +0.158 HD
ATOM     31  H   UNL     1      39.186 -24.166 -15.683  0.00  0.00    +0.158 HD
ENDBRANCH  21  29
ENDBRANCH   5  21
TORSDOF 5
ENDMDL
MODEL 5
REMARK VINA RESULT:     -11.8     10.527     14.192
REMARK  Name = 9800765
REMARK  5 active torsions:
REMARK  status: ('A' for Active; 'I' for Inactive)
REMARK    1  A    between atoms: C_3  and  C_17
REMARK    2  A    between atoms: C_5  and  N_8
REMARK    3  A    between atoms: N_8  and  C_14
REMARK    4  A    between atoms: C_17  and  C_20
REMARK    5  A    between atoms: C_23  and  C_26
REMARK                            x       y       z     vdW  Elec       q    Type
REMARK                         _______ _______ _______ _____ _____    ______ ____
ROOT
ATOM      1  O   UNL     1      31.859 -13.213 -20.270  0.00  0.00    -0.337 OA
ATOM      2  N   UNL     1      31.607 -12.081 -19.505  0.00  0.00    -0.079 NA
ATOM      3  C   UNL     1      31.708 -11.057 -20.358  0.00  0.00    +0.106 C 
ATOM      4  C   UNL     1      32.018 -11.479 -21.662  0.00  0.00    +0.076 C 
ATOM      5  C   UNL     1      32.100 -12.835 -21.546  0.00  0.00    +0.252 C 
ENDROOT
BRANCH   3   6
ATOM      6  C   UNL     1      31.497  -9.681 -19.881  0.00  0.00    +0.066 C 
ATOM      7  C   UNL     1      32.133  -9.395 -18.498  0.00  0.00    +0.011 C 
BRANCH   6   9
ATOM      8  F   UNL     1      30.881  -7.759 -24.303  0.00  0.00    -0.204 F 
ATOM      9  C   UNL     1      31.942  -8.735 -21.001  0.00  0.00    -0.015 C 
ATOM     10  C   UNL     1      31.195  -8.683 -22.153  0.00  0.00    +0.026 C 
ATOM     11  C   UNL     1      33.073  -7.976 -20.809  0.00  0.00    -0.004 C 
ATOM     12  C   UNL     1      32.741  -7.038 -23.010  0.00  0.00    +0.027 C 
ATOM     13  C   UNL     1      31.600  -7.821 -23.172  0.00  0.00    +0.140 C 
ATOM     14  C   UNL     1      33.478  -7.115 -21.828  0.00  0.00    +0.002 C 
BRANCH  12  15
ATOM     15  C   UNL     1      33.165  -6.141 -24.064  0.00  0.00    +0.002 C 
ATOM     16  C   UNL     1      34.337  -6.405 -24.773  0.00  0.00    +0.000 C 
ATOM     17  C   UNL     1      32.402  -5.015 -24.371  0.00  0.00    +0.000 C 
ATOM     18  C   UNL     1      34.746  -5.543 -25.790  0.00  0.00    +0.000 C 
ATOM     19  C   UNL     1      32.811  -4.152 -25.388  0.00  0.00    +0.000 C 
ATOM     20  C   UNL     1      33.984  -4.415 -26.098  0.00  0.00    +0.000 C 
ENDBRANCH  12  15
ENDBRANCH   6   9
ENDBRANCH   3   6
BRANCH   5  21
ATOM     21  N   UNL     1      32.376 -13.767 -22.501  0.00  0.00    -0.147 NA
BRANCH  21  29
ATOM     22  O   UNL     1      34.367 -16.699 -25.765  0.00  0.00    -0.350 OA
ATOM     23  N   UNL     1      34.024 -14.931 -23.620  0.00  0.00    -0.277 N 
ATOM     24  N   UNL     1      34.556 -14.198 -21.548  0.00  0.00    -0.373 N 
ATOM     25  C   UNL     1      35.010 -16.005 -23.532  0.00  0.00    +0.125 C 
ATOM     26  C   UNL     1      33.694 -14.506 -24.977  0.00  0.00    +0.125 C 
ATOM     27  C   UNL     1      34.579 -17.160 -24.428  0.00  0.00    +0.164 C 
ATOM     28  C   UNL     1      33.321 -15.726 -25.810  0.00  0.00    +0.164 C 
ATOM     29  C   UNL     1      33.588 -14.261 -22.529  0.00  0.00    +0.182 C 
ATOM     30  H   UNL     1      35.436 -14.616 -21.695  0.00  0.00    +0.158 HD
ATOM     31  H   UNL     1      34.367 -13.737 -20.699  0.00  0.00    +0.158 HD
ENDBRANCH  21  29
ENDBRANCH   5  21
TORSDOF 5
ENDMDL
MODEL 6
REMARK VINA RESULT:     -11.7      3.957      7.008
REMARK  Name = 9800765
REMARK  5 active torsions:
REMARK  status: ('A' for Active; 'I' for Inactive)
REMARK    1  A    between atoms: C_3  and  C_17
REMARK    2  A    between atoms: C_5  and  N_8
REMARK    3  A    between atoms: N_8  and  C_14
REMARK    4  A    between atoms: C_17  and  C_20
REMARK    5  A    between atoms: C_23  and  C_26
REMARK                            x       y       z     vdW  Elec       q    Type
REMARK                         _______ _______ _______ _____ _____    ______ ____
ROOT
ATOM      1  O   UNL     1      36.342 -19.890 -20.042  0.00  0.00    -0.337 OA
ATOM      2  N   UNL     1      36.628 -18.898 -20.972  0.00  0.00    -0.079 NA
ATOM      3  C   UNL     1      35.545 -18.833 -21.752  0.00  0.00    +0.106 C 
ATOM      4  C   UNL     1      34.553 -19.751 -21.366  0.00  0.00    +0.076 C 
ATOM      5  C   UNL     1      35.108 -20.383 -20.292  0.00  0.00    +0.252 C 
ENDROOT
BRANCH   3   6
ATOM      6  C   UNL     1      35.498 -17.871 -22.865  0.00  0.00    +0.066 C 
ATOM      7  C   UNL     1      34.986 -18.477 -24.194  0.00  0.00    +0.011 C 
BRANCH   6   9
ATOM      8  F   UNL     1      33.008 -13.795 -23.768  0.00  0.00    -0.204 F 
ATOM      9  C   UNL     1      34.720 -16.644 -22.377  0.00  0.00    -0.015 C 
ATOM     10  C   UNL     1      34.216 -15.772 -23.312  0.00  0.00    +0.026 C 
ATOM     11  C   UNL     1      34.559 -16.463 -21.023  0.00  0.00    -0.004 C 
ATOM     12  C   UNL     1      33.326 -14.443 -21.502  0.00  0.00    +0.027 C 
ATOM     13  C   UNL     1      33.507 -14.656 -22.868  0.00  0.00    +0.140 C 
ATOM     14  C   UNL     1      33.852 -15.347 -20.580  0.00  0.00    +0.002 C 
BRANCH  12  15
ATOM     15  C   UNL     1      32.591 -13.286 -21.037  0.00  0.00    +0.002 C 
ATOM     16  C   UNL     1      32.250 -12.272 -21.932  0.00  0.00    +0.000 C 
ATOM     17  C   UNL     1      32.222 -13.186 -19.696  0.00  0.00    +0.000 C 
ATOM     18  C   UNL     1      31.540 -11.158 -21.485  0.00  0.00    +0.000 C 
ATOM     19  C   UNL     1      31.513 -12.071 -19.249  0.00  0.00    +0.000 C 
ATOM     20  C   UNL     1      31.172 -11.056 -20.143  0.00  0.00    +0.000 C 
ENDBRANCH  12  15
ENDBRANCH   6   9
ENDBRANCH   3   6
BRANCH   5  21
ATOM     21  N   UNL     1      34.591 -21.374 -19.513  0.00  0.00    -0.147 NA
BRANCH  21  29
ATOM     22  O   UNL     1      33.641 -23.854 -15.492  0.00  0.00    -0.350 OA
ATOM     23  N   UNL     1      34.944 -22.808 -17.740  0.00  0.00    -0.277 N 
ATOM     24  N   UNL     1      36.798 -22.032 -18.777  0.00  0.00    -0.373 N 
ATOM     25  C   UNL     1      35.687 -23.031 -16.502  0.00  0.00    +0.125 C 
ATOM     26  C   UNL     1      33.756 -23.641 -17.906  0.00  0.00    +0.125 C 
ATOM     27  C   UNL     1      34.730 -22.945 -15.319  0.00  0.00    +0.164 C 
ATOM     28  C   UNL     1      32.885 -23.528 -16.661  0.00  0.00    +0.164 C 
ATOM     29  C   UNL     1      35.419 -22.024 -18.735  0.00  0.00    +0.182 C 
ATOM     30  H   UNL     1      37.308 -22.568 -18.127  0.00  0.00    +0.158 HD
ATOM     31  H   UNL     1      37.273 -21.500 -19.456  0.00  0.00    +0.158 HD
ENDBRANCH  21  29
ENDBRANCH   5  21
TORSDOF 5
ENDMDL
MODEL 7
REMARK VINA RESULT:     -11.5      3.480      6.673
REMARK  Name = 9800765
REMARK  5 active torsions:
REMARK  status: ('A' for Active; 'I' for Inactive)
REMARK    1  A    between atoms: C_3  and  C_17
REMARK    2  A    between atoms: C_5  and  N_8
REMARK    3  A    between atoms: N_8  and  C_14
REMARK    4  A    between atoms: C_17  and  C_20
REMARK    5  A    between atoms: C_23  and  C_26
REMARK                            x       y       z     vdW  Elec       q    Type
REMARK                         _______ _______ _______ _____ _____    ______ ____
ROOT
ATOM      1  O   UNL     1      36.209 -19.960 -19.996  0.00  0.00    -0.337 OA
ATOM      2  N   UNL     1      36.539 -19.236 -21.136  0.00  0.00    -0.079 NA
ATOM      3  C   UNL     1      35.510 -19.416 -21.969  0.00  0.00    +0.106 C 
ATOM      4  C   UNL     1      34.512 -20.236 -21.414  0.00  0.00    +0.076 C 
ATOM      5  C   UNL     1      35.005 -20.545 -20.181  0.00  0.00    +0.252 C 
ENDROOT
BRANCH   3   6
ATOM      6  C   UNL     1      35.520 -18.781 -23.296  0.00  0.00    +0.066 C 
ATOM      7  C   UNL     1      34.829 -19.622 -24.397  0.00  0.00    +0.011 C 
BRANCH   6   9
ATOM      8  F   UNL     1      34.410 -14.964 -20.498  0.00  0.00    -0.204 F 
ATOM      9  C   UNL     1      34.966 -17.362 -23.129  0.00  0.00    -0.015 C 
ATOM     10  C   UNL     1      34.943 -16.810 -21.871  0.00  0.00    +0.026 C 
ATOM     11  C   UNL     1      34.512 -16.698 -24.245  0.00  0.00    -0.004 C 
ATOM     12  C   UNL     1      33.971 -14.817 -22.830  0.00  0.00    +0.027 C 
ATOM     13  C   UNL     1      34.439 -15.518 -21.719  0.00  0.00    +0.140 C 
ATOM     14  C   UNL     1      34.007 -15.408 -24.093  0.00  0.00    +0.002 C 
BRANCH  12  15
ATOM     15  C   UNL     1      33.447 -13.477 -22.678  0.00  0.00    +0.002 C 
ATOM     16  C   UNL     1      33.957 -12.438 -23.458  0.00  0.00    +0.000 C 
ATOM     17  C   UNL     1      32.435 -13.223 -21.753  0.00  0.00    +0.000 C 
ATOM     18  C   UNL     1      33.453 -11.146 -23.313  0.00  0.00    +0.000 C 
ATOM     19  C   UNL     1      31.931 -11.931 -21.609  0.00  0.00    +0.000 C 
ATOM     20  C   UNL     1      32.440 -10.891 -22.387  0.00  0.00    +0.000 C 
ENDBRANCH  12  15
ENDBRANCH   6   9
ENDBRANCH   3   6
BRANCH   5  21
ATOM     21  N   UNL     1      34.455 -21.316 -19.201  0.00  0.00    -0.147 NA
BRANCH  21  29
ATOM     22  O   UNL     1      33.479 -23.945 -15.283  0.00  0.00    -0.350 OA
ATOM     23  N   UNL     1      34.781 -22.849 -17.507  0.00  0.00    -0.277 N 
ATOM     24  N   UNL     1      36.645 -22.104 -18.548  0.00  0.00    -0.373 N 
ATOM     25  C   UNL     1      35.538 -23.164 -16.299  0.00  0.00    +0.125 C 
ATOM     26  C   UNL     1      33.553 -23.619 -17.685  0.00  0.00    +0.125 C 
ATOM     27  C   UNL     1      34.611 -23.094 -15.091  0.00  0.00    +0.164 C 
ATOM     28  C   UNL     1      32.714 -23.530 -16.417  0.00  0.00    +0.164 C 
ATOM     29  C   UNL     1      35.269 -22.039 -18.474  0.00  0.00    +0.182 C 
ATOM     30  H   UNL     1      37.144 -22.693 -17.936  0.00  0.00    +0.158 HD
ATOM     31  H   UNL     1      37.130 -21.562 -19.212  0.00  0.00    +0.158 HD
ENDBRANCH  21  29
ENDBRANCH   5  21
TORSDOF 5
ENDMDL
MODEL 8
REMARK VINA RESULT:     -11.1      3.555      6.373
REMARK  Name = 9800765
REMARK  5 active torsions:
REMARK  status: ('A' for Active; 'I' for Inactive)
REMARK    1  A    between atoms: C_3  and  C_17
REMARK    2  A    between atoms: C_5  and  N_8
REMARK    3  A    between atoms: N_8  and  C_14
REMARK    4  A    between atoms: C_17  and  C_20
REMARK    5  A    between atoms: C_23  and  C_26
REMARK                            x       y       z     vdW  Elec       q    Type
REMARK                         _______ _______ _______ _____ _____    ______ ____
ROOT
ATOM      1  O   UNL     1      32.490 -20.743 -20.698  0.00  0.00    -0.337 OA
ATOM      2  N   UNL     1      33.252 -19.961 -21.557  0.00  0.00    -0.079 NA
ATOM      3  C   UNL     1      34.474 -19.944 -21.017  0.00  0.00    +0.106 C 
ATOM      4  C   UNL     1      34.542 -20.691 -19.828  0.00  0.00    +0.076 C 
ATOM      5  C   UNL     1      33.273 -21.167 -19.680  0.00  0.00    +0.252 C 
ENDROOT
BRANCH   3   6
ATOM      6  C   UNL     1      35.557 -19.196 -21.675  0.00  0.00    +0.066 C 
ATOM      7  C   UNL     1      36.109 -19.886 -22.947  0.00  0.00    +0.011 C 
BRANCH   6   9
ATOM      8  F   UNL     1      33.951 -14.962 -19.909  0.00  0.00    -0.204 F 
ATOM      9  C   UNL     1      35.061 -17.762 -21.887  0.00  0.00    -0.015 C 
ATOM     10  C   UNL     1      34.730 -17.013 -20.783  0.00  0.00    +0.026 C 
ATOM     11  C   UNL     1      34.967 -17.282 -23.172  0.00  0.00    -0.004 C 
ATOM     12  C   UNL     1      34.172 -15.189 -22.266  0.00  0.00    +0.027 C 
ATOM     13  C   UNL     1      34.279 -15.707 -20.976  0.00  0.00    +0.140 C 
ATOM     14  C   UNL     1      34.516 -15.977 -23.364  0.00  0.00    +0.002 C 
BRANCH  12  15
ATOM     15  C   UNL     1      33.706 -13.835 -22.471  0.00  0.00    +0.002 C 
ATOM     16  C   UNL     1      34.278 -13.045 -23.469  0.00  0.00    +0.000 C 
ATOM     17  C   UNL     1      32.686 -13.319 -21.672  0.00  0.00    +0.000 C 
ATOM     18  C   UNL     1      33.828 -11.740 -23.668  0.00  0.00    +0.000 C 
ATOM     19  C   UNL     1      32.237 -12.013 -21.871  0.00  0.00    +0.000 C 
ATOM     20  C   UNL     1      32.809 -11.223 -22.869  0.00  0.00    +0.000 C 
ENDBRANCH  12  15
ENDBRANCH   6   9
ENDBRANCH   3   6
BRANCH   5  21
ATOM     21  N   UNL     1      32.757 -21.956 -18.696  0.00  0.00    -0.147 NA
BRANCH  21  29
ATOM     22  O   UNL     1      33.041 -23.748 -14.232  0.00  0.00    -0.350 OA
ATOM     23  N   UNL     1      33.325 -23.412 -16.998  0.00  0.00    -0.277 N 
ATOM     24  N   UNL     1      34.526 -23.591 -18.906  0.00  0.00    -0.373 N 
ATOM     25  C   UNL     1      34.420 -23.977 -16.214  0.00  0.00    +0.125 C 
ATOM     26  C   UNL     1      31.997 -23.580 -16.415  0.00  0.00    +0.125 C 
ATOM     27  C   UNL     1      34.330 -23.466 -14.781  0.00  0.00    +0.164 C 
ATOM     28  C   UNL     1      32.014 -23.086 -14.974  0.00  0.00    +0.164 C 
ATOM     29  C   UNL     1      33.507 -22.932 -18.249  0.00  0.00    +0.182 C 
ATOM     30  H   UNL     1      35.018 -24.314 -18.453  0.00  0.00    +0.158 HD
ATOM     31  H   UNL     1      34.763 -23.338 -19.828  0.00  0.00    +0.158 HD
ENDBRANCH  21  29
ENDBRANCH   5  21
TORSDOF 5
ENDMDL
MODEL 9
REMARK VINA RESULT:     -11.0      8.212     13.349
REMARK  Name = 9800765
REMARK  5 active torsions:
REMARK  status: ('A' for Active; 'I' for Inactive)
REMARK    1  A    between atoms: C_3  and  C_17
REMARK    2  A    between atoms: C_5  and  N_8
REMARK    3  A    between atoms: N_8  and  C_14
REMARK    4  A    between atoms: C_17  and  C_20
REMARK    5  A    between atoms: C_23  and  C_26
REMARK                            x       y       z     vdW  Elec       q    Type
REMARK                         _______ _______ _______ _____ _____    ______ ____
ROOT
ATOM      1  O   UNL     1      31.387 -12.582 -20.665  0.00  0.00    -0.337 OA
ATOM      2  N   UNL     1      31.979 -13.518 -21.504  0.00  0.00    -0.079 NA
ATOM      3  C   UNL     1      32.613 -12.797 -22.434  0.00  0.00    +0.106 C 
ATOM      4  C   UNL     1      32.457 -11.414 -22.233  0.00  0.00    +0.076 C 
ATOM      5  C   UNL     1      31.682 -11.342 -21.114  0.00  0.00    +0.252 C 
ENDROOT
BRANCH   3   6
ATOM      6  C   UNL     1      33.363 -13.474 -23.503  0.00  0.00    +0.066 C 
ATOM      7  C   UNL     1      34.414 -12.573 -24.196  0.00  0.00    +0.011 C 
BRANCH   6   9
ATOM      8  F   UNL     1      35.014 -18.010 -24.073  0.00  0.00    -0.204 F 
ATOM      9  C   UNL     1      33.918 -14.777 -22.920  0.00  0.00    -0.015 C 
ATOM     10  C   UNL     1      34.214 -15.808 -23.779  0.00  0.00    +0.026 C 
ATOM     11  C   UNL     1      34.098 -14.864 -21.559  0.00  0.00    -0.004 C 
ATOM     12  C   UNL     1      34.915 -17.115 -21.872  0.00  0.00    +0.027 C 
ATOM     13  C   UNL     1      34.720 -16.994 -23.248  0.00  0.00    +0.140 C 
ATOM     14  C   UNL     1      34.604 -16.050 -21.028  0.00  0.00    +0.002 C 
BRANCH  12  15
ATOM     15  C   UNL     1      35.441 -18.343 -21.317  0.00  0.00    +0.002 C 
ATOM     16  C   UNL     1      36.815 -18.486 -21.121  0.00  0.00    +0.000 C 
ATOM     17  C   UNL     1      34.575 -19.382 -20.975  0.00  0.00    +0.000 C 
ATOM     18  C   UNL     1      37.323 -19.669 -20.585  0.00  0.00    +0.000 C 
ATOM     19  C   UNL     1      35.084 -20.565 -20.438  0.00  0.00    +0.000 C 
ATOM     20  C   UNL     1      36.458 -20.710 -20.244  0.00  0.00    +0.000 C 
ENDBRANCH  12  15
ENDBRANCH   6   9
ENDBRANCH   3   6
BRANCH   5  21
ATOM     21  N   UNL     1      31.215 -10.242 -20.458  0.00  0.00    -0.147 NA
BRANCH  21  29
ATOM     22  O   UNL     1      32.638  -6.933 -23.658  0.00  0.00    -0.350 OA
ATOM     23  N   UNL     1      32.190  -8.311 -21.262  0.00  0.00    -0.277 N 
ATOM     24  N   UNL     1      32.844  -8.973 -19.201  0.00  0.00    -0.373 N 
ATOM     25  C   UNL     1      33.444  -7.592 -21.468  0.00  0.00    +0.125 C 
ATOM     26  C   UNL     1      31.059  -7.817 -22.043  0.00  0.00    +0.125 C 
ATOM     27  C   UNL     1      33.741  -7.515 -22.961  0.00  0.00    +0.164 C 
ATOM     28  C   UNL     1      31.461  -7.730 -23.511  0.00  0.00    +0.164 C 
ATOM     29  C   UNL     1      32.043  -9.241 -20.292  0.00  0.00    +0.182 C 
ATOM     30  H   UNL     1      33.428  -8.180 -19.202  0.00  0.00    +0.158 HD
ATOM     31  H   UNL     1      32.834  -9.575 -18.422  0.00  0.00    +0.158 HD
ENDBRANCH  21  29
ENDBRANCH   5  21
TORSDOF 5
ENDMDL
