MODEL 1
REMARK VINA RESULT:     -11.9      0.000      0.000
REMARK  Name = 6914614
REMARK  7 active torsions:
REMARK  status: ('A' for Active; 'I' for Inactive)
REMARK    1  A    between atoms: O_1  and  C_4
REMARK    2  A    between atoms: O_1  and  C_18
REMARK    3  A    between atoms: C_9  and  C_13
REMARK    4  A    between atoms: C_18  and  C_19
REMARK    5  A    between atoms: C_19  and  N_20
REMARK    6  A    between atoms: C_19  and  C_24
REMARK    7  A    between atoms: C_24  and  C_26
REMARK                            x       y       z     vdW  Elec       q    Type
REMARK                         _______ _______ _______ _____ _____    ______ ____
ROOT
ATOM      1  O   UNL     1      36.067 -21.014 -19.568  0.00  0.00    -0.476 OA
ENDROOT
BRANCH   1   4
ATOM      2  N   UNL     1      35.178 -23.765 -15.700  0.00  0.00    -0.404 NA
ATOM      3  N   UNL     1      33.064 -22.741 -18.494  0.00  0.00    -0.258 NA
ATOM      4  C   UNL     1      35.254 -21.785 -18.797  0.00  0.00    +0.159 C 
ATOM      5  C   UNL     1      35.691 -22.383 -17.608  0.00  0.00    +0.063 C 
ATOM      6  C   UNL     1      34.807 -23.169 -16.850  0.00  0.00    +0.136 C 
ATOM      7  C   UNL     1      37.000 -22.223 -17.136  0.00  0.00    +0.008 C 
ATOM      8  C   UNL     1      33.944 -21.994 -19.190  0.00  0.00    +0.130 C 
ATOM      9  C   UNL     1      36.451 -23.587 -15.278  0.00  0.00    +0.131 C 
ATOM     10  C   UNL     1      37.392 -22.834 -15.952  0.00  0.00    +0.032 C 
ATOM     11  C   UNL     1      33.522 -23.301 -17.350  0.00  0.00    +0.184 C 
BRANCH   9  13
ATOM     12  N   UNL     1      37.412 -25.546 -11.640  0.00  0.00    -0.242 NA
ATOM     13  C   UNL     1      36.779 -24.254 -14.040  0.00  0.00    +0.033 C 
ATOM     14  C   UNL     1      36.760 -25.643 -13.967  0.00  0.00    +0.023 C 
ATOM     15  C   UNL     1      37.113 -23.511 -12.911  0.00  0.00    +0.023 C 
ATOM     16  C   UNL     1      37.082 -26.236 -12.756  0.00  0.00    +0.099 C 
ATOM     17  C   UNL     1      37.419 -24.199 -11.747  0.00  0.00    +0.099 C 
ENDBRANCH   9  13
ENDBRANCH   1   4
BRANCH   1  18
ATOM     18  C   UNL     1      35.470 -20.348 -20.681  0.00  0.00    +0.184 C 
BRANCH  18  19
ATOM     19  C   UNL     1      36.157 -19.009 -20.978  0.00  0.00    -0.017 C 
BRANCH  19  20
ATOM     20  N   UNL     1      37.610 -19.199 -20.895  0.00  0.00    +0.384 N 
ATOM     21  H   UNL     1      38.054 -18.785 -21.716  0.00  0.00    -0.089 HD
ATOM     22  H   UNL     1      37.821 -20.195 -20.860  0.00  0.00    -0.089 HD
ATOM     23  H   UNL     1      37.965 -18.746 -20.053  0.00  0.00    -0.089 HD
ENDBRANCH  19  20
BRANCH  19  24
ATOM     24  C   UNL     1      35.817 -18.423 -22.362  0.00  0.00    +0.009 C 
BRANCH  24  26
ATOM     25  N   UNL     1      34.192 -15.266 -21.515  0.00  0.00    -0.312 N 
ATOM     26  C   UNL     1      35.099 -17.105 -22.297  0.00  0.00    -0.008 C 
ATOM     27  C   UNL     1      34.562 -16.407 -23.395  0.00  0.00    +0.011 C 
ATOM     28  C   UNL     1      33.991 -15.243 -22.876  0.00  0.00    +0.048 C 
ATOM     29  C   UNL     1      34.869 -16.400 -21.156  0.00  0.00    +0.058 C 
ATOM     30  C   UNL     1      34.495 -16.634 -24.785  0.00  0.00    +0.001 C 
ATOM     31  C   UNL     1      33.355 -14.290 -23.680  0.00  0.00    +0.015 C 
ATOM     32  C   UNL     1      33.861 -15.690 -25.601  0.00  0.00    +0.000 C 
ATOM     33  C   UNL     1      33.300 -14.537 -25.055  0.00  0.00    +0.001 C 
ATOM     34  H   UNL     1      33.893 -14.567 -20.890  0.00  0.00    +0.152 HD
ENDBRANCH  24  26
ENDBRANCH  19  24
ENDBRANCH  18  19
ENDBRANCH   1  18
TORSDOF 7
ENDMDL
MODEL 2
REMARK VINA RESULT:     -11.7      2.864     10.675
REMARK  Name = 6914614
REMARK  7 active torsions:
REMARK  status: ('A' for Active; 'I' for Inactive)
REMARK    1  A    between atoms: O_1  and  C_4
REMARK    2  A    between atoms: O_1  and  C_18
REMARK    3  A    between atoms: C_9  and  C_13
REMARK    4  A    between atoms: C_18  and  C_19
REMARK    5  A    between atoms: C_19  and  N_20
REMARK    6  A    between atoms: C_19  and  C_24
REMARK    7  A    between atoms: C_24  and  C_26
REMARK                            x       y       z     vdW  Elec       q    Type
REMARK                         _______ _______ _______ _____ _____    ______ ____
ROOT
ATOM      1  O   UNL     1      35.677 -17.702 -23.198  0.00  0.00    -0.476 OA
ENDROOT
BRANCH   1   4
ATOM      2  N   UNL     1      32.854 -13.787 -23.052  0.00  0.00    -0.404 NA
ATOM      3  N   UNL     1      33.886 -15.940 -25.814  0.00  0.00    -0.258 NA
ATOM      4  C   UNL     1      34.881 -16.766 -23.782  0.00  0.00    +0.159 C 
ATOM      5  C   UNL     1      34.273 -15.737 -23.053  0.00  0.00    +0.063 C 
ATOM      6  C   UNL     1      33.461 -14.796 -23.708  0.00  0.00    +0.136 C 
ATOM      7  C   UNL     1      34.446 -15.606 -21.668  0.00  0.00    +0.008 C 
ATOM      8  C   UNL     1      34.657 -16.821 -25.146  0.00  0.00    +0.130 C 
ATOM      9  C   UNL     1      33.046 -13.695 -21.716  0.00  0.00    +0.131 C 
ATOM     10  C   UNL     1      33.824 -14.570 -20.984  0.00  0.00    +0.032 C 
ATOM     11  C   UNL     1      33.315 -14.959 -25.075  0.00  0.00    +0.184 C 
BRANCH   9  13
ATOM     12  N   UNL     1      31.049 -10.453 -19.847  0.00  0.00    -0.242 NA
ATOM     13  C   UNL     1      32.366 -12.592 -21.080  0.00  0.00    +0.033 C 
ATOM     14  C   UNL     1      32.160 -11.403 -21.773  0.00  0.00    +0.023 C 
ATOM     15  C   UNL     1      31.913 -12.710 -19.769  0.00  0.00    +0.023 C 
ATOM     16  C   UNL     1      31.502 -10.374 -21.118  0.00  0.00    +0.099 C 
ATOM     17  C   UNL     1      31.267 -11.622 -19.204  0.00  0.00    +0.099 C 
ENDBRANCH   9  13
ENDBRANCH   1   4
BRANCH   1  18
ATOM     18  C   UNL     1      35.081 -18.962 -22.890  0.00  0.00    +0.184 C 
BRANCH  18  19
ATOM     19  C   UNL     1      35.593 -19.523 -21.557  0.00  0.00    -0.017 C 
BRANCH  19  20
ATOM     20  N   UNL     1      35.806 -18.406 -20.630  0.00  0.00    +0.384 N 
ATOM     21  H   UNL     1      35.412 -17.553 -21.028  0.00  0.00    -0.089 HD
ATOM     22  H   UNL     1      36.806 -18.278 -20.476  0.00  0.00    -0.089 HD
ATOM     23  H   UNL     1      35.348 -18.609 -19.741  0.00  0.00    -0.089 HD
ENDBRANCH  19  20
BRANCH  19  24
ATOM     24  C   UNL     1      34.638 -20.534 -20.894  0.00  0.00    +0.009 C 
BRANCH  24  26
ATOM     25  N   UNL     1      36.716 -22.040 -18.297  0.00  0.00    -0.312 N 
ATOM     26  C   UNL     1      35.242 -21.252 -19.720  0.00  0.00    -0.008 C 
ATOM     27  C   UNL     1      34.533 -21.981 -18.748  0.00  0.00    +0.011 C 
ATOM     28  C   UNL     1      35.486 -22.473 -17.854  0.00  0.00    +0.048 C 
ATOM     29  C   UNL     1      36.572 -21.294 -19.436  0.00  0.00    +0.058 C 
ATOM     30  C   UNL     1      33.174 -22.283 -18.523  0.00  0.00    +0.001 C 
ATOM     31  C   UNL     1      35.149 -23.253 -16.742  0.00  0.00    +0.015 C 
ATOM     32  C   UNL     1      32.822 -23.062 -17.416  0.00  0.00    +0.000 C 
ATOM     33  C   UNL     1      33.796 -23.540 -16.540  0.00  0.00    +0.001 C 
ATOM     34  H   UNL     1      37.574 -22.238 -17.858  0.00  0.00    +0.152 HD
ENDBRANCH  24  26
ENDBRANCH  19  24
ENDBRANCH  18  19
ENDBRANCH   1  18
TORSDOF 7
ENDMDL
MODEL 3
REMARK VINA RESULT:     -11.7      0.953      1.873
REMARK  Name = 6914614
REMARK  7 active torsions:
REMARK  status: ('A' for Active; 'I' for Inactive)
REMARK    1  A    between atoms: O_1  and  C_4
REMARK    2  A    between atoms: O_1  and  C_18
REMARK    3  A    between atoms: C_9  and  C_13
REMARK    4  A    between atoms: C_18  and  C_19
REMARK    5  A    between atoms: C_19  and  N_20
REMARK    6  A    between atoms: C_19  and  C_24
REMARK    7  A    between atoms: C_24  and  C_26
REMARK                            x       y       z     vdW  Elec       q    Type
REMARK                         _______ _______ _______ _____ _____    ______ ____
ROOT
ATOM      1  O   UNL     1      35.878 -20.899 -19.713  0.00  0.00    -0.476 OA
ENDROOT
BRANCH   1   4
ATOM      2  N   UNL     1      35.363 -23.690 -15.806  0.00  0.00    -0.404 NA
ATOM      3  N   UNL     1      33.048 -22.806 -18.487  0.00  0.00    -0.258 NA
ATOM      4  C   UNL     1      35.155 -21.716 -18.902  0.00  0.00    +0.159 C 
ATOM      5  C   UNL     1      35.690 -22.283 -17.738  0.00  0.00    +0.063 C 
ATOM      6  C   UNL     1      34.897 -23.121 -16.936  0.00  0.00    +0.136 C 
ATOM      7  C   UNL     1      37.009 -22.041 -17.333  0.00  0.00    +0.008 C 
ATOM      8  C   UNL     1      33.843 -22.008 -19.227  0.00  0.00    +0.130 C 
ATOM      9  C   UNL     1      36.643 -23.432 -15.450  0.00  0.00    +0.131 C 
ATOM     10  C   UNL     1      37.499 -22.623 -16.172  0.00  0.00    +0.032 C 
ATOM     11  C   UNL     1      33.599 -23.334 -17.369  0.00  0.00    +0.184 C 
BRANCH   9  13
ATOM     12  N   UNL     1      37.912 -25.316 -11.868  0.00  0.00    -0.242 NA
ATOM     13  C   UNL     1      37.074 -24.073 -14.231  0.00  0.00    +0.033 C 
ATOM     14  C   UNL     1      36.737 -23.528 -12.996  0.00  0.00    +0.023 C 
ATOM     15  C   UNL     1      37.831 -25.240 -14.283  0.00  0.00    +0.023 C 
ATOM     16  C   UNL     1      37.175 -24.182 -11.855  0.00  0.00    +0.099 C 
ATOM     17  C   UNL     1      38.221 -25.817 -13.084  0.00  0.00    +0.099 C 
ENDBRANCH   9  13
ENDBRANCH   1   4
BRANCH   1  18
ATOM     18  C   UNL     1      35.180 -20.257 -20.780  0.00  0.00    +0.184 C 
BRANCH  18  19
ATOM     19  C   UNL     1      35.840 -18.930 -21.176  0.00  0.00    -0.017 C 
BRANCH  19  20
ATOM     20  N   UNL     1      37.219 -18.925 -20.674  0.00  0.00    +0.384 N 
ATOM     21  H   UNL     1      37.796 -19.531 -21.257  0.00  0.00    -0.089 HD
ATOM     22  H   UNL     1      37.233 -19.265 -19.713  0.00  0.00    -0.089 HD
ATOM     23  H   UNL     1      37.589 -17.974 -20.703  0.00  0.00    -0.089 HD
ENDBRANCH  19  20
BRANCH  19  24
ATOM     24  C   UNL     1      35.872 -18.673 -22.695  0.00  0.00    +0.009 C 
BRANCH  24  26
ATOM     25  N   UNL     1      34.250 -15.851 -24.349  0.00  0.00    -0.312 N 
ATOM     26  C   UNL     1      35.163 -17.414 -23.107  0.00  0.00    -0.008 C 
ATOM     27  C   UNL     1      34.664 -16.429 -22.235  0.00  0.00    +0.011 C 
ATOM     28  C   UNL     1      34.088 -15.446 -23.043  0.00  0.00    +0.048 C 
ATOM     29  C   UNL     1      34.905 -17.052 -24.393  0.00  0.00    +0.058 C 
ATOM     30  C   UNL     1      34.635 -16.259 -20.836  0.00  0.00    +0.001 C 
ATOM     31  C   UNL     1      33.483 -14.297 -22.521  0.00  0.00    +0.015 C 
ATOM     32  C   UNL     1      34.033 -15.115 -20.299  0.00  0.00    +0.000 C 
ATOM     33  C   UNL     1      33.466 -14.150 -21.131  0.00  0.00    +0.001 C 
ATOM     34  H   UNL     1      33.939 -15.349 -25.136  0.00  0.00    +0.152 HD
ENDBRANCH  24  26
ENDBRANCH  19  24
ENDBRANCH  18  19
ENDBRANCH   1  18
TORSDOF 7
ENDMDL
MODEL 4
REMARK VINA RESULT:     -11.6      4.916      8.924
REMARK  Name = 6914614
REMARK  7 active torsions:
REMARK  status: ('A' for Active; 'I' for Inactive)
REMARK    1  A    between atoms: O_1  and  C_4
REMARK    2  A    between atoms: O_1  and  C_18
REMARK    3  A    between atoms: C_9  and  C_13
REMARK    4  A    between atoms: C_18  and  C_19
REMARK    5  A    between atoms: C_19  and  N_20
REMARK    6  A    between atoms: C_19  and  C_24
REMARK    7  A    between atoms: C_24  and  C_26
REMARK                            x       y       z     vdW  Elec       q    Type
REMARK                         _______ _______ _______ _____ _____    ______ ____
ROOT
ATOM      1  O   UNL     1      33.501 -13.054 -23.673  0.00  0.00    -0.476 OA
ENDROOT
BRANCH   1   4
ATOM      2  N   UNL     1      34.847 -17.673 -23.259  0.00  0.00    -0.404 NA
ATOM      3  N   UNL     1      33.823 -15.687 -26.146  0.00  0.00    -0.258 NA
ATOM      4  C   UNL     1      33.758 -14.286 -24.188  0.00  0.00    +0.159 C 
ATOM      5  C   UNL     1      34.185 -15.358 -23.394  0.00  0.00    +0.063 C 
ATOM      6  C   UNL     1      34.435 -16.610 -23.979  0.00  0.00    +0.136 C 
ATOM      7  C   UNL     1      34.376 -15.227 -22.012  0.00  0.00    +0.008 C 
ATOM      8  C   UNL     1      33.594 -14.503 -25.544  0.00  0.00    +0.130 C 
ATOM      9  C   UNL     1      35.020 -17.506 -21.927  0.00  0.00    +0.131 C 
ATOM     10  C   UNL     1      34.801 -16.316 -21.262  0.00  0.00    +0.032 C 
ATOM     11  C   UNL     1      34.234 -16.699 -25.346  0.00  0.00    +0.184 C 
BRANCH   9  13
ATOM     12  N   UNL     1      36.320 -20.969 -19.851  0.00  0.00    -0.242 NA
ATOM     13  C   UNL     1      35.462 -18.684 -21.220  0.00  0.00    +0.033 C 
ATOM     14  C   UNL     1      36.805 -18.839 -20.889  0.00  0.00    +0.023 C 
ATOM     15  C   UNL     1      34.549 -19.673 -20.867  0.00  0.00    +0.023 C 
ATOM     16  C   UNL     1      37.179 -19.988 -20.210  0.00  0.00    +0.099 C 
ATOM     17  C   UNL     1      35.024 -20.785 -20.189  0.00  0.00    +0.099 C 
ENDBRANCH   9  13
ENDBRANCH   1   4
BRANCH   1  18
ATOM     18  C   UNL     1      33.850 -11.927 -24.477  0.00  0.00    +0.184 C 
BRANCH  18  19
ATOM     19  C   UNL     1      34.221 -10.710 -23.620  0.00  0.00    -0.017 C 
BRANCH  19  20
ATOM     20  N   UNL     1      35.397 -10.061 -24.212  0.00  0.00    +0.384 N 
ATOM     21  H   UNL     1      36.244 -10.524 -23.881  0.00  0.00    -0.089 HD
ATOM     22  H   UNL     1      35.418  -9.079 -23.938  0.00  0.00    -0.089 HD
ATOM     23  H   UNL     1      35.348 -10.130 -25.229  0.00  0.00    -0.089 HD
ENDBRANCH  19  20
BRANCH  19  24
ATOM     24  C   UNL     1      33.096  -9.664 -23.495  0.00  0.00    +0.009 C 
BRANCH  24  26
ATOM     25  N   UNL     1      32.654  -8.139 -20.208  0.00  0.00    -0.312 N 
ATOM     26  C   UNL     1      32.782  -9.285 -22.076  0.00  0.00    -0.008 C 
ATOM     27  C   UNL     1      32.113 -10.093 -21.138  0.00  0.00    +0.011 C 
ATOM     28  C   UNL     1      32.042  -9.347 -19.959  0.00  0.00    +0.048 C 
ATOM     29  C   UNL     1      33.107  -8.096 -21.499  0.00  0.00    +0.058 C 
ATOM     30  C   UNL     1      31.554 -11.386 -21.156  0.00  0.00    +0.001 C 
ATOM     31  C   UNL     1      31.436  -9.831 -18.794  0.00  0.00    +0.015 C 
ATOM     32  C   UNL     1      30.945 -11.884 -19.998  0.00  0.00    +0.000 C 
ATOM     33  C   UNL     1      30.889 -11.116 -18.836  0.00  0.00    +0.001 C 
ATOM     34  H   UNL     1      32.750  -7.411 -19.552  0.00  0.00    +0.152 HD
ENDBRANCH  24  26
ENDBRANCH  19  24
ENDBRANCH  18  19
ENDBRANCH   1  18
TORSDOF 7
ENDMDL
MODEL 5
REMARK VINA RESULT:     -11.3      2.859      6.017
REMARK  Name = 6914614
REMARK  7 active torsions:
REMARK  status: ('A' for Active; 'I' for Inactive)
REMARK    1  A    between atoms: O_1  and  C_4
REMARK    2  A    between atoms: O_1  and  C_18
REMARK    3  A    between atoms: C_9  and  C_13
REMARK    4  A    between atoms: C_18  and  C_19
REMARK    5  A    between atoms: C_19  and  N_20
REMARK    6  A    between atoms: C_19  and  C_24
REMARK    7  A    between atoms: C_24  and  C_26
REMARK                            x       y       z     vdW  Elec       q    Type
REMARK                         _______ _______ _______ _____ _____    ______ ____
ROOT
ATOM      1  O   UNL     1      36.987 -23.585 -15.767  0.00  0.00    -0.476 OA
ENDROOT
BRANCH   1   4
ATOM      2  N   UNL     1      32.478 -24.237 -14.166  0.00  0.00    -0.404 NA
ATOM      3  N   UNL     1      35.717 -24.555 -12.511  0.00  0.00    -0.258 NA
ATOM      4  C   UNL     1      36.084 -23.896 -14.799  0.00  0.00    +0.159 C 
ATOM      5  C   UNL     1      34.703 -23.893 -15.031  0.00  0.00    +0.063 C 
ATOM      6  C   UNL     1      33.815 -24.224 -13.994  0.00  0.00    +0.136 C 
ATOM      7  C   UNL     1      34.162 -23.567 -16.282  0.00  0.00    +0.008 C 
ATOM      8  C   UNL     1      36.533 -24.231 -13.534  0.00  0.00    +0.130 C 
ATOM      9  C   UNL     1      31.995 -23.915 -15.388  0.00  0.00    +0.131 C 
ATOM     10  C   UNL     1      32.785 -23.576 -16.468  0.00  0.00    +0.032 C 
ATOM     11  C   UNL     1      34.389 -24.541 -12.774  0.00  0.00    +0.184 C 
BRANCH   9  13
ATOM     12  N   UNL     1      27.767 -24.016 -15.716  0.00  0.00    -0.242 NA
ATOM     13  C   UNL     1      30.556 -23.949 -15.499  0.00  0.00    +0.033 C 
ATOM     14  C   UNL     1      29.832 -24.979 -14.906  0.00  0.00    +0.023 C 
ATOM     15  C   UNL     1      29.884 -22.954 -16.202  0.00  0.00    +0.023 C 
ATOM     16  C   UNL     1      28.452 -24.966 -15.041  0.00  0.00    +0.099 C 
ATOM     17  C   UNL     1      28.502 -23.032 -16.280  0.00  0.00    +0.099 C 
ENDBRANCH   9  13
ENDBRANCH   1   4
BRANCH   1  18
ATOM     18  C   UNL     1      37.549 -22.273 -15.735  0.00  0.00    +0.184 C 
BRANCH  18  19
ATOM     19  C   UNL     1      37.003 -21.391 -16.865  0.00  0.00    -0.017 C 
BRANCH  19  20
ATOM     20  N   UNL     1      37.885 -20.228 -17.020  0.00  0.00    +0.384 N 
ATOM     21  H   UNL     1      38.825 -20.543 -17.262  0.00  0.00    -0.089 HD
ATOM     22  H   UNL     1      37.916 -19.706 -16.145  0.00  0.00    -0.089 HD
ATOM     23  H   UNL     1      37.527 -19.627 -17.763  0.00  0.00    -0.089 HD
ENDBRANCH  19  20
BRANCH  19  24
ATOM     24  C   UNL     1      36.896 -22.109 -18.225  0.00  0.00    +0.009 C 
BRANCH  24  26
ATOM     25  N   UNL     1      33.952 -21.089 -20.128  0.00  0.00    -0.312 N 
ATOM     26  C   UNL     1      35.868 -21.510 -19.142  0.00  0.00    -0.008 C 
ATOM     27  C   UNL     1      36.107 -20.515 -20.108  0.00  0.00    +0.011 C 
ATOM     28  C   UNL     1      34.879 -20.262 -20.722  0.00  0.00    +0.048 C 
ATOM     29  C   UNL     1      34.551 -21.852 -19.162  0.00  0.00    +0.058 C 
ATOM     30  C   UNL     1      37.240 -19.792 -20.534  0.00  0.00    +0.001 C 
ATOM     31  C   UNL     1      34.725 -19.319 -21.745  0.00  0.00    +0.015 C 
ATOM     32  C   UNL     1      37.102 -18.846 -21.556  0.00  0.00    +0.000 C 
ATOM     33  C   UNL     1      35.863 -18.615 -22.152  0.00  0.00    +0.001 C 
ATOM     34  H   UNL     1      32.997 -21.125 -20.364  0.00  0.00    +0.152 HD
ENDBRANCH  24  26
ENDBRANCH  19  24
ENDBRANCH  18  19
ENDBRANCH   1  18
TORSDOF 7
ENDMDL
MODEL 6
REMARK VINA RESULT:     -11.2      3.256      9.590
REMARK  Name = 6914614
REMARK  7 active torsions:
REMARK  status: ('A' for Active; 'I' for Inactive)
REMARK    1  A    between atoms: O_1  and  C_4
REMARK    2  A    between atoms: O_1  and  C_18
REMARK    3  A    between atoms: C_9  and  C_13
REMARK    4  A    between atoms: C_18  and  C_19
REMARK    5  A    between atoms: C_19  and  N_20
REMARK    6  A    between atoms: C_19  and  C_24
REMARK    7  A    between atoms: C_24  and  C_26
REMARK                            x       y       z     vdW  Elec       q    Type
REMARK                         _______ _______ _______ _____ _____    ______ ____
ROOT
ATOM      1  O   UNL     1      34.654 -24.350 -15.442  0.00  0.00    -0.476 OA
ENDROOT
BRANCH   1   4
ATOM      2  N   UNL     1      36.727 -21.245 -18.506  0.00  0.00    -0.404 NA
ATOM      3  N   UNL     1      37.915 -22.762 -15.404  0.00  0.00    -0.258 NA
ATOM      4  C   UNL     1      35.687 -23.564 -15.848  0.00  0.00    +0.159 C 
ATOM      5  C   UNL     1      35.632 -22.797 -17.019  0.00  0.00    +0.063 C 
ATOM      6  C   UNL     1      36.729 -22.002 -17.390  0.00  0.00    +0.136 C 
ATOM      7  C   UNL     1      34.504 -22.792 -17.850  0.00  0.00    +0.008 C 
ATOM      8  C   UNL     1      36.840 -23.511 -15.085  0.00  0.00    +0.130 C 
ATOM      9  C   UNL     1      35.619 -21.268 -19.282  0.00  0.00    +0.131 C 
ATOM     10  C   UNL     1      34.493 -22.016 -19.002  0.00  0.00    +0.032 C 
ATOM     11  C   UNL     1      37.824 -22.034 -16.542  0.00  0.00    +0.184 C 
BRANCH   9  13
ATOM     12  N   UNL     1      35.817 -18.820 -22.740  0.00  0.00    -0.242 NA
ATOM     13  C   UNL     1      35.686 -20.435 -20.459  0.00  0.00    +0.033 C 
ATOM     14  C   UNL     1      36.837 -19.701 -20.733  0.00  0.00    +0.023 C 
ATOM     15  C   UNL     1      34.601 -20.360 -21.327  0.00  0.00    +0.023 C 
ATOM     16  C   UNL     1      36.852 -18.917 -21.876  0.00  0.00    +0.099 C 
ATOM     17  C   UNL     1      34.716 -19.546 -22.443  0.00  0.00    +0.099 C 
ENDBRANCH   9  13
ENDBRANCH   1   4
BRANCH   1  18
ATOM     18  C   UNL     1      34.854 -25.132 -14.264  0.00  0.00    +0.184 C 
BRANCH  18  19
ATOM     19  C   UNL     1      33.975 -24.647 -13.104  0.00  0.00    -0.017 C 
BRANCH  19  20
ATOM     20  N   UNL     1      34.823 -23.935 -12.141  0.00  0.00    +0.384 N 
ATOM     21  H   UNL     1      34.556 -24.199 -11.192  0.00  0.00    -0.089 HD
ATOM     22  H   UNL     1      34.702 -22.930 -12.260  0.00  0.00    -0.089 HD
ATOM     23  H   UNL     1      35.800 -24.181 -12.300  0.00  0.00    -0.089 HD
ENDBRANCH  19  20
BRANCH  19  24
ATOM     24  C   UNL     1      32.829 -23.712 -13.533  0.00  0.00    +0.009 C 
BRANCH  24  26
ATOM     25  N   UNL     1      29.919 -25.907 -13.752  0.00  0.00    -0.312 N 
ATOM     26  C   UNL     1      31.544 -24.432 -13.829  0.00  0.00    -0.008 C 
ATOM     27  C   UNL     1      30.589 -24.049 -14.789  0.00  0.00    +0.011 C 
ATOM     28  C   UNL     1      29.566 -24.998 -14.724  0.00  0.00    +0.048 C 
ATOM     29  C   UNL     1      31.126 -25.565 -13.202  0.00  0.00    +0.058 C 
ATOM     30  C   UNL     1      30.475 -22.993 -15.716  0.00  0.00    +0.001 C 
ATOM     31  C   UNL     1      28.431 -24.944 -15.541  0.00  0.00    +0.015 C 
ATOM     32  C   UNL     1      29.346 -22.926 -16.540  0.00  0.00    +0.000 C 
ATOM     33  C   UNL     1      28.340 -23.888 -16.453  0.00  0.00    +0.001 C 
ATOM     34  H   UNL     1      29.381 -26.688 -13.489  0.00  0.00    +0.152 HD
ENDBRANCH  24  26
ENDBRANCH  19  24
ENDBRANCH  18  19
ENDBRANCH   1  18
TORSDOF 7
ENDMDL
MODEL 7
REMARK VINA RESULT:     -11.0      2.693     10.710
REMARK  Name = 6914614
REMARK  7 active torsions:
REMARK  status: ('A' for Active; 'I' for Inactive)
REMARK    1  A    between atoms: O_1  and  C_4
REMARK    2  A    between atoms: O_1  and  C_18
REMARK    3  A    between atoms: C_9  and  C_13
REMARK    4  A    between atoms: C_18  and  C_19
REMARK    5  A    between atoms: C_19  and  N_20
REMARK    6  A    between atoms: C_19  and  C_24
REMARK    7  A    between atoms: C_24  and  C_26
REMARK                            x       y       z     vdW  Elec       q    Type
REMARK                         _______ _______ _______ _____ _____    ______ ____
ROOT
ATOM      1  O   UNL     1      35.823 -17.772 -22.657  0.00  0.00    -0.476 OA
ENDROOT
BRANCH   1   4
ATOM      2  N   UNL     1      32.966 -13.887 -22.924  0.00  0.00    -0.404 NA
ATOM      3  N   UNL     1      34.142 -16.221 -25.473  0.00  0.00    -0.258 NA
ATOM      4  C   UNL     1      35.048 -16.889 -23.343  0.00  0.00    +0.159 C 
ATOM      5  C   UNL     1      34.399 -15.817 -22.718  0.00  0.00    +0.063 C 
ATOM      6  C   UNL     1      33.611 -14.934 -23.476  0.00  0.00    +0.136 C 
ATOM      7  C   UNL     1      34.507 -15.585 -21.341  0.00  0.00    +0.008 C 
ATOM      8  C   UNL     1      34.888 -17.044 -24.708  0.00  0.00    +0.130 C 
ATOM      9  C   UNL     1      33.095 -13.698 -21.590  0.00  0.00    +0.131 C 
ATOM     10  C   UNL     1      33.845 -14.510 -20.762  0.00  0.00    +0.032 C 
ATOM     11  C   UNL     1      33.531 -15.196 -24.834  0.00  0.00    +0.184 C 
BRANCH   9  13
ATOM     12  N   UNL     1      30.987 -10.354 -20.053  0.00  0.00    -0.242 NA
ATOM     13  C   UNL     1      32.378 -12.559 -21.067  0.00  0.00    +0.033 C 
ATOM     14  C   UNL     1      31.857 -12.593 -19.777  0.00  0.00    +0.023 C 
ATOM     15  C   UNL     1      32.203 -11.422 -21.849  0.00  0.00    +0.023 C 
ATOM     16  C   UNL     1      31.177 -11.475 -19.321  0.00  0.00    +0.099 C 
ATOM     17  C   UNL     1      31.507 -10.356 -21.300  0.00  0.00    +0.099 C 
ENDBRANCH   9  13
ENDBRANCH   1   4
BRANCH   1  18
ATOM     18  C   UNL     1      35.344 -18.206 -21.385  0.00  0.00    +0.184 C 
BRANCH  18  19
ATOM     19  C   UNL     1      34.848 -19.657 -21.427  0.00  0.00    -0.017 C 
BRANCH  19  20
ATOM     20  N   UNL     1      34.906 -20.131 -22.815  0.00  0.00    +0.384 N 
ATOM     21  H   UNL     1      35.365 -19.429 -23.396  0.00  0.00    -0.089 HD
ATOM     22  H   UNL     1      33.960 -20.292 -23.159  0.00  0.00    -0.089 HD
ATOM     23  H   UNL     1      35.436 -21.003 -22.855  0.00  0.00    -0.089 HD
ENDBRANCH  19  20
BRANCH  19  24
ATOM     24  C   UNL     1      35.661 -20.624 -20.545  0.00  0.00    +0.009 C 
BRANCH  24  26
ATOM     25  N   UNL     1      33.092 -22.447 -18.700  0.00  0.00    -0.312 N 
ATOM     26  C   UNL     1      34.817 -21.428 -19.597  0.00  0.00    -0.008 C 
ATOM     27  C   UNL     1      35.260 -22.018 -18.399  0.00  0.00    +0.011 C 
ATOM     28  C   UNL     1      34.150 -22.660 -17.845  0.00  0.00    +0.048 C 
ATOM     29  C   UNL     1      33.493 -21.695 -19.771  0.00  0.00    +0.058 C 
ATOM     30  C   UNL     1      36.491 -22.081 -17.715  0.00  0.00    +0.001 C 
ATOM     31  C   UNL     1      34.209 -23.365 -16.638  0.00  0.00    +0.015 C 
ATOM     32  C   UNL     1      36.565 -22.783 -16.507  0.00  0.00    +0.000 C 
ATOM     33  C   UNL     1      35.441 -23.414 -15.977  0.00  0.00    +0.001 C 
ATOM     34  H   UNL     1      32.179 -22.786 -18.560  0.00  0.00    +0.152 HD
ENDBRANCH  24  26
ENDBRANCH  19  24
ENDBRANCH  18  19
ENDBRANCH   1  18
TORSDOF 7
ENDMDL
MODEL 8
REMARK VINA RESULT:     -10.9      2.405      3.773
REMARK  Name = 6914614
REMARK  7 active torsions:
REMARK  status: ('A' for Active; 'I' for Inactive)
REMARK    1  A    between atoms: O_1  and  C_4
REMARK    2  A    between atoms: O_1  and  C_18
REMARK    3  A    between atoms: C_9  and  C_13
REMARK    4  A    between atoms: C_18  and  C_19
REMARK    5  A    between atoms: C_19  and  N_20
REMARK    6  A    between atoms: C_19  and  C_24
REMARK    7  A    between atoms: C_24  and  C_26
REMARK                            x       y       z     vdW  Elec       q    Type
REMARK                         _______ _______ _______ _____ _____    ______ ____
ROOT
ATOM      1  O   UNL     1      35.838 -21.755 -19.723  0.00  0.00    -0.476 OA
ENDROOT
BRANCH   1   4
ATOM      2  N   UNL     1      34.199 -23.429 -15.500  0.00  0.00    -0.404 NA
ATOM      3  N   UNL     1      37.495 -22.250 -16.535  0.00  0.00    -0.258 NA
ATOM      4  C   UNL     1      35.999 -22.095 -18.416  0.00  0.00    +0.159 C 
ATOM      5  C   UNL     1      34.950 -22.601 -17.637  0.00  0.00    +0.063 C 
ATOM      6  C   UNL     1      35.173 -22.937 -16.291  0.00  0.00    +0.136 C 
ATOM      7  C   UNL     1      33.663 -22.790 -18.158  0.00  0.00    +0.008 C 
ATOM      8  C   UNL     1      37.238 -21.940 -17.822  0.00  0.00    +0.130 C 
ATOM      9  C   UNL     1      32.969 -23.596 -16.041  0.00  0.00    +0.131 C 
ATOM     10  C   UNL     1      32.653 -23.294 -17.351  0.00  0.00    +0.032 C 
ATOM     11  C   UNL     1      36.458 -22.737 -15.814  0.00  0.00    +0.184 C 
BRANCH   9  13
ATOM     12  N   UNL     1      30.050 -25.149 -13.384  0.00  0.00    -0.242 NA
ATOM     13  C   UNL     1      31.976 -24.125 -15.137  0.00  0.00    +0.033 C 
ATOM     14  C   UNL     1      30.622 -23.939 -15.398  0.00  0.00    +0.023 C 
ATOM     15  C   UNL     1      32.366 -24.822 -13.998  0.00  0.00    +0.023 C 
ATOM     16  C   UNL     1      29.707 -24.467 -14.500  0.00  0.00    +0.099 C 
ATOM     17  C   UNL     1      31.373 -25.310 -13.162  0.00  0.00    +0.099 C 
ENDBRANCH   9  13
ENDBRANCH   1   4
BRANCH   1  18
ATOM     18  C   UNL     1      36.363 -20.494 -20.137  0.00  0.00    +0.184 C 
BRANCH  18  19
ATOM     19  C   UNL     1      35.390 -19.746 -21.057  0.00  0.00    -0.017 C 
BRANCH  19  20
ATOM     20  N   UNL     1      34.019 -20.108 -20.682  0.00  0.00    +0.384 N 
ATOM     21  H   UNL     1      33.397 -19.954 -21.476  0.00  0.00    -0.089 HD
ATOM     22  H   UNL     1      33.717 -19.531 -19.898  0.00  0.00    -0.089 HD
ATOM     23  H   UNL     1      33.988 -21.091 -20.412  0.00  0.00    -0.089 HD
ENDBRANCH  19  20
BRANCH  19  24
ATOM     24  C   UNL     1      35.525 -18.212 -20.998  0.00  0.00    +0.009 C 
BRANCH  24  26
ATOM     25  N   UNL     1      34.716 -17.158 -24.399  0.00  0.00    -0.312 N 
ATOM     26  C   UNL     1      35.130 -17.524 -22.275  0.00  0.00    -0.008 C 
ATOM     27  C   UNL     1      34.696 -16.190 -22.390  0.00  0.00    +0.011 C 
ATOM     28  C   UNL     1      34.438 -15.978 -23.746  0.00  0.00    +0.048 C 
ATOM     29  C   UNL     1      35.137 -18.105 -23.505  0.00  0.00    +0.058 C 
ATOM     30  C   UNL     1      34.491 -15.128 -21.486  0.00  0.00    +0.001 C 
ATOM     31  C   UNL     1      33.984 -14.753 -24.246  0.00  0.00    +0.015 C 
ATOM     32  C   UNL     1      34.037 -13.897 -21.972  0.00  0.00    +0.000 C 
ATOM     33  C   UNL     1      33.788 -13.714 -23.332  0.00  0.00    +0.001 C 
ATOM     34  H   UNL     1      34.623 -17.300 -25.369  0.00  0.00    +0.152 HD
ENDBRANCH  24  26
ENDBRANCH  19  24
ENDBRANCH  18  19
ENDBRANCH   1  18
TORSDOF 7
ENDMDL
MODEL 9
REMARK VINA RESULT:     -10.8      4.557      8.480
REMARK  Name = 6914614
REMARK  7 active torsions:
REMARK  status: ('A' for Active; 'I' for Inactive)
REMARK    1  A    between atoms: O_1  and  C_4
REMARK    2  A    between atoms: O_1  and  C_18
REMARK    3  A    between atoms: C_9  and  C_13
REMARK    4  A    between atoms: C_18  and  C_19
REMARK    5  A    between atoms: C_19  and  N_20
REMARK    6  A    between atoms: C_19  and  C_24
REMARK    7  A    between atoms: C_24  and  C_26
REMARK                            x       y       z     vdW  Elec       q    Type
REMARK                         _______ _______ _______ _____ _____    ______ ____
ROOT
ATOM      1  O   UNL     1      34.349 -13.818 -23.077  0.00  0.00    -0.476 OA
ENDROOT
BRANCH   1   4
ATOM      2  N   UNL     1      34.855 -18.607 -22.717  0.00  0.00    -0.404 NA
ATOM      3  N   UNL     1      34.384 -16.421 -25.603  0.00  0.00    -0.258 NA
ATOM      4  C   UNL     1      34.426 -15.066 -23.611  0.00  0.00    +0.159 C 
ATOM      5  C   UNL     1      34.609 -16.210 -22.824  0.00  0.00    +0.063 C 
ATOM      6  C   UNL     1      34.681 -17.476 -23.429  0.00  0.00    +0.136 C 
ATOM      7  C   UNL     1      34.725 -16.140 -21.430  0.00  0.00    +0.008 C 
ATOM      8  C   UNL     1      34.320 -15.226 -24.981  0.00  0.00    +0.130 C 
ATOM      9  C   UNL     1      34.964 -18.497 -21.373  0.00  0.00    +0.131 C 
ATOM     10  C   UNL     1      34.906 -17.299 -20.687  0.00  0.00    +0.032 C 
ATOM     11  C   UNL     1      34.561 -17.504 -24.809  0.00  0.00    +0.184 C 
BRANCH   9  13
ATOM     12  N   UNL     1      35.509 -22.170 -19.323  0.00  0.00    -0.242 NA
ATOM     13  C   UNL     1      35.149 -19.747 -20.675  0.00  0.00    +0.033 C 
ATOM     14  C   UNL     1      36.431 -20.196 -20.372  0.00  0.00    +0.023 C 
ATOM     15  C   UNL     1      34.048 -20.511 -20.302  0.00  0.00    +0.023 C 
ATOM     16  C   UNL     1      36.556 -21.402 -19.700  0.00  0.00    +0.099 C 
ATOM     17  C   UNL     1      34.279 -21.703 -19.634  0.00  0.00    +0.099 C 
ENDBRANCH   9  13
ENDBRANCH   1   4
BRANCH   1  18
ATOM     18  C   UNL     1      33.044 -13.287 -22.849  0.00  0.00    +0.184 C 
BRANCH  18  19
ATOM     19  C   UNL     1      33.094 -11.810 -22.439  0.00  0.00    -0.017 C 
BRANCH  19  20
ATOM     20  N   UNL     1      33.531 -11.017 -23.594  0.00  0.00    +0.384 N 
ATOM     21  H   UNL     1      34.174 -11.568 -24.162  0.00  0.00    -0.089 HD
ATOM     22  H   UNL     1      34.001 -10.173 -23.269  0.00  0.00    -0.089 HD
ATOM     23  H   UNL     1      32.719 -10.759 -24.156  0.00  0.00    -0.089 HD
ENDBRANCH  19  20
BRANCH  19  24
ATOM     24  C   UNL     1      31.747 -11.250 -21.941  0.00  0.00    +0.009 C 
BRANCH  24  26
ATOM     25  N   UNL     1      32.182  -8.522 -19.554  0.00  0.00    -0.312 N 
ATOM     26  C   UNL     1      31.875  -9.957 -21.187  0.00  0.00    -0.008 C 
ATOM     27  C   UNL     1      31.729  -8.669 -21.733  0.00  0.00    +0.011 C 
ATOM     28  C   UNL     1      31.928  -7.772 -20.681  0.00  0.00    +0.048 C 
ATOM     29  C   UNL     1      32.151  -9.857 -19.858  0.00  0.00    +0.058 C 
ATOM     30  C   UNL     1      31.448  -8.156 -23.016  0.00  0.00    +0.001 C 
ATOM     31  C   UNL     1      31.861  -6.384 -20.847  0.00  0.00    +0.015 C 
ATOM     32  C   UNL     1      31.377  -6.770 -23.198  0.00  0.00    +0.000 C 
ATOM     33  C   UNL     1      31.580  -5.899 -22.128  0.00  0.00    +0.001 C 
ATOM     34  H   UNL     1      32.361  -8.151 -18.661  0.00  0.00    +0.152 HD
ENDBRANCH  24  26
ENDBRANCH  19  24
ENDBRANCH  18  19
ENDBRANCH   1  18
TORSDOF 7
ENDMDL
