MODEL 1
REMARK VINA RESULT:     -11.6      0.000      0.000
REMARK  Name = 24778473
REMARK  2 active torsions:
REMARK  status: ('A' for Active; 'I' for Inactive)
REMARK    1  A    between atoms: C_11  and  C_22
REMARK    2  A    between atoms: C_17  and  N_29
REMARK                            x       y       z     vdW  Elec       q    Type
REMARK                         _______ _______ _______ _____ _____    ______ ____
ROOT
ATOM      1  O   UNL     1      32.835 -22.649 -17.880  0.00  0.00    -0.270 OA
ATOM      2  O   UNL     1      36.942 -23.352 -15.931  0.00  0.00    -0.270 OA
ATOM      3  N   UNL     1      31.206 -24.858 -13.382  0.00  0.00    -0.353 N 
ATOM      4  N   UNL     1      35.057 -22.850 -17.209  0.00  0.00    -0.248 N 
ATOM      5  C   UNL     1      32.288 -23.977 -15.130  0.00  0.00    +0.022 A 
ATOM      6  C   UNL     1      33.469 -23.605 -15.785  0.00  0.00    +0.060 C 
ATOM      7  C   UNL     1      32.458 -24.563 -13.865  0.00  0.00    +0.057 A 
ATOM      8  C   UNL     1      30.877 -23.932 -15.389  0.00  0.00    +0.018 A 
ATOM      9  C   UNL     1      34.717 -23.814 -15.198  0.00  0.00    +0.058 C 
ATOM     10  C   UNL     1      30.235 -24.489 -14.279  0.00  0.00    +0.057 A 
ATOM     11  C   UNL     1      34.871 -24.391 -13.958  0.00  0.00    +0.007 C 
ATOM     12  C   UNL     1      33.720 -24.778 -13.268  0.00  0.00    +0.017 C 
ATOM     13  C   UNL     1      33.693 -22.980 -17.087  0.00  0.00    +0.252 C 
ATOM     14  C   UNL     1      35.741 -23.327 -16.119  0.00  0.00    +0.252 C 
ATOM     15  C   UNL     1      30.069 -23.476 -16.453  0.00  0.00    +0.016 C 
ATOM     16  C   UNL     1      28.843 -24.610 -14.183  0.00  0.00    +0.018 C 
ATOM     17  C   UNL     1      28.676 -23.590 -16.372  0.00  0.00    +0.051 C 
ATOM     18  C   UNL     1      28.072 -24.150 -15.251  0.00  0.00    +0.016 C 
ATOM     19  H   UNL     1      31.030 -25.278 -12.510  0.00  0.00    +0.166 HD
ATOM     20  H   UNL     1      35.497 -22.456 -17.996  0.00  0.00    +0.158 HD
ENDROOT
BRANCH  11  22
ATOM     21 CL   UNL     1      36.464 -26.874 -14.853  0.00  0.00    -0.082 Cl
ATOM     22  C   UNL     1      36.168 -24.606 -13.351  0.00  0.00    +0.011 C 
ATOM     23  C   UNL     1      36.966 -25.698 -13.689  0.00  0.00    +0.058 C 
ATOM     24  C   UNL     1      36.613 -23.681 -12.407  0.00  0.00    +0.001 C 
ATOM     25  C   UNL     1      38.210 -25.868 -13.082  0.00  0.00    +0.011 C 
ATOM     26  C   UNL     1      37.857 -23.851 -11.799  0.00  0.00    +0.000 C 
ATOM     27  C   UNL     1      38.655 -24.943 -12.137  0.00  0.00    +0.001 C 
ENDBRANCH  11  22
BRANCH  17  29
ATOM     28  O   UNL     1      26.093 -21.999 -16.381  0.00  0.00    -0.265 OA
ATOM     29  N   UNL     1      27.884 -23.137 -17.429  0.00  0.00    -0.277 N 
ATOM     30  C   UNL     1      26.703 -22.407 -17.359  0.00  0.00    +0.303 C 
ATOM     31  H   UNL     1      28.201 -23.362 -18.333  0.00  0.00    +0.155 HD
ENDBRANCH  17  29
TORSDOF 2
ENDMDL
MODEL 2
REMARK VINA RESULT:     -11.0     13.768     15.855
REMARK  Name = 24778473
REMARK  2 active torsions:
REMARK  status: ('A' for Active; 'I' for Inactive)
REMARK    1  A    between atoms: C_11  and  C_22
REMARK    2  A    between atoms: C_17  and  N_29
REMARK                            x       y       z     vdW  Elec       q    Type
REMARK                         _______ _______ _______ _____ _____    ______ ____
ROOT
ATOM      1  O   UNL     1      30.879 -10.759 -20.065  0.00  0.00    -0.270 OA
ATOM      2  O   UNL     1      32.204 -14.999 -21.263  0.00  0.00    -0.270 OA
ATOM      3  N   UNL     1      34.132  -9.484 -24.008  0.00  0.00    -0.353 N 
ATOM      4  N   UNL     1      31.322 -13.023 -20.391  0.00  0.00    -0.248 N 
ATOM      5  C   UNL     1      32.861 -10.427 -22.428  0.00  0.00    +0.022 A 
ATOM      6  C   UNL     1      32.371 -11.552 -21.754  0.00  0.00    +0.060 C 
ATOM      7  C   UNL     1      33.764 -10.693 -23.471  0.00  0.00    +0.057 A 
ATOM      8  C   UNL     1      32.703  -9.002 -22.360  0.00  0.00    +0.018 A 
ATOM      9  C   UNL     1      32.768 -12.839 -22.114  0.00  0.00    +0.058 C 
ATOM     10  C   UNL     1      33.509  -8.448 -23.359  0.00  0.00    +0.057 A 
ATOM     11  C   UNL     1      33.653 -13.089 -23.137  0.00  0.00    +0.007 C 
ATOM     12  C   UNL     1      34.169 -11.996 -23.838  0.00  0.00    +0.017 C 
ATOM     13  C   UNL     1      31.434 -11.675 -20.638  0.00  0.00    +0.252 C 
ATOM     14  C   UNL     1      32.090 -13.788 -21.232  0.00  0.00    +0.252 C 
ATOM     15  C   UNL     1      31.958  -8.115 -21.553  0.00  0.00    +0.016 C 
ATOM     16  C   UNL     1      33.605  -7.069 -23.587  0.00  0.00    +0.018 C 
ATOM     17  C   UNL     1      32.042  -6.734 -21.768  0.00  0.00    +0.051 C 
ATOM     18  C   UNL     1      32.855  -6.220 -22.772  0.00  0.00    +0.016 C 
ATOM     19  H   UNL     1      34.759  -9.376 -24.759  0.00  0.00    +0.166 HD
ATOM     20  H   UNL     1      30.750 -13.401 -19.685  0.00  0.00    +0.158 HD
ENDROOT
BRANCH  11  22
ATOM     21 CL   UNL     1      32.779 -14.123 -25.906  0.00  0.00    -0.082 Cl
ATOM     22  C   UNL     1      34.063 -14.426 -23.509  0.00  0.00    +0.011 C 
ATOM     23  C   UNL     1      33.719 -14.985 -24.739  0.00  0.00    +0.058 C 
ATOM     24  C   UNL     1      34.823 -15.159 -22.597  0.00  0.00    +0.001 C 
ATOM     25  C   UNL     1      34.136 -16.278 -25.059  0.00  0.00    +0.011 C 
ATOM     26  C   UNL     1      35.239 -16.451 -22.917  0.00  0.00    +0.000 C 
ATOM     27  C   UNL     1      34.896 -17.010 -24.148  0.00  0.00    +0.001 C 
ENDBRANCH  11  22
BRANCH  17  29
ATOM     28  O   UNL     1      30.052  -4.564 -22.498  0.00  0.00    -0.265 OA
ATOM     29  N   UNL     1      31.302  -5.864 -20.965  0.00  0.00    -0.277 N 
ATOM     30  C   UNL     1      30.401  -4.886 -21.371  0.00  0.00    +0.303 C 
ATOM     31  H   UNL     1      31.434  -5.955 -19.995  0.00  0.00    +0.155 HD
ENDBRANCH  17  29
TORSDOF 2
ENDMDL
MODEL 3
REMARK VINA RESULT:     -10.3      2.317      7.605
REMARK  Name = 24778473
REMARK  2 active torsions:
REMARK  status: ('A' for Active; 'I' for Inactive)
REMARK    1  A    between atoms: C_11  and  C_22
REMARK    2  A    between atoms: C_17  and  N_29
REMARK                            x       y       z     vdW  Elec       q    Type
REMARK                         _______ _______ _______ _____ _____    ______ ____
ROOT
ATOM      1  O   UNL     1      36.132 -23.319 -16.740  0.00  0.00    -0.270 OA
ATOM      2  O   UNL     1      31.634 -22.713 -17.494  0.00  0.00    -0.270 OA
ATOM      3  N   UNL     1      34.302 -25.251 -12.192  0.00  0.00    -0.353 N 
ATOM      4  N   UNL     1      33.961 -22.867 -17.456  0.00  0.00    -0.248 N 
ATOM      5  C   UNL     1      34.667 -24.365 -14.213  0.00  0.00    +0.022 A 
ATOM      6  C   UNL     1      34.207 -23.801 -15.409  0.00  0.00    +0.060 C 
ATOM      7  C   UNL     1      33.670 -24.721 -13.290  0.00  0.00    +0.057 A 
ATOM      8  C   UNL     1      35.930 -24.703 -13.621  0.00  0.00    +0.018 A 
ATOM      9  C   UNL     1      32.845 -23.616 -15.644  0.00  0.00    +0.058 C 
ATOM     10  C   UNL     1      35.664 -25.252 -12.364  0.00  0.00    +0.057 A 
ATOM     11  C   UNL     1      31.876 -23.968 -14.732  0.00  0.00    +0.007 C 
ATOM     12  C   UNL     1      32.289 -24.535 -13.524  0.00  0.00    +0.017 C 
ATOM     13  C   UNL     1      34.927 -23.315 -16.585  0.00  0.00    +0.252 C 
ATOM     14  C   UNL     1      32.688 -23.013 -16.965  0.00  0.00    +0.252 C 
ATOM     15  C   UNL     1      37.281 -24.601 -14.019  0.00  0.00    +0.016 C 
ATOM     16  C   UNL     1      36.670 -25.699 -11.496  0.00  0.00    +0.018 C 
ATOM     17  C   UNL     1      38.298 -25.044 -13.164  0.00  0.00    +0.051 C 
ATOM     18  C   UNL     1      37.994 -25.585 -11.919  0.00  0.00    +0.016 C 
ATOM     19  H   UNL     1      33.840 -25.585 -11.390  0.00  0.00    +0.166 HD
ATOM     20  H   UNL     1      34.162 -22.483 -18.339  0.00  0.00    +0.158 HD
ENDROOT
BRANCH  11  22
ATOM     21 CL   UNL     1      30.279 -26.383 -15.791  0.00  0.00    -0.082 Cl
ATOM     22  C   UNL     1      30.463 -23.776 -14.979  0.00  0.00    +0.011 C 
ATOM     23  C   UNL     1      29.653 -24.806 -15.457  0.00  0.00    +0.058 C 
ATOM     24  C   UNL     1      29.915 -22.519 -14.722  0.00  0.00    +0.001 C 
ATOM     25  C   UNL     1      28.295 -24.580 -15.680  0.00  0.00    +0.011 C 
ATOM     26  C   UNL     1      28.557 -22.292 -14.946  0.00  0.00    +0.000 C 
ATOM     27  C   UNL     1      27.748 -23.322 -15.424  0.00  0.00    +0.001 C 
ENDBRANCH  11  22
BRANCH  17  29
ATOM     28  O   UNL     1      40.172 -27.092 -14.386  0.00  0.00    -0.265 OA
ATOM     29  N   UNL     1      39.631 -24.939 -13.565  0.00  0.00    -0.277 N 
ATOM     30  C   UNL     1      40.435 -25.928 -14.122  0.00  0.00    +0.303 C 
ATOM     31  H   UNL     1      40.052 -24.060 -13.438  0.00  0.00    +0.155 HD
ENDBRANCH  17  29
TORSDOF 2
ENDMDL
MODEL 4
REMARK VINA RESULT:     -10.1      3.108      5.733
REMARK  Name = 24778473
REMARK  2 active torsions:
REMARK  status: ('A' for Active; 'I' for Inactive)
REMARK    1  A    between atoms: C_11  and  C_22
REMARK    2  A    between atoms: C_17  and  N_29
REMARK                            x       y       z     vdW  Elec       q    Type
REMARK                         _______ _______ _______ _____ _____    ______ ____
ROOT
ATOM      1  O   UNL     1      32.313 -22.904 -17.732  0.00  0.00    -0.270 OA
ATOM      2  O   UNL     1      33.350 -25.047 -13.795  0.00  0.00    -0.270 OA
ATOM      3  N   UNL     1      37.469 -21.827 -17.581  0.00  0.00    -0.353 N 
ATOM      4  N   UNL     1      32.469 -24.079 -15.726  0.00  0.00    -0.248 N 
ATOM      5  C   UNL     1      35.354 -22.488 -17.278  0.00  0.00    +0.022 A 
ATOM      6  C   UNL     1      34.369 -23.157 -16.541  0.00  0.00    +0.060 C 
ATOM      7  C   UNL     1      36.647 -22.527 -16.731  0.00  0.00    +0.057 A 
ATOM      8  C   UNL     1      35.432 -21.732 -18.496  0.00  0.00    +0.018 A 
ATOM      9  C   UNL     1      34.677 -23.809 -15.348  0.00  0.00    +0.058 C 
ATOM     10  C   UNL     1      36.763 -21.337 -18.652  0.00  0.00    +0.057 A 
ATOM     11  C   UNL     1      35.948 -23.840 -14.821  0.00  0.00    +0.007 C 
ATOM     12  C   UNL     1      36.964 -23.186 -15.523  0.00  0.00    +0.017 C 
ATOM     13  C   UNL     1      32.938 -23.334 -16.783  0.00  0.00    +0.252 C 
ATOM     14  C   UNL     1      33.450 -24.403 -14.822  0.00  0.00    +0.252 C 
ATOM     15  C   UNL     1      34.510 -21.337 -19.489  0.00  0.00    +0.016 C 
ATOM     16  C   UNL     1      37.212 -20.576 -19.740  0.00  0.00    +0.018 C 
ATOM     17  C   UNL     1      34.943 -20.577 -20.582  0.00  0.00    +0.051 C 
ATOM     18  C   UNL     1      36.277 -20.202 -20.704  0.00  0.00    +0.016 C 
ATOM     19  H   UNL     1      38.433 -21.695 -17.441  0.00  0.00    +0.166 HD
ATOM     20  H   UNL     1      31.529 -24.351 -15.627  0.00  0.00    +0.158 HD
ENDROOT
BRANCH  11  22
ATOM     21 CL   UNL     1      36.789 -26.801 -15.000  0.00  0.00    -0.082 Cl
ATOM     22  C   UNL     1      36.266 -24.519 -13.583  0.00  0.00    +0.011 C 
ATOM     23  C   UNL     1      36.657 -25.857 -13.557  0.00  0.00    +0.058 C 
ATOM     24  C   UNL     1      36.174 -23.795 -12.394  0.00  0.00    +0.001 C 
ATOM     25  C   UNL     1      36.956 -26.474 -12.342  0.00  0.00    +0.011 C 
ATOM     26  C   UNL     1      36.472 -24.412 -11.179  0.00  0.00    +0.000 C 
ATOM     27  C   UNL     1      36.863 -25.750 -11.153  0.00  0.00    +0.001 C 
ENDBRANCH  11  22
BRANCH  17  29
ATOM     28  O   UNL     1      35.359 -19.606 -23.426  0.00  0.00    -0.265 OA
ATOM     29  N   UNL     1      34.025 -20.190 -21.560  0.00  0.00    -0.277 N 
ATOM     30  C   UNL     1      34.288 -19.753 -22.854  0.00  0.00    +0.303 C 
ATOM     31  H   UNL     1      33.076 -20.233 -21.303  0.00  0.00    +0.155 HD
ENDBRANCH  17  29
TORSDOF 2
ENDMDL
MODEL 5
REMARK VINA RESULT:     -10.0      1.496      1.930
REMARK  Name = 24778473
REMARK  2 active torsions:
REMARK  status: ('A' for Active; 'I' for Inactive)
REMARK    1  A    between atoms: C_11  and  C_22
REMARK    2  A    between atoms: C_17  and  N_29
REMARK                            x       y       z     vdW  Elec       q    Type
REMARK                         _______ _______ _______ _____ _____    ______ ____
ROOT
ATOM      1  O   UNL     1      33.670 -22.288 -17.469  0.00  0.00    -0.270 OA
ATOM      2  O   UNL     1      37.971 -23.346 -16.227  0.00  0.00    -0.270 OA
ATOM      3  N   UNL     1      32.564 -25.337 -13.317  0.00  0.00    -0.353 N 
ATOM      4  N   UNL     1      35.953 -22.610 -17.135  0.00  0.00    -0.248 N 
ATOM      5  C   UNL     1      33.440 -24.129 -14.982  0.00  0.00    +0.022 A 
ATOM      6  C   UNL     1      34.538 -23.633 -15.696  0.00  0.00    +0.060 C 
ATOM      7  C   UNL     1      33.753 -24.951 -13.887  0.00  0.00    +0.057 A 
ATOM      8  C   UNL     1      32.009 -24.039 -15.047  0.00  0.00    +0.018 A 
ATOM      9  C   UNL     1      35.844 -23.949 -15.323  0.00  0.00    +0.058 C 
ATOM     10  C   UNL     1      31.498 -24.803 -13.995  0.00  0.00    +0.057 A 
ATOM     11  C   UNL     1      36.139 -24.757 -14.248  0.00  0.00    +0.007 C 
ATOM     12  C   UNL     1      35.074 -25.274 -13.506  0.00  0.00    +0.017 C 
ATOM     13  C   UNL     1      34.612 -22.765 -16.870  0.00  0.00    +0.252 C 
ATOM     14  C   UNL     1      36.756 -23.288 -16.254  0.00  0.00    +0.252 C 
ATOM     15  C   UNL     1      31.085 -23.386 -15.892  0.00  0.00    +0.016 C 
ATOM     16  C   UNL     1      30.126 -24.945 -13.749  0.00  0.00    +0.018 C 
ATOM     17  C   UNL     1      29.710 -23.517 -15.660  0.00  0.00    +0.051 C 
ATOM     18  C   UNL     1      29.239 -24.287 -14.602  0.00  0.00    +0.016 C 
ATOM     19  H   UNL     1      32.489 -25.920 -12.527  0.00  0.00    +0.166 HD
ATOM     20  H   UNL     1      36.301 -22.068 -17.880  0.00  0.00    +0.158 HD
ENDROOT
BRANCH  11  22
ATOM     21 CL   UNL     1      37.366 -23.178 -11.902  0.00  0.00    -0.082 Cl
ATOM     22  C   UNL     1      37.495 -25.082 -13.863  0.00  0.00    +0.011 C 
ATOM     23  C   UNL     1      38.140 -24.427 -12.814  0.00  0.00    +0.058 C 
ATOM     24  C   UNL     1      38.158 -26.084 -14.572  0.00  0.00    +0.001 C 
ATOM     25  C   UNL     1      39.448 -24.772 -12.474  0.00  0.00    +0.011 C 
ATOM     26  C   UNL     1      39.466 -26.429 -14.232  0.00  0.00    +0.000 C 
ATOM     27  C   UNL     1      40.111 -25.773 -13.183  0.00  0.00    +0.001 C 
ENDBRANCH  11  22
BRANCH  17  29
ATOM     28  O   UNL     1      27.438 -24.606 -17.350  0.00  0.00    -0.265 OA
ATOM     29  N   UNL     1      28.804 -22.869 -16.500  0.00  0.00    -0.277 N 
ATOM     30  C   UNL     1      27.779 -23.435 -17.251  0.00  0.00    +0.303 C 
ATOM     31  H   UNL     1      28.901 -21.892 -16.570  0.00  0.00    +0.155 HD
ENDBRANCH  17  29
TORSDOF 2
ENDMDL
MODEL 6
REMARK VINA RESULT:      -9.4      5.306      8.348
REMARK  Name = 24778473
REMARK  2 active torsions:
REMARK  status: ('A' for Active; 'I' for Inactive)
REMARK    1  A    between atoms: C_11  and  C_22
REMARK    2  A    between atoms: C_17  and  N_29
REMARK                            x       y       z     vdW  Elec       q    Type
REMARK                         _______ _______ _______ _____ _____    ______ ____
ROOT
ATOM      1  O   UNL     1      37.496 -21.752 -17.749  0.00  0.00    -0.270 OA
ATOM      2  O   UNL     1      37.499 -19.046 -21.470  0.00  0.00    -0.270 OA
ATOM      3  N   UNL     1      32.364 -22.010 -18.916  0.00  0.00    -0.353 N 
ATOM      4  N   UNL     1      37.870 -20.346 -19.569  0.00  0.00    -0.248 N 
ATOM      5  C   UNL     1      34.565 -21.646 -18.762  0.00  0.00    +0.022 A 
ATOM      6  C   UNL     1      35.749 -21.056 -19.223  0.00  0.00    +0.060 C 
ATOM      7  C   UNL     1      33.414 -21.352 -19.510  0.00  0.00    +0.057 A 
ATOM      8  C   UNL     1      34.163 -22.510 -17.689  0.00  0.00    +0.018 A 
ATOM      9  C   UNL     1      35.756 -20.236 -20.350  0.00  0.00    +0.058 C 
ATOM     10  C   UNL     1      32.787 -22.715 -17.817  0.00  0.00    +0.057 A 
ATOM     11  C   UNL     1      34.621 -19.954 -21.075  0.00  0.00    +0.007 C 
ATOM     12  C   UNL     1      33.416 -20.521 -20.653  0.00  0.00    +0.017 C 
ATOM     13  C   UNL     1      37.120 -21.126 -18.719  0.00  0.00    +0.252 C 
ATOM     14  C   UNL     1      37.126 -19.778 -20.572  0.00  0.00    +0.252 C 
ATOM     15  C   UNL     1      34.824 -23.145 -16.615  0.00  0.00    +0.016 C 
ATOM     16  C   UNL     1      32.048 -23.514 -16.934  0.00  0.00    +0.018 C 
ATOM     17  C   UNL     1      34.099 -23.947 -15.724  0.00  0.00    +0.051 C 
ATOM     18  C   UNL     1      32.730 -24.128 -15.883  0.00  0.00    +0.016 C 
ATOM     19  H   UNL     1      31.434 -21.979 -19.235  0.00  0.00    +0.166 HD
ATOM     20  H   UNL     1      38.839 -20.210 -19.469  0.00  0.00    +0.158 HD
ENDROOT
BRANCH  11  22
ATOM     21 CL   UNL     1      34.856 -16.914 -20.620  0.00  0.00    -0.082 Cl
ATOM     22  C   UNL     1      34.632 -19.103 -22.246  0.00  0.00    +0.011 C 
ATOM     23  C   UNL     1      34.736 -17.716 -22.147  0.00  0.00    +0.058 C 
ATOM     24  C   UNL     1      34.537 -19.708 -23.499  0.00  0.00    +0.001 C 
ATOM     25  C   UNL     1      34.744 -16.933 -23.301  0.00  0.00    +0.011 C 
ATOM     26  C   UNL     1      34.544 -18.925 -24.653  0.00  0.00    +0.000 C 
ATOM     27  C   UNL     1      34.648 -17.538 -24.554  0.00  0.00    +0.001 C 
ENDBRANCH  11  22
BRANCH  17  29
ATOM     28  O   UNL     1      33.352 -24.211 -12.796  0.00  0.00    -0.265 OA
ATOM     29  N   UNL     1      34.760 -24.571 -14.664  0.00  0.00    -0.277 N 
ATOM     30  C   UNL     1      34.356 -24.654 -13.336  0.00  0.00    +0.303 C 
ATOM     31  H   UNL     1      35.615 -25.005 -14.884  0.00  0.00    +0.155 HD
ENDBRANCH  17  29
TORSDOF 2
ENDMDL
MODEL 7
REMARK VINA RESULT:      -9.2      8.998     11.234
REMARK  Name = 24778473
REMARK  2 active torsions:
REMARK  status: ('A' for Active; 'I' for Inactive)
REMARK    1  A    between atoms: C_11  and  C_22
REMARK    2  A    between atoms: C_17  and  N_29
REMARK                            x       y       z     vdW  Elec       q    Type
REMARK                         _______ _______ _______ _____ _____    ______ ____
ROOT
ATOM      1  O   UNL     1      34.333 -17.189 -25.711  0.00  0.00    -0.270 OA
ATOM      2  O   UNL     1      35.210 -20.967 -23.237  0.00  0.00    -0.270 OA
ATOM      3  N   UNL     1      34.482 -14.983 -20.928  0.00  0.00    -0.353 N 
ATOM      4  N   UNL     1      34.770 -19.284 -24.791  0.00  0.00    -0.248 N 
ATOM      5  C   UNL     1      34.499 -16.282 -22.748  0.00  0.00    +0.022 A 
ATOM      6  C   UNL     1      34.637 -17.531 -23.366  0.00  0.00    +0.060 C 
ATOM      7  C   UNL     1      34.648 -16.279 -21.351  0.00  0.00    +0.057 A 
ATOM      8  C   UNL     1      34.234 -14.929 -23.147  0.00  0.00    +0.018 A 
ATOM      9  C   UNL     1      34.904 -18.679 -22.621  0.00  0.00    +0.058 C 
ATOM     10  C   UNL     1      34.231 -14.148 -21.988  0.00  0.00    +0.057 A 
ATOM     11  C   UNL     1      35.047 -18.665 -21.253  0.00  0.00    +0.007 C 
ATOM     12  C   UNL     1      34.918 -17.440 -20.594  0.00  0.00    +0.017 C 
ATOM     13  C   UNL     1      34.551 -17.926 -24.771  0.00  0.00    +0.252 C 
ATOM     14  C   UNL     1      34.989 -19.811 -23.543  0.00  0.00    +0.252 C 
ATOM     15  C   UNL     1      33.995 -14.277 -24.377  0.00  0.00    +0.016 C 
ATOM     16  C   UNL     1      34.003 -12.766 -21.998  0.00  0.00    +0.018 C 
ATOM     17  C   UNL     1      33.765 -12.896 -24.403  0.00  0.00    +0.051 C 
ATOM     18  C   UNL     1      33.770 -12.152 -23.228  0.00  0.00    +0.016 C 
ATOM     19  H   UNL     1      34.535 -14.693 -19.989  0.00  0.00    +0.166 HD
ATOM     20  H   UNL     1      34.770 -19.823 -25.614  0.00  0.00    +0.158 HD
ENDROOT
BRANCH  11  22
ATOM     21 CL   UNL     1      32.642 -20.384 -20.378  0.00  0.00    -0.082 Cl
ATOM     22  C   UNL     1      35.326 -19.859 -20.483  0.00  0.00    +0.011 C 
ATOM     23  C   UNL     1      34.307 -20.703 -20.041  0.00  0.00    +0.058 C 
ATOM     24  C   UNL     1      36.656 -20.156 -20.188  0.00  0.00    +0.001 C 
ATOM     25  C   UNL     1      34.619 -21.845 -19.302  0.00  0.00    +0.011 C 
ATOM     26  C   UNL     1      36.968 -21.297 -19.449  0.00  0.00    +0.000 C 
ATOM     27  C   UNL     1      35.950 -22.141 -19.007  0.00  0.00    +0.001 C 
ENDBRANCH  11  22
BRANCH  17  29
ATOM     28  O   UNL     1      33.903 -13.938 -27.249  0.00  0.00    -0.265 OA
ATOM     29  N   UNL     1      33.529 -12.259 -25.623  0.00  0.00    -0.277 N 
ATOM     30  C   UNL     1      33.611 -12.803 -26.900  0.00  0.00    +0.303 C 
ATOM     31  H   UNL     1      33.272 -11.311 -25.572  0.00  0.00    +0.155 HD
ENDBRANCH  17  29
TORSDOF 2
ENDMDL
MODEL 8
REMARK VINA RESULT:      -9.1      9.955     11.747
REMARK  Name = 24778473
REMARK  2 active torsions:
REMARK  status: ('A' for Active; 'I' for Inactive)
REMARK    1  A    between atoms: C_11  and  C_22
REMARK    2  A    between atoms: C_17  and  N_29
REMARK                            x       y       z     vdW  Elec       q    Type
REMARK                         _______ _______ _______ _____ _____    ______ ____
ROOT
ATOM      1  O   UNL     1      33.530 -13.895 -24.586  0.00  0.00    -0.270 OA
ATOM      2  O   UNL     1      35.504 -17.993 -23.893  0.00  0.00    -0.270 OA
ATOM      3  N   UNL     1      32.726 -14.290 -19.394  0.00  0.00    -0.353 N 
ATOM      4  N   UNL     1      34.598 -15.966 -24.608  0.00  0.00    -0.248 N 
ATOM      5  C   UNL     1      33.254 -14.503 -21.556  0.00  0.00    +0.022 A 
ATOM      6  C   UNL     1      33.827 -15.216 -22.617  0.00  0.00    +0.060 C 
ATOM      7  C   UNL     1      33.332 -15.126 -20.299  0.00  0.00    +0.057 A 
ATOM      8  C   UNL     1      32.572 -13.255 -21.368  0.00  0.00    +0.018 A 
ATOM      9  C   UNL     1      34.427 -16.457 -22.413  0.00  0.00    +0.058 C 
ATOM     10  C   UNL     1      32.259 -13.155 -20.009  0.00  0.00    +0.057 A 
ATOM     11  C   UNL     1      34.497 -17.058 -21.177  0.00  0.00    +0.007 C 
ATOM     12  C   UNL     1      33.939 -16.384 -20.088  0.00  0.00    +0.017 C 
ATOM     13  C   UNL     1      33.939 -14.900 -24.040  0.00  0.00    +0.252 C 
ATOM     14  C   UNL     1      34.924 -16.941 -23.699  0.00  0.00    +0.252 C 
ATOM     15  C   UNL     1      32.184 -12.190 -22.209  0.00  0.00    +0.016 C 
ATOM     16  C   UNL     1      31.585 -12.058 -19.458  0.00  0.00    +0.018 C 
ATOM     17  C   UNL     1      31.510 -11.085 -21.674  0.00  0.00    +0.051 C 
ATOM     18  C   UNL     1      31.215 -11.022 -20.316  0.00  0.00    +0.016 C 
ATOM     19  H   UNL     1      32.638 -14.479 -18.432  0.00  0.00    +0.166 HD
ATOM     20  H   UNL     1      34.813 -16.024 -25.567  0.00  0.00    +0.158 HD
ENDROOT
BRANCH  11  22
ATOM     21 CL   UNL     1      32.644 -19.473 -20.689  0.00  0.00    -0.082 Cl
ATOM     22  C   UNL     1      35.123 -18.347 -20.968  0.00  0.00    +0.011 C 
ATOM     23  C   UNL     1      34.373 -19.500 -20.740  0.00  0.00    +0.058 C 
ATOM     24  C   UNL     1      36.515 -18.415 -21.001  0.00  0.00    +0.001 C 
ATOM     25  C   UNL     1      35.015 -20.723 -20.545  0.00  0.00    +0.011 C 
ATOM     26  C   UNL     1      37.158 -19.638 -20.805  0.00  0.00    +0.000 C 
ATOM     27  C   UNL     1      36.408 -20.791 -20.577  0.00  0.00    +0.001 C 
ENDBRANCH  11  22
BRANCH  17  29
ATOM     28  O   UNL     1      33.029  -8.628 -22.599  0.00  0.00    -0.265 OA
ATOM     29  N   UNL     1      31.129 -10.036 -22.513  0.00  0.00    -0.277 N 
ATOM     30  C   UNL     1      31.883  -8.933 -22.898  0.00  0.00    +0.303 C 
ATOM     31  H   UNL     1      30.216 -10.084 -22.877  0.00  0.00    +0.155 HD
ENDBRANCH  17  29
TORSDOF 2
ENDMDL
MODEL 9
REMARK VINA RESULT:      -8.9      4.091      7.965
REMARK  Name = 24778473
REMARK  2 active torsions:
REMARK  status: ('A' for Active; 'I' for Inactive)
REMARK    1  A    between atoms: C_11  and  C_22
REMARK    2  A    between atoms: C_17  and  N_29
REMARK                            x       y       z     vdW  Elec       q    Type
REMARK                         _______ _______ _______ _____ _____    ______ ____
ROOT
ATOM      1  O   UNL     1      32.672 -23.466 -16.621  0.00  0.00    -0.270 OA
ATOM      2  O   UNL     1      32.729 -20.911 -20.447  0.00  0.00    -0.270 OA
ATOM      3  N   UNL     1      37.856 -22.563 -16.889  0.00  0.00    -0.353 N 
ATOM      4  N   UNL     1      32.325 -22.224 -18.562  0.00  0.00    -0.248 N 
ATOM      5  C   UNL     1      35.638 -22.713 -17.131  0.00  0.00    +0.022 A 
ATOM      6  C   UNL     1      34.454 -22.420 -17.820  0.00  0.00    +0.060 C 
ATOM      7  C   UNL     1      36.809 -22.176 -17.690  0.00  0.00    +0.057 A 
ATOM      8  C   UNL     1      36.025 -23.443 -15.958  0.00  0.00    +0.018 A 
ATOM      9  C   UNL     1      34.465 -21.645 -18.979  0.00  0.00    +0.058 C 
ATOM     10  C   UNL     1      37.413 -23.327 -15.838  0.00  0.00    +0.057 A 
ATOM     11  C   UNL     1      35.619 -21.124 -19.518  0.00  0.00    +0.007 C 
ATOM     12  C   UNL     1      36.825 -21.391 -18.864  0.00  0.00    +0.017 C 
ATOM     13  C   UNL     1      33.066 -22.793 -17.552  0.00  0.00    +0.252 C 
ATOM     14  C   UNL     1      33.090 -21.520 -19.457  0.00  0.00    +0.252 C 
ATOM     15  C   UNL     1      35.343 -24.195 -14.977  0.00  0.00    +0.016 C 
ATOM     16  C   UNL     1      38.142 -23.920 -14.799  0.00  0.00    +0.018 C 
ATOM     17  C   UNL     1      36.058 -24.793 -13.932  0.00  0.00    +0.051 C 
ATOM     18  C   UNL     1      37.439 -24.656 -13.846  0.00  0.00    +0.016 C 
ATOM     19  H   UNL     1      38.797 -22.324 -17.047  0.00  0.00    +0.166 HD
ATOM     20  H   UNL     1      31.347 -22.313 -18.635  0.00  0.00    +0.158 HD
ENDROOT
BRANCH  11  22
ATOM     21 CL   UNL     1      37.700 -18.856 -19.694  0.00  0.00    -0.082 Cl
ATOM     22  C   UNL     1      35.628 -20.319 -20.720  0.00  0.00    +0.011 C 
ATOM     23  C   UNL     1      36.530 -19.271 -20.897  0.00  0.00    +0.058 C 
ATOM     24  C   UNL     1      34.701 -20.619 -21.719  0.00  0.00    +0.001 C 
ATOM     25  C   UNL     1      36.506 -18.520 -22.073  0.00  0.00    +0.011 C 
ATOM     26  C   UNL     1      34.676 -19.868 -22.894  0.00  0.00    +0.000 C 
ATOM     27  C   UNL     1      35.578 -18.819 -23.071  0.00  0.00    +0.001 C 
ENDBRANCH  11  22
BRANCH  17  29
ATOM     28  O   UNL     1      35.022 -24.012 -11.189  0.00  0.00    -0.265 OA
ATOM     29  N   UNL     1      35.376 -25.536 -12.966  0.00  0.00    -0.277 N 
ATOM     30  C   UNL     1      34.927 -25.110 -11.720  0.00  0.00    +0.303 C 
ATOM     31  H   UNL     1      35.189 -26.474 -13.195  0.00  0.00    +0.155 HD
ENDBRANCH  17  29
TORSDOF 2
ENDMDL
