MODEL 1
REMARK VINA RESULT:     -11.2      0.000      0.000
REMARK  Name = 10401956
REMARK  3 active torsions:
REMARK  status: ('A' for Active; 'I' for Inactive)
REMARK    1  A    between atoms: N_1  and  C_13
REMARK    2  A    between atoms: C_8  and  N_20
REMARK    3  A    between atoms: C_21  and  C_23
REMARK                            x       y       z     vdW  Elec       q    Type
REMARK                         _______ _______ _______ _____ _____    ______ ____
ROOT
ATOM      1  N   UNL     1      32.854 -22.611 -18.063  0.00  0.00    -0.301 N 
ATOM      2  N   UNL     1      33.656 -24.554 -14.498  0.00  0.00    -0.248 NA
ATOM      3  N   UNL     1      34.370 -23.711 -16.640  0.00  0.00    -0.233 NA
ATOM      4  C   UNL     1      32.078 -23.439 -15.920  0.00  0.00    +0.117 C 
ATOM      5  C   UNL     1      32.409 -24.106 -14.729  0.00  0.00    +0.067 C 
ATOM      6  C   UNL     1      33.111 -23.274 -16.838  0.00  0.00    +0.115 C 
ATOM      7  C   UNL     1      30.772 -22.975 -16.150  0.00  0.00    +0.001 C 
ATOM      8  C   UNL     1      29.784 -23.173 -15.191  0.00  0.00    +0.047 C 
ATOM      9  C   UNL     1      31.400 -24.290 -13.786  0.00  0.00    +0.016 C 
ATOM     10  C   UNL     1      30.099 -23.831 -14.007  0.00  0.00    +0.016 C 
ATOM     11  C   UNL     1      34.568 -24.332 -15.467  0.00  0.00    +0.251 C 
ATOM     12  H   UNL     1      31.915 -22.609 -18.362  0.00  0.00    +0.153 HD
ENDROOT
BRANCH   1  13
ATOM     13  C   UNL     1      33.754 -21.966 -18.893  0.00  0.00    +0.049 C 
ATOM     14  C   UNL     1      35.129 -22.268 -18.846  0.00  0.00    +0.015 C 
ATOM     15  C   UNL     1      33.320 -20.986 -19.807  0.00  0.00    +0.015 C 
ATOM     16  C   UNL     1      36.035 -21.616 -19.682  0.00  0.00    +0.001 C 
ATOM     17  C   UNL     1      34.229 -20.334 -20.643  0.00  0.00    +0.001 C 
ATOM     18  C   UNL     1      35.586 -20.650 -20.580  0.00  0.00    +0.000 C 
ENDBRANCH   1  13
BRANCH   8  20
ATOM     19  O   UNL     1      27.790 -23.928 -17.305  0.00  0.00    -0.270 OA
ATOM     20  N   UNL     1      28.486 -22.713 -15.413  0.00  0.00    -0.281 N 
ATOM     21  C   UNL     1      27.593 -23.103 -16.422  0.00  0.00    +0.250 C 
ATOM     22  H   UNL     1      28.156 -22.031 -14.785  0.00  0.00    +0.155 HD
BRANCH  21  23
ATOM     23  C   UNL     1      26.295 -22.374 -16.319  0.00  0.00    +0.058 C 
ATOM     24  C   UNL     1      25.921 -21.515 -17.273  0.00  0.00    +0.005 C 
ENDBRANCH  21  23
ENDBRANCH   8  20
TORSDOF 3
ENDMDL
MODEL 2
REMARK VINA RESULT:     -10.4      2.723      3.743
REMARK  Name = 10401956
REMARK  3 active torsions:
REMARK  status: ('A' for Active; 'I' for Inactive)
REMARK    1  A    between atoms: N_1  and  C_13
REMARK    2  A    between atoms: C_8  and  N_20
REMARK    3  A    between atoms: C_21  and  C_23
REMARK                            x       y       z     vdW  Elec       q    Type
REMARK                         _______ _______ _______ _____ _____    ______ ____
ROOT
ATOM      1  N   UNL     1      34.710 -22.768 -17.840  0.00  0.00    -0.301 N 
ATOM      2  N   UNL     1      37.600 -22.935 -14.883  0.00  0.00    -0.248 NA
ATOM      3  N   UNL     1      36.894 -22.306 -17.099  0.00  0.00    -0.233 NA
ATOM      4  C   UNL     1      35.364 -23.425 -15.599  0.00  0.00    +0.117 C 
ATOM      5  C   UNL     1      36.384 -23.453 -14.634  0.00  0.00    +0.067 C 
ATOM      6  C   UNL     1      35.687 -22.833 -16.817  0.00  0.00    +0.115 C 
ATOM      7  C   UNL     1      34.096 -23.968 -15.328  0.00  0.00    +0.001 C 
ATOM      8  C   UNL     1      33.837 -24.545 -14.089  0.00  0.00    +0.047 C 
ATOM      9  C   UNL     1      36.097 -24.037 -13.402  0.00  0.00    +0.016 C 
ATOM     10  C   UNL     1      34.839 -24.579 -13.125  0.00  0.00    +0.016 C 
ATOM     11  C   UNL     1      37.789 -22.390 -16.102  0.00  0.00    +0.251 C 
ATOM     12  H   UNL     1      33.983 -23.431 -17.784  0.00  0.00    +0.153 HD
ENDROOT
BRANCH   1  13
ATOM     13  C   UNL     1      34.645 -21.889 -18.907  0.00  0.00    +0.049 C 
ATOM     14  C   UNL     1      35.815 -21.446 -19.554  0.00  0.00    +0.015 C 
ATOM     15  C   UNL     1      33.406 -21.412 -19.377  0.00  0.00    +0.015 C 
ATOM     16  C   UNL     1      35.749 -20.560 -20.628  0.00  0.00    +0.001 C 
ATOM     17  C   UNL     1      33.341 -20.525 -20.452  0.00  0.00    +0.001 C 
ATOM     18  C   UNL     1      34.513 -20.099 -21.078  0.00  0.00    +0.000 C 
ENDBRANCH   1  13
BRANCH   8  20
ATOM     19  O   UNL     1      31.167 -23.205 -13.792  0.00  0.00    -0.270 OA
ATOM     20  N   UNL     1      32.581 -25.086 -13.814  0.00  0.00    -0.281 N 
ATOM     21  C   UNL     1      31.359 -24.410 -13.686  0.00  0.00    +0.250 C 
ATOM     22  H   UNL     1      32.549 -26.063 -13.695  0.00  0.00    +0.155 HD
BRANCH  21  23
ATOM     23  C   UNL     1      30.240 -25.350 -13.387  0.00  0.00    +0.058 C 
ATOM     24  C   UNL     1      29.361 -25.684 -14.337  0.00  0.00    +0.005 C 
ENDBRANCH  21  23
ENDBRANCH   8  20
TORSDOF 3
ENDMDL
MODEL 3
REMARK VINA RESULT:     -10.0      1.211      1.460
REMARK  Name = 10401956
REMARK  3 active torsions:
REMARK  status: ('A' for Active; 'I' for Inactive)
REMARK    1  A    between atoms: N_1  and  C_13
REMARK    2  A    between atoms: C_8  and  N_20
REMARK    3  A    between atoms: C_21  and  C_23
REMARK                            x       y       z     vdW  Elec       q    Type
REMARK                         _______ _______ _______ _____ _____    ______ ____
ROOT
ATOM      1  N   UNL     1      33.739 -22.715 -17.999  0.00  0.00    -0.301 N 
ATOM      2  N   UNL     1      35.338 -24.017 -14.411  0.00  0.00    -0.248 NA
ATOM      3  N   UNL     1      35.612 -23.165 -16.648  0.00  0.00    -0.233 NA
ATOM      4  C   UNL     1      33.402 -23.572 -15.756  0.00  0.00    +0.117 C 
ATOM      5  C   UNL     1      34.002 -24.003 -14.561  0.00  0.00    +0.067 C 
ATOM      6  C   UNL     1      34.270 -23.163 -16.765  0.00  0.00    +0.115 C 
ATOM      7  C   UNL     1      32.004 -23.561 -15.901  0.00  0.00    +0.001 C 
ATOM      8  C   UNL     1      31.193 -23.983 -14.853  0.00  0.00    +0.047 C 
ATOM      9  C   UNL     1      33.165 -24.419 -13.528  0.00  0.00    +0.016 C 
ATOM     10  C   UNL     1      31.774 -24.412 -13.665  0.00  0.00    +0.016 C 
ATOM     11  C   UNL     1      36.070 -23.597 -15.463  0.00  0.00    +0.251 C 
ATOM     12  H   UNL     1      32.833 -23.032 -18.218  0.00  0.00    +0.153 HD
ENDROOT
BRANCH   1  13
ATOM     13  C   UNL     1      34.333 -21.888 -18.936  0.00  0.00    +0.049 C 
ATOM     14  C   UNL     1      35.734 -21.818 -19.057  0.00  0.00    +0.015 C 
ATOM     15  C   UNL     1      33.552 -21.090 -19.795  0.00  0.00    +0.015 C 
ATOM     16  C   UNL     1      36.332 -20.983 -20.001  0.00  0.00    +0.001 C 
ATOM     17  C   UNL     1      34.151 -20.254 -20.739  0.00  0.00    +0.001 C 
ATOM     18  C   UNL     1      35.541 -20.201 -20.841  0.00  0.00    +0.000 C 
ENDBRANCH   1  13
BRANCH   8  20
ATOM     19  O   UNL     1      29.428 -22.341 -16.644  0.00  0.00    -0.270 OA
ATOM     20  N   UNL     1      29.805 -23.974 -14.991  0.00  0.00    -0.281 N 
ATOM     21  C   UNL     1      29.027 -23.182 -15.849  0.00  0.00    +0.250 C 
ATOM     22  H   UNL     1      29.310 -24.601 -14.416  0.00  0.00    +0.155 HD
BRANCH  21  23
ATOM     23  C   UNL     1      27.572 -23.473 -15.696  0.00  0.00    +0.058 C 
ATOM     24  C   UNL     1      26.702 -22.483 -15.469  0.00  0.00    +0.005 C 
ENDBRANCH  21  23
ENDBRANCH   8  20
TORSDOF 3
ENDMDL
MODEL 4
REMARK VINA RESULT:     -10.0      7.088     10.238
REMARK  Name = 10401956
REMARK  3 active torsions:
REMARK  status: ('A' for Active; 'I' for Inactive)
REMARK    1  A    between atoms: N_1  and  C_13
REMARK    2  A    between atoms: C_8  and  N_20
REMARK    3  A    between atoms: C_21  and  C_23
REMARK                            x       y       z     vdW  Elec       q    Type
REMARK                         _______ _______ _______ _____ _____    ______ ____
ROOT
ATOM      1  N   UNL     1      35.110 -17.258 -21.203  0.00  0.00    -0.301 N 
ATOM      2  N   UNL     1      34.193 -15.744 -24.944  0.00  0.00    -0.248 NA
ATOM      3  N   UNL     1      35.192 -17.434 -23.547  0.00  0.00    -0.233 NA
ATOM      4  C   UNL     1      34.087 -15.526 -22.557  0.00  0.00    +0.117 C 
ATOM      5  C   UNL     1      33.805 -15.061 -23.852  0.00  0.00    +0.067 C 
ATOM      6  C   UNL     1      34.788 -16.726 -22.476  0.00  0.00    +0.115 C 
ATOM      7  C   UNL     1      33.675 -14.804 -21.424  0.00  0.00    +0.001 C 
ATOM      8  C   UNL     1      32.977 -13.610 -21.575  0.00  0.00    +0.047 C 
ATOM      9  C   UNL     1      33.104 -13.863 -23.974  0.00  0.00    +0.016 C 
ATOM     10  C   UNL     1      32.691 -13.139 -22.851  0.00  0.00    +0.016 C 
ATOM     11  C   UNL     1      34.866 -16.893 -24.731  0.00  0.00    +0.251 C 
ATOM     12  H   UNL     1      35.139 -16.611 -20.461  0.00  0.00    +0.153 HD
ENDROOT
BRANCH   1  13
ATOM     13  C   UNL     1      35.386 -18.572 -20.870  0.00  0.00    +0.049 C 
ATOM     14  C   UNL     1      34.353 -19.520 -20.738  0.00  0.00    +0.015 C 
ATOM     15  C   UNL     1      36.711 -19.000 -20.652  0.00  0.00    +0.015 C 
ATOM     16  C   UNL     1      34.632 -20.844 -20.401  0.00  0.00    +0.001 C 
ATOM     17  C   UNL     1      36.989 -20.325 -20.315  0.00  0.00    +0.001 C 
ATOM     18  C   UNL     1      35.950 -21.247 -20.189  0.00  0.00    +0.000 C 
ENDBRANCH   1  13
BRANCH   8  20
ATOM     19  O   UNL     1      30.582 -11.844 -21.169  0.00  0.00    -0.270 OA
ATOM     20  N   UNL     1      32.565 -12.890 -20.453  0.00  0.00    -0.281 N 
ATOM     21  C   UNL     1      31.431 -12.076 -20.318  0.00  0.00    +0.250 C 
ATOM     22  H   UNL     1      33.143 -12.962 -19.659  0.00  0.00    +0.155 HD
BRANCH  21  23
ATOM     23  C   UNL     1      31.345 -11.477 -18.954  0.00  0.00    +0.058 C 
ATOM     24  C   UNL     1      31.784 -10.234 -18.729  0.00  0.00    +0.005 C 
ENDBRANCH  21  23
ENDBRANCH   8  20
TORSDOF 3
ENDMDL
MODEL 5
REMARK VINA RESULT:      -9.8     10.780     13.687
REMARK  Name = 10401956
REMARK  3 active torsions:
REMARK  status: ('A' for Active; 'I' for Inactive)
REMARK    1  A    between atoms: N_1  and  C_13
REMARK    2  A    between atoms: C_8  and  N_20
REMARK    3  A    between atoms: C_21  and  C_23
REMARK                            x       y       z     vdW  Elec       q    Type
REMARK                         _______ _______ _______ _____ _____    ______ ____
ROOT
ATOM      1  N   UNL     1      32.919 -13.046 -23.386  0.00  0.00    -0.301 N 
ATOM      2  N   UNL     1      31.609 -12.140 -19.566  0.00  0.00    -0.248 NA
ATOM      3  N   UNL     1      32.195 -13.750 -21.262  0.00  0.00    -0.233 NA
ATOM      4  C   UNL     1      32.343 -11.381 -21.720  0.00  0.00    +0.117 C 
ATOM      5  C   UNL     1      31.894 -11.134 -20.412  0.00  0.00    +0.067 C 
ATOM      6  C   UNL     1      32.472 -12.719 -22.083  0.00  0.00    +0.115 C 
ATOM      7  C   UNL     1      32.638 -10.321 -22.595  0.00  0.00    +0.001 C 
ATOM      8  C   UNL     1      32.487  -9.005 -22.170  0.00  0.00    +0.047 C 
ATOM      9  C   UNL     1      31.752  -9.807 -20.013  0.00  0.00    +0.016 C 
ATOM     10  C   UNL     1      32.044  -8.748 -20.878  0.00  0.00    +0.016 C 
ATOM     11  C   UNL     1      31.775 -13.393 -20.038  0.00  0.00    +0.251 C 
ATOM     12  H   UNL     1      32.785 -12.353 -24.074  0.00  0.00    +0.153 HD
ENDROOT
BRANCH   1  13
ATOM     13  C   UNL     1      33.520 -14.215 -23.816  0.00  0.00    +0.049 C 
ATOM     14  C   UNL     1      34.512 -14.848 -23.042  0.00  0.00    +0.015 C 
ATOM     15  C   UNL     1      33.160 -14.806 -25.044  0.00  0.00    +0.015 C 
ATOM     16  C   UNL     1      35.119 -16.026 -23.476  0.00  0.00    +0.001 C 
ATOM     17  C   UNL     1      33.768 -15.984 -25.477  0.00  0.00    +0.001 C 
ATOM     18  C   UNL     1      34.747 -16.594 -24.694  0.00  0.00    +0.000 C 
ENDBRANCH   1  13
BRANCH   8  20
ATOM     19  O   UNL     1      30.720  -6.829 -23.248  0.00  0.00    -0.270 OA
ATOM     20  N   UNL     1      32.779  -7.950 -23.034  0.00  0.00    -0.281 N 
ATOM     21  C   UNL     1      31.910  -6.956 -23.508  0.00  0.00    +0.250 C 
ATOM     22  H   UNL     1      33.710  -7.896 -23.351  0.00  0.00    +0.155 HD
BRANCH  21  23
ATOM     23  C   UNL     1      32.609  -6.003 -24.419  0.00  0.00    +0.058 C 
ATOM     24  C   UNL     1      33.927  -6.102 -24.624  0.00  0.00    +0.005 C 
ENDBRANCH  21  23
ENDBRANCH   8  20
TORSDOF 3
ENDMDL
MODEL 6
REMARK VINA RESULT:      -9.8     10.781     13.712
REMARK  Name = 10401956
REMARK  3 active torsions:
REMARK  status: ('A' for Active; 'I' for Inactive)
REMARK    1  A    between atoms: N_1  and  C_13
REMARK    2  A    between atoms: C_8  and  N_20
REMARK    3  A    between atoms: C_21  and  C_23
REMARK                            x       y       z     vdW  Elec       q    Type
REMARK                         _______ _______ _______ _____ _____    ______ ____
ROOT
ATOM      1  N   UNL     1      32.920 -13.030 -23.381  0.00  0.00    -0.301 N 
ATOM      2  N   UNL     1      31.616 -12.151 -19.553  0.00  0.00    -0.248 NA
ATOM      3  N   UNL     1      32.199 -13.748 -21.261  0.00  0.00    -0.233 NA
ATOM      4  C   UNL     1      32.347 -11.376 -21.703  0.00  0.00    +0.117 C 
ATOM      5  C   UNL     1      31.900 -11.139 -20.393  0.00  0.00    +0.067 C 
ATOM      6  C   UNL     1      32.475 -12.711 -22.075  0.00  0.00    +0.115 C 
ATOM      7  C   UNL     1      32.641 -10.310 -22.571  0.00  0.00    +0.001 C 
ATOM      8  C   UNL     1      32.491  -8.997 -22.136  0.00  0.00    +0.047 C 
ATOM      9  C   UNL     1      31.759  -9.814 -19.984  0.00  0.00    +0.016 C 
ATOM     10  C   UNL     1      32.050  -8.749 -20.841  0.00  0.00    +0.016 C 
ATOM     11  C   UNL     1      31.781 -13.400 -20.034  0.00  0.00    +0.251 C 
ATOM     12  H   UNL     1      32.786 -12.332 -24.064  0.00  0.00    +0.153 HD
ENDROOT
BRANCH   1  13
ATOM     13  C   UNL     1      33.521 -14.196 -23.820  0.00  0.00    +0.049 C 
ATOM     14  C   UNL     1      33.156 -14.782 -25.048  0.00  0.00    +0.015 C 
ATOM     15  C   UNL     1      34.515 -14.832 -23.051  0.00  0.00    +0.015 C 
ATOM     16  C   UNL     1      33.762 -15.958 -25.489  0.00  0.00    +0.001 C 
ATOM     17  C   UNL     1      35.120 -16.009 -23.494  0.00  0.00    +0.001 C 
ATOM     18  C   UNL     1      34.743 -16.572 -24.713  0.00  0.00    +0.000 C 
ENDBRANCH   1  13
BRANCH   8  20
ATOM     19  O   UNL     1      30.707  -6.855 -23.253  0.00  0.00    -0.270 OA
ATOM     20  N   UNL     1      32.782  -7.936 -22.993  0.00  0.00    -0.281 N 
ATOM     21  C   UNL     1      31.905  -6.958 -23.486  0.00  0.00    +0.250 C 
ATOM     22  H   UNL     1      33.718  -7.864 -23.289  0.00  0.00    +0.155 HD
BRANCH  21  23
ATOM     23  C   UNL     1      32.606  -5.992 -24.381  0.00  0.00    +0.058 C 
ATOM     24  C   UNL     1      33.912  -6.126 -24.635  0.00  0.00    +0.005 C 
ENDBRANCH  21  23
ENDBRANCH   8  20
TORSDOF 3
ENDMDL
MODEL 7
REMARK VINA RESULT:      -9.7      1.908      2.820
REMARK  Name = 10401956
REMARK  3 active torsions:
REMARK  status: ('A' for Active; 'I' for Inactive)
REMARK    1  A    between atoms: N_1  and  C_13
REMARK    2  A    between atoms: C_8  and  N_20
REMARK    3  A    between atoms: C_21  and  C_23
REMARK                            x       y       z     vdW  Elec       q    Type
REMARK                         _______ _______ _______ _____ _____    ______ ____
ROOT
ATOM      1  N   UNL     1      34.650 -22.251 -18.624  0.00  0.00    -0.301 N 
ATOM      2  N   UNL     1      36.500 -23.300 -15.074  0.00  0.00    -0.248 NA
ATOM      3  N   UNL     1      36.585 -22.359 -17.290  0.00  0.00    -0.233 NA
ATOM      4  C   UNL     1      34.504 -23.210 -16.401  0.00  0.00    +0.117 C 
ATOM      5  C   UNL     1      35.186 -23.545 -15.219  0.00  0.00    +0.067 C 
ATOM      6  C   UNL     1      35.268 -22.616 -17.402  0.00  0.00    +0.115 C 
ATOM      7  C   UNL     1      33.130 -23.469 -16.542  0.00  0.00    +0.001 C 
ATOM      8  C   UNL     1      32.424 -24.066 -15.502  0.00  0.00    +0.047 C 
ATOM      9  C   UNL     1      34.455 -24.140 -14.194  0.00  0.00    +0.016 C 
ATOM     10  C   UNL     1      33.087 -24.402 -14.326  0.00  0.00    +0.016 C 
ATOM     11  C   UNL     1      37.128 -22.721 -16.117  0.00  0.00    +0.251 C 
ATOM     12  H   UNL     1      33.821 -22.733 -18.848  0.00  0.00    +0.153 HD
ENDROOT
BRANCH   1  13
ATOM     13  C   UNL     1      35.063 -21.302 -19.541  0.00  0.00    +0.049 C 
ATOM     14  C   UNL     1      34.129 -20.593 -20.322  0.00  0.00    +0.015 C 
ATOM     15  C   UNL     1      36.431 -21.018 -19.723  0.00  0.00    +0.015 C 
ATOM     16  C   UNL     1      34.546 -19.637 -21.247  0.00  0.00    +0.001 C 
ATOM     17  C   UNL     1      36.847 -20.061 -20.649  0.00  0.00    +0.001 C 
ATOM     18  C   UNL     1      35.905 -19.371 -21.411  0.00  0.00    +0.000 C 
ENDBRANCH   1  13
BRANCH   8  20
ATOM     19  O   UNL     1      30.060 -22.775 -14.174  0.00  0.00    -0.270 OA
ATOM     20  N   UNL     1      31.060 -24.325 -15.636  0.00  0.00    -0.281 N 
ATOM     21  C   UNL     1      29.992 -23.688 -14.988  0.00  0.00    +0.250 C 
ATOM     22  H   UNL     1      30.818 -25.045 -16.263  0.00  0.00    +0.155 HD
BRANCH  21  23
ATOM     23  C   UNL     1      28.678 -24.259 -15.403  0.00  0.00    +0.058 C 
ATOM     24  C   UNL     1      28.201 -24.041 -16.633  0.00  0.00    +0.005 C 
ENDBRANCH  21  23
ENDBRANCH   8  20
TORSDOF 3
ENDMDL
MODEL 8
REMARK VINA RESULT:      -9.7     10.932     13.743
REMARK  Name = 10401956
REMARK  3 active torsions:
REMARK  status: ('A' for Active; 'I' for Inactive)
REMARK    1  A    between atoms: N_1  and  C_13
REMARK    2  A    between atoms: C_8  and  N_20
REMARK    3  A    between atoms: C_21  and  C_23
REMARK                            x       y       z     vdW  Elec       q    Type
REMARK                         _______ _______ _______ _____ _____    ______ ____
ROOT
ATOM      1  N   UNL     1      32.741  -9.476 -22.412  0.00  0.00    -0.301 N 
ATOM      2  N   UNL     1      31.588 -11.441 -18.957  0.00  0.00    -0.248 NA
ATOM      3  N   UNL     1      32.012  -9.406 -20.176  0.00  0.00    -0.233 NA
ATOM      4  C   UNL     1      32.331 -11.556 -21.235  0.00  0.00    +0.117 C 
ATOM      5  C   UNL     1      31.932 -12.168 -20.035  0.00  0.00    +0.067 C 
ATOM      6  C   UNL     1      32.349 -10.164 -21.238  0.00  0.00    +0.115 C 
ATOM      7  C   UNL     1      32.687 -12.326 -22.356  0.00  0.00    +0.001 C 
ATOM      8  C   UNL     1      32.648 -13.715 -22.287  0.00  0.00    +0.047 C 
ATOM      9  C   UNL     1      31.901 -13.560 -19.995  0.00  0.00    +0.016 C 
ATOM     10  C   UNL     1      32.254 -14.332 -21.105  0.00  0.00    +0.016 C 
ATOM     11  C   UNL     1      31.647 -10.100 -19.087  0.00  0.00    +0.251 C 
ATOM     12  H   UNL     1      33.305  -9.983 -23.041  0.00  0.00    +0.153 HD
ENDROOT
BRANCH   1  13
ATOM     13  C   UNL     1      32.432  -8.181 -22.788  0.00  0.00    +0.049 C 
ATOM     14  C   UNL     1      33.445  -7.267 -23.141  0.00  0.00    +0.015 C 
ATOM     15  C   UNL     1      31.095  -7.738 -22.829  0.00  0.00    +0.015 C 
ATOM     16  C   UNL     1      33.133  -5.962 -23.519  0.00  0.00    +0.001 C 
ATOM     17  C   UNL     1      30.785  -6.432 -23.207  0.00  0.00    +0.001 C 
ATOM     18  C   UNL     1      31.804  -5.544 -23.553  0.00  0.00    +0.000 C 
ENDBRANCH   1  13
BRANCH   8  20
ATOM     19  O   UNL     1      35.152 -15.271 -22.858  0.00  0.00    -0.270 OA
ATOM     20  N   UNL     1      33.000 -14.484 -23.396  0.00  0.00    -0.281 N 
ATOM     21  C   UNL     1      34.190 -15.194 -23.612  0.00  0.00    +0.250 C 
ATOM     22  H   UNL     1      32.331 -14.534 -24.117  0.00  0.00    +0.155 HD
BRANCH  21  23
ATOM     23  C   UNL     1      34.182 -15.893 -24.930  0.00  0.00    +0.058 C 
ATOM     24  C   UNL     1      33.296 -15.555 -25.873  0.00  0.00    +0.005 C 
ENDBRANCH  21  23
ENDBRANCH   8  20
TORSDOF 3
ENDMDL
MODEL 9
REMARK VINA RESULT:      -9.4      2.306      3.916
REMARK  Name = 10401956
REMARK  3 active torsions:
REMARK  status: ('A' for Active; 'I' for Inactive)
REMARK    1  A    between atoms: N_1  and  C_13
REMARK    2  A    between atoms: C_8  and  N_20
REMARK    3  A    between atoms: C_21  and  C_23
REMARK                            x       y       z     vdW  Elec       q    Type
REMARK                         _______ _______ _______ _____ _____    ______ ____
ROOT
ATOM      1  N   UNL     1      34.347 -20.809 -20.492  0.00  0.00    -0.301 N 
ATOM      2  N   UNL     1      36.799 -22.345 -17.533  0.00  0.00    -0.248 NA
ATOM      3  N   UNL     1      36.496 -21.122 -19.587  0.00  0.00    -0.233 NA
ATOM      4  C   UNL     1      34.591 -22.049 -18.422  0.00  0.00    +0.117 C 
ATOM      5  C   UNL     1      35.472 -22.547 -17.449  0.00  0.00    +0.067 C 
ATOM      6  C   UNL     1      35.172 -21.341 -19.471  0.00  0.00    +0.115 C 
ATOM      7  C   UNL     1      33.206 -22.265 -18.323  0.00  0.00    +0.001 C 
ATOM      8  C   UNL     1      32.689 -22.981 -17.248  0.00  0.00    +0.047 C 
ATOM      9  C   UNL     1      34.927 -23.260 -16.383  0.00  0.00    +0.016 C 
ATOM     10  C   UNL     1      33.550 -23.479 -16.277  0.00  0.00    +0.016 C 
ATOM     11  C   UNL     1      37.238 -21.644 -18.598  0.00  0.00    +0.251 C 
ATOM     12  H   UNL     1      33.471 -21.244 -20.608  0.00  0.00    +0.153 HD
ENDROOT
BRANCH   1  13
ATOM     13  C   UNL     1      34.616 -19.754 -21.346  0.00  0.00    +0.049 C 
ATOM     14  C   UNL     1      34.861 -18.460 -20.846  0.00  0.00    +0.015 C 
ATOM     15  C   UNL     1      34.651 -19.944 -22.742  0.00  0.00    +0.015 C 
ATOM     16  C   UNL     1      35.130 -17.397 -21.708  0.00  0.00    +0.001 C 
ATOM     17  C   UNL     1      34.920 -18.879 -23.603  0.00  0.00    +0.001 C 
ATOM     18  C   UNL     1      35.160 -17.606 -23.086  0.00  0.00    +0.000 C 
ENDBRANCH   1  13
BRANCH   8  20
ATOM     19  O   UNL     1      30.892 -22.946 -14.843  0.00  0.00    -0.270 OA
ATOM     20  N   UNL     1      31.315 -23.198 -17.144  0.00  0.00    -0.281 N 
ATOM     21  C   UNL     1      30.521 -23.169 -15.988  0.00  0.00    +0.250 C 
ATOM     22  H   UNL     1      30.844 -23.397 -17.986  0.00  0.00    +0.155 HD
BRANCH  21  23
ATOM     23  C   UNL     1      29.089 -23.455 -16.298  0.00  0.00    +0.058 C 
ATOM     24  C   UNL     1      28.127 -23.118 -15.433  0.00  0.00    +0.005 C 
ENDBRANCH  21  23
ENDBRANCH   8  20
TORSDOF 3
ENDMDL
