MODEL 1
REMARK VINA RESULT:     -11.9      0.000      0.000
REMARK  Name = 11634458
REMARK  5 active torsions:
REMARK  status: ('A' for Active; 'I' for Inactive)
REMARK    1  A    between atoms: N_3  and  C_11
REMARK    2  A    between atoms: C_4  and  C_19
REMARK    3  A    between atoms: C_5  and  O_35
REMARK    4  A    between atoms: N_18  and  C_22
REMARK    5  A    between atoms: C_25  and  N_29
REMARK                            x       y       z     vdW  Elec       q    Type
REMARK                         _______ _______ _______ _____ _____    ______ ____
ROOT
ATOM      1  O   UNL     1      32.154 -24.087 -13.009  0.00  0.00    -0.252 OA
ATOM      2  N   UNL     1      33.956 -24.423 -14.393  0.00  0.00    -0.255 N 
ATOM      3  N   UNL     1      31.871 -23.864 -15.313  0.00  0.00    -0.268 N 
ATOM      4  C   UNL     1      34.610 -24.658 -15.679  0.00  0.00    +0.156 C 
ATOM      5  C   UNL     1      36.233 -24.888 -13.915  0.00  0.00    +0.137 C 
ATOM      6  C   UNL     1      35.920 -25.365 -15.332  0.00  0.00    +0.061 C 
ATOM      7  C   UNL     1      34.862 -24.709 -13.282  0.00  0.00    +0.125 C 
ATOM      8  C   UNL     1      32.607 -24.120 -14.155  0.00  0.00    +0.308 C 
ATOM      9  H   UNL     1      32.366 -23.926 -16.162  0.00  0.00    +0.156 HD
ENDROOT
BRANCH   3  11
ATOM     10 CL   UNL     1      26.136 -22.446 -15.737  0.00  0.00    -0.082 Cl
ATOM     11  C   UNL     1      30.500 -23.525 -15.415  0.00  0.00    +0.052 C 
ATOM     12  C   UNL     1      29.898 -22.766 -14.415  0.00  0.00    +0.016 C 
ATOM     13  C   UNL     1      29.760 -23.953 -16.514  0.00  0.00    +0.016 C 
ATOM     14  C   UNL     1      28.547 -22.432 -14.514  0.00  0.00    +0.013 C 
ATOM     15  C   UNL     1      28.410 -23.619 -16.614  0.00  0.00    +0.013 C 
ATOM     16  C   UNL     1      27.803 -22.859 -15.614  0.00  0.00    +0.058 C 
ENDBRANCH   3  11
BRANCH   4  19
ATOM     17  O   UNL     1      35.325 -22.394 -15.687  0.00  0.00    -0.273 OA
ATOM     18  N   UNL     1      34.525 -23.361 -17.677  0.00  0.00    -0.281 N 
ATOM     19  C   UNL     1      34.869 -23.333 -16.332  0.00  0.00    +0.244 C 
ATOM     20  H   UNL     1      34.169 -24.214 -18.018  0.00  0.00    +0.155 HD
BRANCH  18  22
ATOM     21  F   UNL     1      36.996 -22.393 -18.493  0.00  0.00    -0.203 F 
ATOM     22  C   UNL     1      34.626 -22.307 -18.615  0.00  0.00    +0.078 C 
ATOM     23  C   UNL     1      35.877 -21.853 -18.996  0.00  0.00    +0.155 C 
ATOM     24  C   UNL     1      33.467 -21.750 -19.132  0.00  0.00    +0.018 C 
ATOM     25  C   UNL     1      34.816 -20.241 -20.450  0.00  0.00    +0.061 C 
ATOM     26  C   UNL     1      35.973 -20.812 -19.920  0.00  0.00    +0.046 C 
ATOM     27  C   UNL     1      33.564 -20.710 -20.056  0.00  0.00    +0.017 C 
BRANCH  25  29
ATOM     28  O   UNL     1      35.038 -20.565 -23.316  0.00  0.00    -0.269 OA
ATOM     29  N   UNL     1      34.916 -19.159 -21.411  0.00  0.00    -0.233 N 
ATOM     30  C   UNL     1      34.980 -19.449 -22.798  0.00  0.00    +0.257 C 
ATOM     31  C   UNL     1      34.974 -17.832 -20.980  0.00  0.00    +0.072 C 
ATOM     32  C   UNL     1      35.033 -18.274 -23.722  0.00  0.00    +0.059 C 
ATOM     33  C   UNL     1      35.056 -16.800 -21.826  0.00  0.00    +0.017 C 
ATOM     34  C   UNL     1      35.078 -17.031 -23.238  0.00  0.00    +0.006 C 
ENDBRANCH  25  29
ENDBRANCH  18  22
ENDBRANCH   4  19
BRANCH   5  35
ATOM     35  O   UNL     1      36.919 -23.642 -13.969  0.00  0.00    -0.352 OA
ATOM     36  C   UNL     1      37.192 -23.141 -12.668  0.00  0.00    +0.174 C 
ENDBRANCH   5  35
TORSDOF 5
ENDMDL
MODEL 2
REMARK VINA RESULT:     -11.8      1.430      1.805
REMARK  Name = 11634458
REMARK  5 active torsions:
REMARK  status: ('A' for Active; 'I' for Inactive)
REMARK    1  A    between atoms: N_3  and  C_11
REMARK    2  A    between atoms: C_4  and  C_19
REMARK    3  A    between atoms: C_5  and  O_35
REMARK    4  A    between atoms: N_18  and  C_22
REMARK    5  A    between atoms: C_25  and  N_29
REMARK                            x       y       z     vdW  Elec       q    Type
REMARK                         _______ _______ _______ _____ _____    ______ ____
ROOT
ATOM      1  O   UNL     1      32.229 -23.979 -12.365  0.00  0.00    -0.252 OA
ATOM      2  N   UNL     1      34.153 -24.513 -13.501  0.00  0.00    -0.255 N 
ATOM      3  N   UNL     1      32.181 -24.072 -14.694  0.00  0.00    -0.268 N 
ATOM      4  C   UNL     1      34.926 -24.926 -14.671  0.00  0.00    +0.156 C 
ATOM      5  C   UNL     1      36.361 -24.922 -12.738  0.00  0.00    +0.137 C 
ATOM      6  C   UNL     1      36.181 -25.587 -14.101  0.00  0.00    +0.061 C 
ATOM      7  C   UNL     1      34.938 -24.649 -12.276  0.00  0.00    +0.125 C 
ATOM      8  C   UNL     1      32.793 -24.171 -13.444  0.00  0.00    +0.308 C 
ATOM      9  H   UNL     1      32.756 -24.252 -15.473  0.00  0.00    +0.156 HD
ENDROOT
BRANCH   3  11
ATOM     10 CL   UNL     1      26.546 -22.689 -15.884  0.00  0.00    -0.082 Cl
ATOM     11  C   UNL     1      30.833 -23.741 -14.979  0.00  0.00    +0.052 C 
ATOM     12  C   UNL     1      30.245 -22.641 -14.361  0.00  0.00    +0.016 C 
ATOM     13  C   UNL     1      30.104 -24.518 -15.875  0.00  0.00    +0.016 C 
ATOM     14  C   UNL     1      28.917 -22.315 -14.640  0.00  0.00    +0.013 C 
ATOM     15  C   UNL     1      28.777 -24.192 -16.155  0.00  0.00    +0.013 C 
ATOM     16  C   UNL     1      28.183 -23.091 -15.538  0.00  0.00    +0.058 C 
ENDBRANCH   3  11
BRANCH   4  19
ATOM     17  O   UNL     1      35.865 -22.763 -14.948  0.00  0.00    -0.273 OA
ATOM     18  N   UNL     1      34.842 -23.823 -16.782  0.00  0.00    -0.281 N 
ATOM     19  C   UNL     1      35.275 -23.704 -15.468  0.00  0.00    +0.244 C 
ATOM     20  H   UNL     1      34.379 -24.660 -17.015  0.00  0.00    +0.155 HD
BRANCH  18  22
ATOM     21  F   UNL     1      32.641 -22.883 -18.191  0.00  0.00    -0.203 F 
ATOM     22  C   UNL     1      34.988 -22.879 -17.827  0.00  0.00    +0.078 C 
ATOM     23  C   UNL     1      33.866 -22.435 -18.504  0.00  0.00    +0.155 C 
ATOM     24  C   UNL     1      36.255 -22.420 -18.148  0.00  0.00    +0.018 C 
ATOM     25  C   UNL     1      35.282 -21.034 -19.871  0.00  0.00    +0.061 C 
ATOM     26  C   UNL     1      34.013 -21.506 -19.534  0.00  0.00    +0.046 C 
ATOM     27  C   UNL     1      36.403 -21.491 -19.178  0.00  0.00    +0.017 C 
BRANCH  25  29
ATOM     28  O   UNL     1      37.374 -19.043 -20.040  0.00  0.00    -0.269 OA
ATOM     29  N   UNL     1      35.435 -20.067 -20.942  0.00  0.00    -0.233 N 
ATOM     30  C   UNL     1      36.531 -19.166 -20.929  0.00  0.00    +0.257 C 
ATOM     31  C   UNL     1      34.499 -20.001 -21.976  0.00  0.00    +0.072 C 
ATOM     32  C   UNL     1      36.641 -18.236 -22.095  0.00  0.00    +0.059 C 
ATOM     33  C   UNL     1      34.602 -19.137 -22.990  0.00  0.00    +0.017 C 
ATOM     34  C   UNL     1      35.711 -18.233 -23.052  0.00  0.00    +0.006 C 
ENDBRANCH  25  29
ENDBRANCH  18  22
ENDBRANCH   4  19
BRANCH   5  35
ATOM     35  O   UNL     1      37.074 -23.700 -12.891  0.00  0.00    -0.352 OA
ATOM     36  C   UNL     1      37.371 -23.109 -11.634  0.00  0.00    +0.174 C 
ENDBRANCH   5  35
TORSDOF 5
ENDMDL
