MODEL 1
REMARK VINA RESULT:     -11.8      0.000      0.000
REMARK  Name = 11560787
REMARK  5 active torsions:
REMARK  status: ('A' for Active; 'I' for Inactive)
REMARK    1  A    between atoms: N_2  and  C_23
REMARK    2  A    between atoms: C_8  and  C_9
REMARK    3  A    between atoms: C_12  and  N_15
REMARK    4  A    between atoms: C_13  and  O_21
REMARK    5  A    between atoms: C_23  and  C_26
REMARK                            x       y       z     vdW  Elec       q    Type
REMARK                         _______ _______ _______ _____ _____    ______ ____
ROOT
ATOM      1  O   UNL     1      35.072 -16.678 -24.054  0.00  0.00    -0.270 OA
ATOM      2  N   UNL     1      35.006 -17.370 -21.841  0.00  0.00    -0.274 N 
ATOM      3  C   UNL     1      34.590 -17.142 -20.458  0.00  0.00    +0.094 C 
ATOM      4  C   UNL     1      34.594 -15.673 -20.084  0.00  0.00    +0.026 C 
ATOM      5  C   UNL     1      33.727 -14.911 -21.070  0.00  0.00    +0.033 C 
ATOM      6  C   UNL     1      34.207 -15.133 -22.472  0.00  0.00    +0.031 C 
ATOM      7  C   UNL     1      34.796 -16.454 -22.874  0.00  0.00    +0.245 C 
ATOM      8  C   UNL     1      34.156 -14.160 -23.395  0.00  0.00    +0.000 C 
ENDROOT
BRANCH   8   9
ATOM      9  C   UNL     1      33.617 -12.807 -23.186  0.00  0.00    +0.003 C 
ATOM     10  C   UNL     1      32.542 -12.628 -22.330  0.00  0.00    +0.038 C 
ATOM     11  C   UNL     1      34.195 -11.734 -23.848  0.00  0.00    +0.001 C 
ATOM     12  C   UNL     1      32.602 -10.257 -22.790  0.00  0.00    +0.084 C 
ATOM     13  C   UNL     1      32.031 -11.345 -22.131  0.00  0.00    +0.152 C 
ATOM     14  C   UNL     1      33.685 -10.452 -23.649  0.00  0.00    +0.018 C 
BRANCH  12  15
ATOM     15  N   UNL     1      32.107  -8.978 -22.606  0.00  0.00    -0.280 N 
ATOM     16  N   UNL     1      30.924  -7.124 -22.962  0.00  0.00    -0.255 NA
ATOM     17  C   UNL     1      32.438  -8.113 -21.595  0.00  0.00    +0.134 C 
ATOM     18  C   UNL     1      31.193  -8.334 -23.400  0.00  0.00    +0.220 C 
ATOM     19  C   UNL     1      31.696  -6.981 -21.836  0.00  0.00    +0.054 C 
ATOM     20  C   UNL     1      31.661  -5.732 -21.059  0.00  0.00    +0.049 C 
ENDBRANCH  12  15
BRANCH  13  21
ATOM     21  O   UNL     1      30.973 -11.180 -21.287  0.00  0.00    -0.470 OA
ATOM     22  C   UNL     1      31.181 -11.515 -19.917  0.00  0.00    +0.253 C 
ENDBRANCH  13  21
ENDBRANCH   8   9
BRANCH   2  23
ATOM     23  C   UNL     1      35.522 -18.699 -22.143  0.00  0.00    +0.098 C 
ATOM     24  C   UNL     1      37.053 -18.667 -22.131  0.00  0.00    +0.026 C 
BRANCH  23  26
ATOM     25  F   UNL     1      33.489 -22.556 -18.596  0.00  0.00    -0.204 F 
ATOM     26  C   UNL     1      34.973 -19.740 -21.186  0.00  0.00    -0.004 C 
ATOM     27  C   UNL     1      35.857 -20.511 -20.454  0.00  0.00    -0.000 C 
ATOM     28  C   UNL     1      33.604 -19.891 -21.070  0.00  0.00    -0.000 C 
ATOM     29  C   UNL     1      35.352 -21.468 -19.573  0.00  0.00    +0.029 C 
ATOM     30  C   UNL     1      33.100 -20.848 -20.189  0.00  0.00    +0.029 C 
ATOM     31  C   UNL     1      33.973 -21.636 -19.441  0.00  0.00    +0.140 C 
ENDBRANCH  23  26
ENDBRANCH   2  23
TORSDOF 5
ENDMDL
MODEL 2
REMARK VINA RESULT:     -11.2      5.616     12.228
REMARK  Name = 11560787
REMARK  5 active torsions:
REMARK  status: ('A' for Active; 'I' for Inactive)
REMARK    1  A    between atoms: N_2  and  C_23
REMARK    2  A    between atoms: C_8  and  C_9
REMARK    3  A    between atoms: C_12  and  N_15
REMARK    4  A    between atoms: C_13  and  O_21
REMARK    5  A    between atoms: C_23  and  C_26
REMARK                            x       y       z     vdW  Elec       q    Type
REMARK                         _______ _______ _______ _____ _____    ______ ____
ROOT
ATOM      1  O   UNL     1      37.387 -19.945 -20.778  0.00  0.00    -0.270 OA
ATOM      2  N   UNL     1      35.155 -19.960 -21.407  0.00  0.00    -0.274 N 
ATOM      3  C   UNL     1      33.756 -20.249 -21.095  0.00  0.00    +0.094 C 
ATOM      4  C   UNL     1      33.599 -21.469 -20.207  0.00  0.00    +0.026 C 
ATOM      5  C   UNL     1      34.432 -21.276 -18.953  0.00  0.00    +0.033 C 
ATOM      6  C   UNL     1      35.866 -21.024 -19.309  0.00  0.00    +0.031 C 
ATOM      7  C   UNL     1      36.218 -20.261 -20.553  0.00  0.00    +0.245 C 
ATOM      8  C   UNL     1      36.871 -21.493 -18.553  0.00  0.00    +0.000 C 
ENDROOT
BRANCH   8   9
ATOM      9  C   UNL     1      36.721 -22.258 -17.306  0.00  0.00    +0.003 C 
ATOM     10  C   UNL     1      35.493 -22.822 -16.997  0.00  0.00    +0.038 C 
ATOM     11  C   UNL     1      37.811 -22.403 -16.460  0.00  0.00    +0.001 C 
ATOM     12  C   UNL     1      36.439 -23.702 -14.955  0.00  0.00    +0.084 C 
ATOM     13  C   UNL     1      35.351 -23.549 -15.814  0.00  0.00    +0.152 C 
ATOM     14  C   UNL     1      37.669 -23.128 -15.278  0.00  0.00    +0.018 C 
BRANCH  12  15
ATOM     15  N   UNL     1      36.315 -24.418 -13.777  0.00  0.00    -0.280 N 
ATOM     16  N   UNL     1      36.386 -26.133 -12.358  0.00  0.00    -0.255 NA
ATOM     17  C   UNL     1      35.874 -23.936 -12.572  0.00  0.00    +0.134 C 
ATOM     18  C   UNL     1      36.610 -25.744 -13.593  0.00  0.00    +0.220 C 
ATOM     19  C   UNL     1      35.927 -25.011 -11.716  0.00  0.00    +0.054 C 
ATOM     20  C   UNL     1      35.566 -25.058 -10.291  0.00  0.00    +0.049 C 
ENDBRANCH  12  15
BRANCH  13  21
ATOM     21  O   UNL     1      34.139 -24.100 -15.521  0.00  0.00    -0.470 OA
ATOM     22  C   UNL     1      33.018 -23.632 -16.267  0.00  0.00    +0.253 C 
ENDBRANCH  13  21
ENDBRANCH   8   9
BRANCH   2  23
ATOM     23  C   UNL     1      35.391 -19.174 -22.612  0.00  0.00    +0.098 C 
ATOM     24  C   UNL     1      34.590 -19.768 -23.773  0.00  0.00    +0.026 C 
BRANCH  23  26
ATOM     25  F   UNL     1      34.183 -13.744 -21.804  0.00  0.00    -0.204 F 
ATOM     26  C   UNL     1      35.065 -17.709 -22.393  0.00  0.00    -0.004 C 
ATOM     27  C   UNL     1      34.969 -16.872 -23.489  0.00  0.00    -0.000 C 
ATOM     28  C   UNL     1      34.872 -17.248 -21.105  0.00  0.00    -0.000 C 
ATOM     29  C   UNL     1      34.669 -15.524 -23.289  0.00  0.00    +0.029 C 
ATOM     30  C   UNL     1      34.572 -15.900 -20.904  0.00  0.00    +0.029 C 
ATOM     31  C   UNL     1      34.471 -15.039 -21.996  0.00  0.00    +0.140 C 
ENDBRANCH  23  26
ENDBRANCH   2  23
TORSDOF 5
ENDMDL
MODEL 3
REMARK VINA RESULT:     -11.1      1.027      1.989
REMARK  Name = 11560787
REMARK  5 active torsions:
REMARK  status: ('A' for Active; 'I' for Inactive)
REMARK    1  A    between atoms: N_2  and  C_23
REMARK    2  A    between atoms: C_8  and  C_9
REMARK    3  A    between atoms: C_12  and  N_15
REMARK    4  A    between atoms: C_13  and  O_21
REMARK    5  A    between atoms: C_23  and  C_26
REMARK                            x       y       z     vdW  Elec       q    Type
REMARK                         _______ _______ _______ _____ _____    ______ ____
ROOT
ATOM      1  O   UNL     1      34.953 -16.962 -24.057  0.00  0.00    -0.270 OA
ATOM      2  N   UNL     1      34.985 -17.593 -21.825  0.00  0.00    -0.274 N 
ATOM      3  C   UNL     1      34.657 -17.312 -20.428  0.00  0.00    +0.094 C 
ATOM      4  C   UNL     1      34.741 -15.835 -20.097  0.00  0.00    +0.026 C 
ATOM      5  C   UNL     1      33.851 -15.063 -21.054  0.00  0.00    +0.033 C 
ATOM      6  C   UNL     1      34.242 -15.341 -22.473  0.00  0.00    +0.031 C 
ATOM      7  C   UNL     1      34.753 -16.696 -22.870  0.00  0.00    +0.245 C 
ATOM      8  C   UNL     1      34.178 -14.391 -23.420  0.00  0.00    +0.000 C 
ENDROOT
BRANCH   8   9
ATOM      9  C   UNL     1      33.707 -13.013 -23.219  0.00  0.00    +0.003 C 
ATOM     10  C   UNL     1      34.380 -11.966 -23.831  0.00  0.00    +0.038 C 
ATOM     11  C   UNL     1      32.595 -12.782 -22.422  0.00  0.00    +0.001 C 
ATOM     12  C   UNL     1      32.816 -10.413 -22.842  0.00  0.00    +0.084 C 
ATOM     13  C   UNL     1      33.932 -10.659 -23.641  0.00  0.00    +0.152 C 
ATOM     14  C   UNL     1      32.147 -11.476 -22.232  0.00  0.00    +0.018 C 
BRANCH  12  15
ATOM     15  N   UNL     1      32.359  -9.122 -22.642  0.00  0.00    -0.280 N 
ATOM     16  N   UNL     1      31.182  -7.254 -22.936  0.00  0.00    -0.255 NA
ATOM     17  C   UNL     1      32.782  -8.248 -21.675  0.00  0.00    +0.134 C 
ATOM     18  C   UNL     1      31.396  -8.475 -23.372  0.00  0.00    +0.220 C 
ATOM     19  C   UNL     1      32.043  -7.106 -21.877  0.00  0.00    +0.054 C 
ATOM     20  C   UNL     1      32.091  -5.845 -21.122  0.00  0.00    +0.049 C 
ENDBRANCH  12  15
BRANCH  13  21
ATOM     21  O   UNL     1      34.601  -9.638 -24.248  0.00  0.00    -0.470 OA
ATOM     22  C   UNL     1      35.663  -9.995 -25.130  0.00  0.00    +0.253 C 
ENDBRANCH  13  21
ENDBRANCH   8   9
BRANCH   2  23
ATOM     23  C   UNL     1      35.428 -18.950 -22.117  0.00  0.00    +0.098 C 
ATOM     24  C   UNL     1      36.958 -18.984 -22.179  0.00  0.00    +0.026 C 
BRANCH  23  26
ATOM     25  F   UNL     1      33.406 -22.632 -18.383  0.00  0.00    -0.204 F 
ATOM     26  C   UNL     1      34.883 -19.943 -21.110  0.00  0.00    -0.004 C 
ATOM     27  C   UNL     1      33.514 -20.066 -20.961  0.00  0.00    -0.000 C 
ATOM     28  C   UNL     1      35.768 -20.700 -20.365  0.00  0.00    -0.000 C 
ATOM     29  C   UNL     1      33.012 -20.981 -20.034  0.00  0.00    +0.029 C 
ATOM     30  C   UNL     1      35.266 -21.614 -19.439  0.00  0.00    +0.029 C 
ATOM     31  C   UNL     1      33.889 -21.754 -19.273  0.00  0.00    +0.140 C 
ENDBRANCH  23  26
ENDBRANCH   2  23
TORSDOF 5
ENDMDL
MODEL 4
REMARK VINA RESULT:     -10.9      5.192     11.805
REMARK  Name = 11560787
REMARK  5 active torsions:
REMARK  status: ('A' for Active; 'I' for Inactive)
REMARK    1  A    between atoms: N_2  and  C_23
REMARK    2  A    between atoms: C_8  and  C_9
REMARK    3  A    between atoms: C_12  and  N_15
REMARK    4  A    between atoms: C_13  and  O_21
REMARK    5  A    between atoms: C_23  and  C_26
REMARK                            x       y       z     vdW  Elec       q    Type
REMARK                         _______ _______ _______ _____ _____    ______ ____
ROOT
ATOM      1  O   UNL     1      33.728 -20.095 -21.857  0.00  0.00    -0.270 OA
ATOM      2  N   UNL     1      35.810 -19.107 -22.117  0.00  0.00    -0.274 N 
ATOM      3  C   UNL     1      37.216 -19.002 -21.729  0.00  0.00    +0.094 C 
ATOM      4  C   UNL     1      37.432 -19.260 -20.251  0.00  0.00    +0.026 C 
ATOM      5  C   UNL     1      36.846 -20.614 -19.895  0.00  0.00    +0.033 C 
ATOM      6  C   UNL     1      35.395 -20.672 -20.267  0.00  0.00    +0.031 C 
ATOM      7  C   UNL     1      34.892 -19.945 -21.480  0.00  0.00    +0.245 C 
ATOM      8  C   UNL     1      34.504 -21.342 -19.520  0.00  0.00    +0.000 C 
ENDROOT
BRANCH   8   9
ATOM      9  C   UNL     1      34.810 -22.108 -18.303  0.00  0.00    +0.003 C 
ATOM     10  C   UNL     1      33.806 -22.843 -17.690  0.00  0.00    +0.038 C 
ATOM     11  C   UNL     1      36.098 -22.084 -17.789  0.00  0.00    +0.001 C 
ATOM     12  C   UNL     1      35.388 -23.555 -16.009  0.00  0.00    +0.084 C 
ATOM     13  C   UNL     1      34.097 -23.571 -16.536  0.00  0.00    +0.152 C 
ATOM     14  C   UNL     1      36.389 -22.812 -16.636  0.00  0.00    +0.018 C 
BRANCH  12  15
ATOM     15  N   UNL     1      35.694 -24.270 -14.864  0.00  0.00    -0.280 N 
ATOM     16  N   UNL     1      36.505 -25.889 -13.566  0.00  0.00    -0.255 NA
ATOM     17  C   UNL     1      35.375 -23.924 -13.577  0.00  0.00    +0.134 C 
ATOM     18  C   UNL     1      36.373 -25.460 -14.801  0.00  0.00    +0.220 C 
ATOM     19  C   UNL     1      35.885 -24.936 -12.798  0.00  0.00    +0.054 C 
ATOM     20  C   UNL     1      35.829 -25.075 -11.334  0.00  0.00    +0.049 C 
ENDBRANCH  12  15
BRANCH  13  21
ATOM     21  O   UNL     1      33.103 -24.290 -15.942  0.00  0.00    -0.470 OA
ATOM     22  C   UNL     1      31.997 -23.556 -15.421  0.00  0.00    +0.253 C 
ENDBRANCH  13  21
ENDBRANCH   8   9
BRANCH   2  23
ATOM     23  C   UNL     1      35.429 -18.403 -23.335  0.00  0.00    +0.098 C 
ATOM     24  C   UNL     1      34.394 -19.233 -24.100  0.00  0.00    +0.026 C 
BRANCH  23  26
ATOM     25  F   UNL     1      33.542 -13.227 -22.222  0.00  0.00    -0.204 F 
ATOM     26  C   UNL     1      34.920 -17.007 -23.035  0.00  0.00    -0.004 C 
ATOM     27  C   UNL     1      34.845 -16.587 -21.719  0.00  0.00    -0.000 C 
ATOM     28  C   UNL     1      34.543 -16.189 -24.083  0.00  0.00    -0.000 C 
ATOM     29  C   UNL     1      34.377 -15.302 -21.443  0.00  0.00    +0.029 C 
ATOM     30  C   UNL     1      34.075 -14.904 -23.807  0.00  0.00    +0.029 C 
ATOM     31  C   UNL     1      33.992 -14.461 -22.488  0.00  0.00    +0.140 C 
ENDBRANCH  23  26
ENDBRANCH   2  23
TORSDOF 5
ENDMDL
MODEL 5
REMARK VINA RESULT:     -10.6      5.200     11.834
REMARK  Name = 11560787
REMARK  5 active torsions:
REMARK  status: ('A' for Active; 'I' for Inactive)
REMARK    1  A    between atoms: N_2  and  C_23
REMARK    2  A    between atoms: C_8  and  C_9
REMARK    3  A    between atoms: C_12  and  N_15
REMARK    4  A    between atoms: C_13  and  O_21
REMARK    5  A    between atoms: C_23  and  C_26
REMARK                            x       y       z     vdW  Elec       q    Type
REMARK                         _______ _______ _______ _____ _____    ______ ____
ROOT
ATOM      1  O   UNL     1      33.681 -20.122 -21.918  0.00  0.00    -0.270 OA
ATOM      2  N   UNL     1      35.770 -19.134 -22.124  0.00  0.00    -0.274 N 
ATOM      3  C   UNL     1      37.166 -19.033 -21.703  0.00  0.00    +0.094 C 
ATOM      4  C   UNL     1      37.347 -19.299 -20.221  0.00  0.00    +0.026 C 
ATOM      5  C   UNL     1      36.752 -20.654 -19.887  0.00  0.00    +0.033 C 
ATOM      6  C   UNL     1      35.310 -20.709 -20.293  0.00  0.00    +0.031 C 
ATOM      7  C   UNL     1      34.836 -19.974 -21.514  0.00  0.00    +0.245 C 
ATOM      8  C   UNL     1      34.401 -21.382 -19.571  0.00  0.00    +0.000 C 
ENDROOT
BRANCH   8   9
ATOM      9  C   UNL     1      34.677 -22.156 -18.352  0.00  0.00    +0.003 C 
ATOM     10  C   UNL     1      35.929 -22.073 -17.761  0.00  0.00    +0.038 C 
ATOM     11  C   UNL     1      33.680 -22.956 -17.812  0.00  0.00    +0.001 C 
ATOM     12  C   UNL     1      35.198 -23.615 -16.051  0.00  0.00    +0.084 C 
ATOM     13  C   UNL     1      36.191 -22.807 -16.604  0.00  0.00    +0.152 C 
ATOM     14  C   UNL     1      33.942 -23.689 -16.655  0.00  0.00    +0.018 C 
BRANCH  12  15
ATOM     15  N   UNL     1      35.441 -24.350 -14.904  0.00  0.00    -0.280 N 
ATOM     16  N   UNL     1      36.077 -26.044 -13.605  0.00  0.00    -0.255 NA
ATOM     17  C   UNL     1      35.200 -23.954 -13.614  0.00  0.00    +0.134 C 
ATOM     18  C   UNL     1      35.969 -25.614 -14.842  0.00  0.00    +0.220 C 
ATOM     19  C   UNL     1      35.600 -25.014 -12.834  0.00  0.00    +0.054 C 
ATOM     20  C   UNL     1      35.564 -25.130 -11.368  0.00  0.00    +0.049 C 
ENDBRANCH  12  15
BRANCH  13  21
ATOM     21  O   UNL     1      37.425 -22.717 -16.032  0.00  0.00    -0.470 OA
ATOM     22  C   UNL     1      38.133 -21.493 -16.210  0.00  0.00    +0.253 C 
ENDBRANCH  13  21
ENDBRANCH   8   9
BRANCH   2  23
ATOM     23  C   UNL     1      35.418 -18.423 -23.346  0.00  0.00    +0.098 C 
ATOM     24  C   UNL     1      34.384 -19.238 -24.130  0.00  0.00    +0.026 C 
BRANCH  23  26
ATOM     25  F   UNL     1      33.584 -13.223 -22.254  0.00  0.00    -0.204 F 
ATOM     26  C   UNL     1      34.923 -17.020 -23.052  0.00  0.00    -0.004 C 
ATOM     27  C   UNL     1      34.578 -16.194 -24.105  0.00  0.00    -0.000 C 
ATOM     28  C   UNL     1      34.829 -16.603 -21.737  0.00  0.00    -0.000 C 
ATOM     29  C   UNL     1      34.122 -14.904 -23.834  0.00  0.00    +0.029 C 
ATOM     30  C   UNL     1      34.374 -15.312 -21.466  0.00  0.00    +0.029 C 
ATOM     31  C   UNL     1      34.021 -14.463 -22.514  0.00  0.00    +0.140 C 
ENDBRANCH  23  26
ENDBRANCH   2  23
TORSDOF 5
ENDMDL
MODEL 6
REMARK VINA RESULT:     -10.3      1.344      2.400
REMARK  Name = 11560787
REMARK  5 active torsions:
REMARK  status: ('A' for Active; 'I' for Inactive)
REMARK    1  A    between atoms: N_2  and  C_23
REMARK    2  A    between atoms: C_8  and  C_9
REMARK    3  A    between atoms: C_12  and  N_15
REMARK    4  A    between atoms: C_13  and  O_21
REMARK    5  A    between atoms: C_23  and  C_26
REMARK                            x       y       z     vdW  Elec       q    Type
REMARK                         _______ _______ _______ _____ _____    ______ ____
ROOT
ATOM      1  O   UNL     1      35.181 -17.216 -20.490  0.00  0.00    -0.270 OA
ATOM      2  N   UNL     1      35.235 -17.907 -22.703  0.00  0.00    -0.274 N 
ATOM      3  C   UNL     1      35.093 -17.602 -24.126  0.00  0.00    +0.094 C 
ATOM      4  C   UNL     1      34.027 -16.558 -24.392  0.00  0.00    +0.026 C 
ATOM      5  C   UNL     1      34.336 -15.318 -23.575  0.00  0.00    +0.033 C 
ATOM      6  C   UNL     1      34.433 -15.659 -22.119  0.00  0.00    +0.031 C 
ATOM      7  C   UNL     1      34.984 -16.986 -21.684  0.00  0.00    +0.245 C 
ATOM      8  C   UNL     1      34.006 -14.813 -21.168  0.00  0.00    +0.000 C 
ENDROOT
BRANCH   8   9
ATOM      9  C   UNL     1      33.439 -13.476 -21.402  0.00  0.00    +0.003 C 
ATOM     10  C   UNL     1      33.889 -12.724 -22.476  0.00  0.00    +0.038 C 
ATOM     11  C   UNL     1      32.462 -12.992 -20.545  0.00  0.00    +0.001 C 
ATOM     12  C   UNL     1      32.367 -10.957 -21.844  0.00  0.00    +0.084 C 
ATOM     13  C   UNL     1      33.350 -11.456 -22.698  0.00  0.00    +0.152 C 
ATOM     14  C   UNL     1      31.923 -11.725 -20.767  0.00  0.00    +0.018 C 
BRANCH  12  15
ATOM     15  N   UNL     1      31.823  -9.701 -22.049  0.00  0.00    -0.280 N 
ATOM     16  N   UNL     1      30.655  -8.060 -23.001  0.00  0.00    -0.255 NA
ATOM     17  C   UNL     1      31.997  -8.597 -21.255  0.00  0.00    +0.134 C 
ATOM     18  C   UNL     1      31.007  -9.324 -23.084  0.00  0.00    +0.220 C 
ATOM     19  C   UNL     1      31.268  -7.602 -21.862  0.00  0.00    +0.054 C 
ATOM     20  C   UNL     1      31.102  -6.204 -21.434  0.00  0.00    +0.049 C 
ENDBRANCH  12  15
BRANCH  13  21
ATOM     21  O   UNL     1      33.800 -10.725 -23.757  0.00  0.00    -0.470 OA
ATOM     22  C   UNL     1      34.388 -11.446 -24.837  0.00  0.00    +0.253 C 
ENDBRANCH  13  21
ENDBRANCH   8   9
BRANCH   2  23
ATOM     23  C   UNL     1      35.823 -19.202 -22.382  0.00  0.00    +0.098 C 
ATOM     24  C   UNL     1      37.271 -19.005 -21.924  0.00  0.00    +0.026 C 
BRANCH  23  26
ATOM     25  F   UNL     1      32.778 -21.959 -18.546  0.00  0.00    -0.204 F 
ATOM     26  C   UNL     1      35.002 -19.946 -21.347  0.00  0.00    -0.004 C 
ATOM     27  C   UNL     1      33.623 -19.858 -21.394  0.00  0.00    -0.000 C 
ATOM     28  C   UNL     1      35.652 -20.693 -20.383  0.00  0.00    -0.000 C 
ATOM     29  C   UNL     1      32.867 -20.543 -20.442  0.00  0.00    +0.029 C 
ATOM     30  C   UNL     1      34.896 -21.378 -19.431  0.00  0.00    +0.029 C 
ATOM     31  C   UNL     1      33.504 -21.302 -19.461  0.00  0.00    +0.140 C 
ENDBRANCH  23  26
ENDBRANCH   2  23
TORSDOF 5
ENDMDL
MODEL 7
REMARK VINA RESULT:     -10.1      1.308      1.823
REMARK  Name = 11560787
REMARK  5 active torsions:
REMARK  status: ('A' for Active; 'I' for Inactive)
REMARK    1  A    between atoms: N_2  and  C_23
REMARK    2  A    between atoms: C_8  and  C_9
REMARK    3  A    between atoms: C_12  and  N_15
REMARK    4  A    between atoms: C_13  and  O_21
REMARK    5  A    between atoms: C_23  and  C_26
REMARK                            x       y       z     vdW  Elec       q    Type
REMARK                         _______ _______ _______ _____ _____    ______ ____
ROOT
ATOM      1  O   UNL     1      35.293 -17.338 -20.349  0.00  0.00    -0.270 OA
ATOM      2  N   UNL     1      35.369 -18.200 -22.500  0.00  0.00    -0.274 N 
ATOM      3  C   UNL     1      35.248 -18.006 -23.944  0.00  0.00    +0.094 C 
ATOM      4  C   UNL     1      34.194 -16.977 -24.305  0.00  0.00    +0.026 C 
ATOM      5  C   UNL     1      34.504 -15.679 -23.583  0.00  0.00    +0.033 C 
ATOM      6  C   UNL     1      34.579 -15.907 -22.104  0.00  0.00    +0.031 C 
ATOM      7  C   UNL     1      35.113 -17.200 -21.560  0.00  0.00    +0.245 C 
ATOM      8  C   UNL     1      34.148 -14.986 -21.227  0.00  0.00    +0.000 C 
ENDROOT
BRANCH   8   9
ATOM      9  C   UNL     1      33.595 -13.668 -21.572  0.00  0.00    +0.003 C 
ATOM     10  C   UNL     1      32.598 -13.119 -20.780  0.00  0.00    +0.038 C 
ATOM     11  C   UNL     1      34.081 -12.995 -22.684  0.00  0.00    +0.001 C 
ATOM     12  C   UNL     1      32.554 -11.181 -22.222  0.00  0.00    +0.084 C 
ATOM     13  C   UNL     1      32.075 -11.867 -21.107  0.00  0.00    +0.152 C 
ATOM     14  C   UNL     1      33.558 -11.745 -23.011  0.00  0.00    +0.018 C 
BRANCH  12  15
ATOM     15  N   UNL     1      32.045  -9.939 -22.562  0.00  0.00    -0.280 N 
ATOM     16  N   UNL     1      30.568  -8.301 -22.873  0.00  0.00    -0.255 NA
ATOM     17  C   UNL     1      32.754  -8.873 -23.051  0.00  0.00    +0.134 C 
ATOM     18  C   UNL     1      30.736  -9.542 -22.473  0.00  0.00    +0.220 C 
ATOM     19  C   UNL     1      31.823  -7.878 -23.234  0.00  0.00    +0.054 C 
ATOM     20  C   UNL     1      32.036  -6.514 -23.741  0.00  0.00    +0.049 C 
ENDBRANCH  12  15
BRANCH  13  21
ATOM     21  O   UNL     1      31.095 -11.337 -20.321  0.00  0.00    -0.470 OA
ATOM     22  C   UNL     1      31.391 -11.181 -18.936  0.00  0.00    +0.253 C 
ENDBRANCH  13  21
ENDBRANCH   8   9
BRANCH   2  23
ATOM     23  C   UNL     1      35.942 -19.470 -22.072  0.00  0.00    +0.098 C 
ATOM     24  C   UNL     1      37.343 -19.231 -21.503  0.00  0.00    +0.026 C 
BRANCH  23  26
ATOM     25  F   UNL     1      32.611 -22.099 -18.386  0.00  0.00    -0.204 F 
ATOM     26  C   UNL     1      35.043 -20.179 -21.078  0.00  0.00    -0.004 C 
ATOM     27  C   UNL     1      35.614 -20.998 -20.121  0.00  0.00    -0.000 C 
ATOM     28  C   UNL     1      33.676 -19.990 -21.153  0.00  0.00    -0.000 C 
ATOM     29  C   UNL     1      34.788 -21.650 -19.205  0.00  0.00    +0.029 C 
ATOM     30  C   UNL     1      32.849 -20.642 -20.238  0.00  0.00    +0.029 C 
ATOM     31  C   UNL     1      33.405 -21.472 -19.265  0.00  0.00    +0.140 C 
ENDBRANCH  23  26
ENDBRANCH   2  23
TORSDOF 5
ENDMDL
MODEL 8
REMARK VINA RESULT:     -10.0      5.518      9.859
REMARK  Name = 11560787
REMARK  5 active torsions:
REMARK  status: ('A' for Active; 'I' for Inactive)
REMARK    1  A    between atoms: N_2  and  C_23
REMARK    2  A    between atoms: C_8  and  C_9
REMARK    3  A    between atoms: C_12  and  N_15
REMARK    4  A    between atoms: C_13  and  O_21
REMARK    5  A    between atoms: C_23  and  C_26
REMARK                            x       y       z     vdW  Elec       q    Type
REMARK                         _______ _______ _______ _____ _____    ______ ____
ROOT
ATOM      1  O   UNL     1      33.789 -24.732 -16.591  0.00  0.00    -0.270 OA
ATOM      2  N   UNL     1      35.800 -24.371 -15.493  0.00  0.00    -0.274 N 
ATOM      3  C   UNL     1      36.980 -23.540 -15.259  0.00  0.00    +0.094 C 
ATOM      4  C   UNL     1      37.438 -22.816 -16.510  0.00  0.00    +0.026 C 
ATOM      5  C   UNL     1      36.279 -22.010 -17.066  0.00  0.00    +0.033 C 
ATOM      6  C   UNL     1      35.102 -22.899 -17.334  0.00  0.00    +0.031 C 
ATOM      7  C   UNL     1      34.824 -24.079 -16.448  0.00  0.00    +0.245 C 
ATOM      8  C   UNL     1      34.286 -22.691 -18.379  0.00  0.00    +0.000 C 
ENDROOT
BRANCH   8   9
ATOM      9  C   UNL     1      34.402 -21.592 -19.350  0.00  0.00    +0.003 C 
ATOM     10  C   UNL     1      35.657 -21.200 -19.789  0.00  0.00    +0.038 C 
ATOM     11  C   UNL     1      33.252 -20.968 -19.812  0.00  0.00    +0.001 C 
ATOM     12  C   UNL     1      34.619 -19.522 -21.183  0.00  0.00    +0.084 C 
ATOM     13  C   UNL     1      35.766 -20.159 -20.711  0.00  0.00    +0.152 C 
ATOM     14  C   UNL     1      33.361 -19.927 -20.733  0.00  0.00    +0.018 C 
BRANCH  12  15
ATOM     15  N   UNL     1      34.709 -18.487 -22.097  0.00  0.00    -0.280 N 
ATOM     16  N   UNL     1      34.891 -17.436 -24.053  0.00  0.00    -0.255 NA
ATOM     17  C   UNL     1      34.696 -17.146 -21.813  0.00  0.00    +0.134 C 
ATOM     18  C   UNL     1      34.827 -18.606 -23.457  0.00  0.00    +0.220 C 
ATOM     19  C   UNL     1      34.810 -16.521 -23.033  0.00  0.00    +0.054 C 
ATOM     20  C   UNL     1      34.849 -15.079 -23.317  0.00  0.00    +0.049 C 
ENDBRANCH  12  15
BRANCH  13  21
ATOM     21  O   UNL     1      37.005 -19.782 -21.136  0.00  0.00    -0.470 OA
ATOM     22  C   UNL     1      37.726 -18.876 -20.305  0.00  0.00    +0.253 C 
ENDBRANCH  13  21
ENDBRANCH   8   9
BRANCH   2  23
ATOM     23  C   UNL     1      35.591 -25.464 -14.552  0.00  0.00    +0.098 C 
ATOM     24  C   UNL     1      36.456 -26.660 -14.960  0.00  0.00    +0.026 C 
BRANCH  23  26
ATOM     25  F   UNL     1      36.613 -23.859  -9.264  0.00  0.00    -0.204 F 
ATOM     26  C   UNL     1      35.867 -25.031 -13.125  0.00  0.00    -0.004 C 
ATOM     27  C   UNL     1      34.854 -24.436 -12.396  0.00  0.00    -0.000 C 
ATOM     28  C   UNL     1      37.124 -25.243 -12.590  0.00  0.00    -0.000 C 
ATOM     29  C   UNL     1      35.108 -24.038 -11.083  0.00  0.00    +0.029 C 
ATOM     30  C   UNL     1      37.377 -24.844 -11.277  0.00  0.00    +0.029 C 
ATOM     31  C   UNL     1      36.370 -24.242 -10.524  0.00  0.00    +0.140 C 
ENDBRANCH  23  26
ENDBRANCH   2  23
TORSDOF 5
ENDMDL
MODEL 9
REMARK VINA RESULT:     -10.0      3.627      5.818
REMARK  Name = 11560787
REMARK  5 active torsions:
REMARK  status: ('A' for Active; 'I' for Inactive)
REMARK    1  A    between atoms: N_2  and  C_23
REMARK    2  A    between atoms: C_8  and  C_9
REMARK    3  A    between atoms: C_12  and  N_15
REMARK    4  A    between atoms: C_13  and  O_21
REMARK    5  A    between atoms: C_23  and  C_26
REMARK                            x       y       z     vdW  Elec       q    Type
REMARK                         _______ _______ _______ _____ _____    ______ ____
ROOT
ATOM      1  O   UNL     1      36.878 -20.754 -19.359  0.00  0.00    -0.270 OA
ATOM      2  N   UNL     1      34.832 -21.804 -19.064  0.00  0.00    -0.274 N 
ATOM      3  C   UNL     1      33.424 -21.954 -19.431  0.00  0.00    +0.094 C 
ATOM      4  C   UNL     1      32.785 -20.639 -19.830  0.00  0.00    +0.026 C 
ATOM      5  C   UNL     1      33.598 -20.014 -20.949  0.00  0.00    +0.033 C 
ATOM      6  C   UNL     1      35.024 -19.836 -20.524  0.00  0.00    +0.031 C 
ATOM      7  C   UNL     1      35.674 -20.830 -19.605  0.00  0.00    +0.245 C 
ATOM      8  C   UNL     1      35.750 -18.779 -20.921  0.00  0.00    +0.000 C 
ENDROOT
BRANCH   8   9
ATOM      9  C   UNL     1      35.285 -17.708 -21.816  0.00  0.00    +0.003 C 
ATOM     10  C   UNL     1      34.743 -16.554 -21.273  0.00  0.00    +0.038 C 
ATOM     11  C   UNL     1      35.398 -17.871 -23.189  0.00  0.00    +0.001 C 
ATOM     12  C   UNL     1      34.410 -15.689 -23.504  0.00  0.00    +0.084 C 
ATOM     13  C   UNL     1      34.303 -15.538 -22.121  0.00  0.00    +0.152 C 
ATOM     14  C   UNL     1      34.958 -16.856 -24.038  0.00  0.00    +0.018 C 
BRANCH  12  15
ATOM     15  N   UNL     1      33.977 -14.692 -24.360  0.00  0.00    -0.280 N 
ATOM     16  N   UNL     1      33.642 -12.653 -25.193  0.00  0.00    -0.255 NA
ATOM     17  C   UNL     1      33.267 -14.865 -25.520  0.00  0.00    +0.134 C 
ATOM     18  C   UNL     1      34.177 -13.344 -24.211  0.00  0.00    +0.220 C 
ATOM     19  C   UNL     1      33.074 -13.595 -26.013  0.00  0.00    +0.054 C 
ATOM     20  C   UNL     1      32.370 -13.193 -27.240  0.00  0.00    +0.049 C 
ENDBRANCH  12  15
BRANCH  13  21
ATOM     21  O   UNL     1      33.772 -14.407 -21.576  0.00  0.00    -0.470 OA
ATOM     22  C   UNL     1      32.557 -14.551 -20.845  0.00  0.00    +0.253 C 
ENDBRANCH  13  21
ENDBRANCH   8   9
BRANCH   2  23
ATOM     23  C   UNL     1      35.383 -22.845 -18.205  0.00  0.00    +0.098 C 
ATOM     24  C   UNL     1      36.770 -22.419 -17.715  0.00  0.00    +0.026 C 
BRANCH  23  26
ATOM     25  F   UNL     1      31.933 -24.037 -13.931  0.00  0.00    -0.204 F 
ATOM     26  C   UNL     1      34.452 -23.166 -17.052  0.00  0.00    -0.004 C 
ATOM     27  C   UNL     1      34.970 -23.245 -15.772  0.00  0.00    -0.000 C 
ATOM     28  C   UNL     1      33.110 -23.373 -17.310  0.00  0.00    -0.000 C 
ATOM     29  C   UNL     1      34.113 -23.540 -14.711  0.00  0.00    +0.029 C 
ATOM     30  C   UNL     1      32.253 -23.668 -16.249  0.00  0.00    +0.029 C 
ATOM     31  C   UNL     1      32.755 -23.752 -14.950  0.00  0.00    +0.140 C 
ENDBRANCH  23  26
ENDBRANCH   2  23
TORSDOF 5
ENDMDL
