MODEL 1
REMARK VINA RESULT:     -11.2      0.000      0.000
REMARK  Name = 56832738
REMARK  10 active torsions:
REMARK  status: ('A' for Active; 'I' for Inactive)
REMARK    1  A    between atoms: C_2  and  C_11
REMARK    2  A    between atoms: C_5  and  C_25
REMARK    3  A    between atoms: C_10  and  C_22
REMARK    4  A    between atoms: C_12  and  O_16
REMARK    5  A    between atoms: C_13  and  O_18
REMARK    6  A    between atoms: C_14  and  O_20
REMARK    7  A    between atoms: C_22  and  O_23
REMARK    8  A    between atoms: C_25  and  C_27
REMARK    9  A    between atoms: C_32  and  O_33
REMARK   10  A    between atoms: O_33  and  C_34
REMARK                            x       y       z     vdW  Elec       q    Type
REMARK                         _______ _______ _______ _____ _____    ______ ____
ROOT
ATOM      1 CL   UNL     1      30.827 -22.818 -16.949  0.00  0.00    -0.083 Cl
ATOM      2  C   UNL     1      34.462 -24.035 -14.565  0.00  0.00    +0.031 C 
ATOM      3  C   UNL     1      34.483 -24.149 -15.954  0.00  0.00    -0.003 C 
ATOM      4  C   UNL     1      33.325 -23.546 -13.922  0.00  0.00    +0.001 C 
ATOM      5  C   UNL     1      33.365 -23.776 -16.701  0.00  0.00    -0.007 C 
ATOM      6  C   UNL     1      32.208 -23.173 -14.668  0.00  0.00    +0.011 C 
ATOM      7  C   UNL     1      32.228 -23.287 -16.059  0.00  0.00    +0.054 C 
ENDROOT
BRANCH   2  11
ATOM      8  O   UNL     1      35.319 -24.883 -12.429  0.00  0.00    -0.326 OA
ATOM      9  O   UNL     1      36.559 -23.306 -13.599  0.00  0.00    -0.326 OA
ATOM     10  C   UNL     1      36.526 -24.658 -11.690  0.00  0.00    +0.176 C 
ATOM     11  C   UNL     1      35.677 -24.440 -13.753  0.00  0.00    +0.235 C 
ATOM     12  C   UNL     1      37.528 -25.777 -12.075  0.00  0.00    +0.169 C 
ATOM     13  C   UNL     1      36.485 -25.585 -14.406  0.00  0.00    +0.196 C 
ATOM     14  C   UNL     1      37.759 -25.900 -13.597  0.00  0.00    +0.172 C 
ATOM     15  C   UNL     1      36.915 -23.282 -12.210  0.00  0.00    +0.177 C 
BRANCH  12  16
ATOM     16  O   UNL     1      37.010 -27.024 -11.602  0.00  0.00    -0.379 OA
ATOM     17  H   UNL     1      36.281 -27.310 -12.175  0.00  0.00    +0.211 HD
ENDBRANCH  12  16
BRANCH  13  18
ATOM     18  O   UNL     1      35.681 -26.762 -14.476  0.00  0.00    -0.377 OA
ATOM     19  H   UNL     1      36.246 -27.545 -14.376  0.00  0.00    +0.211 HD
ENDBRANCH  13  18
BRANCH  14  20
ATOM     20  O   UNL     1      38.780 -24.983 -13.993  0.00  0.00    -0.379 OA
ATOM     21  H   UNL     1      38.670 -24.149 -13.512  0.00  0.00    +0.211 HD
ENDBRANCH  14  20
BRANCH  10  22
ATOM     22  C   UNL     1      36.215 -24.643 -10.198  0.00  0.00    +0.169 C 
BRANCH  22  23
ATOM     23  O   UNL     1      35.182 -25.579  -9.944  0.00  0.00    -0.379 OA
ATOM     24  H   UNL     1      35.371 -26.052  -9.117  0.00  0.00    +0.211 HD
ENDBRANCH  22  23
ENDBRANCH  10  22
ENDBRANCH   2  11
BRANCH   5  25
ATOM     25  C   UNL     1      33.426 -23.915 -18.188  0.00  0.00    +0.054 C 
BRANCH  25  27
ATOM     26  F   UNL     1      37.084 -21.066 -19.729  0.00  0.00    -0.201 F 
ATOM     27  C   UNL     1      33.931 -22.676 -18.898  0.00  0.00    -0.015 C 
ATOM     28  C   UNL     1      35.302 -22.434 -18.990  0.00  0.00    +0.029 C 
ATOM     29  C   UNL     1      33.025 -21.776 -19.459  0.00  0.00    -0.001 C 
ATOM     30  C   UNL     1      35.765 -21.293 -19.644  0.00  0.00    +0.174 C 
ATOM     31  C   UNL     1      33.488 -20.635 -20.112  0.00  0.00    +0.039 C 
ATOM     32  C   UNL     1      34.859 -20.393 -20.204  0.00  0.00    +0.166 C 
BRANCH  32  33
ATOM     33  O   UNL     1      35.311 -19.279 -20.842  0.00  0.00    -0.473 OA
BRANCH  33  34
ATOM     34  C   UNL     1      35.320 -19.307 -22.269  0.00  0.00    +0.206 C 
ATOM     35  C   UNL     1      35.312 -17.885 -22.789  0.00  0.00    +0.051 C 
ENDBRANCH  33  34
ENDBRANCH  32  33
ENDBRANCH  25  27
ENDBRANCH   5  25
TORSDOF 10
ENDMDL
MODEL 2
REMARK VINA RESULT:     -10.4      0.943      2.416
REMARK  Name = 56832738
REMARK  10 active torsions:
REMARK  status: ('A' for Active; 'I' for Inactive)
REMARK    1  A    between atoms: C_2  and  C_11
REMARK    2  A    between atoms: C_5  and  C_25
REMARK    3  A    between atoms: C_10  and  C_22
REMARK    4  A    between atoms: C_12  and  O_16
REMARK    5  A    between atoms: C_13  and  O_18
REMARK    6  A    between atoms: C_14  and  O_20
REMARK    7  A    between atoms: C_22  and  O_23
REMARK    8  A    between atoms: C_25  and  C_27
REMARK    9  A    between atoms: C_32  and  O_33
REMARK   10  A    between atoms: O_33  and  C_34
REMARK                            x       y       z     vdW  Elec       q    Type
REMARK                         _______ _______ _______ _____ _____    ______ ____
ROOT
ATOM      1 CL   UNL     1      31.076 -22.760 -16.709  0.00  0.00    -0.083 Cl
ATOM      2  C   UNL     1      34.717 -24.447 -14.641  0.00  0.00    +0.031 C 
ATOM      3  C   UNL     1      34.638 -24.485 -16.033  0.00  0.00    -0.003 C 
ATOM      4  C   UNL     1      33.676 -23.889 -13.898  0.00  0.00    +0.001 C 
ATOM      5  C   UNL     1      33.518 -23.967 -16.682  0.00  0.00    -0.007 C 
ATOM      6  C   UNL     1      32.556 -23.370 -14.548  0.00  0.00    +0.011 C 
ATOM      7  C   UNL     1      32.477 -23.409 -15.940  0.00  0.00    +0.054 C 
ENDROOT
BRANCH   2  11
ATOM      8  O   UNL     1      37.145 -24.328 -14.315  0.00  0.00    -0.326 OA
ATOM      9  O   UNL     1      36.101 -26.402 -14.288  0.00  0.00    -0.326 OA
ATOM     10  C   UNL     1      38.154 -25.307 -14.040  0.00  0.00    +0.176 C 
ATOM     11  C   UNL     1      35.934 -25.011 -13.935  0.00  0.00    +0.235 C 
ATOM     12  C   UNL     1      38.355 -25.355 -12.503  0.00  0.00    +0.169 C 
ATOM     13  C   UNL     1      35.833 -24.922 -12.394  0.00  0.00    +0.196 C 
ATOM     14  C   UNL     1      37.047 -25.590 -11.717  0.00  0.00    +0.172 C 
ATOM     15  C   UNL     1      37.491 -26.552 -14.610  0.00  0.00    +0.177 C 
BRANCH  12  16
ATOM     16  O   UNL     1      38.906 -24.102 -12.085  0.00  0.00    -0.379 OA
ATOM     17  H   UNL     1      39.864 -24.195 -11.962  0.00  0.00    +0.211 HD
ENDBRANCH  12  16
BRANCH  13  18
ATOM     18  O   UNL     1      35.778 -23.553 -11.994  0.00  0.00    -0.377 OA
ATOM     19  H   UNL     1      36.191 -23.455 -11.122  0.00  0.00    +0.211 HD
ENDBRANCH  13  18
BRANCH  14  20
ATOM     20  O   UNL     1      36.796 -26.993 -11.630  0.00  0.00    -0.379 OA
ATOM     21  H   UNL     1      37.123 -27.430 -12.432  0.00  0.00    +0.211 HD
ENDBRANCH  14  20
BRANCH  10  22
ATOM     22  C   UNL     1      39.433 -24.944 -14.784  0.00  0.00    +0.169 C 
BRANCH  22  23
ATOM     23  O   UNL     1      39.990 -26.128 -15.327  0.00  0.00    -0.379 OA
ATOM     24  H   UNL     1      39.745 -26.201 -16.263  0.00  0.00    +0.211 HD
ENDBRANCH  22  23
ENDBRANCH  10  22
ENDBRANCH   2  11
BRANCH   5  25
ATOM     25  C   UNL     1      33.471 -24.028 -18.175  0.00  0.00    +0.054 C 
BRANCH  25  27
ATOM     26  F   UNL     1      37.116 -21.127 -19.646  0.00  0.00    -0.201 F 
ATOM     27  C   UNL     1      33.970 -22.770 -18.855  0.00  0.00    -0.015 C 
ATOM     28  C   UNL     1      35.340 -22.520 -18.941  0.00  0.00    +0.029 C 
ATOM     29  C   UNL     1      33.060 -21.861 -19.394  0.00  0.00    -0.001 C 
ATOM     30  C   UNL     1      35.799 -21.362 -19.567  0.00  0.00    +0.174 C 
ATOM     31  C   UNL     1      33.519 -20.703 -20.020  0.00  0.00    +0.039 C 
ATOM     32  C   UNL     1      34.888 -20.453 -20.106  0.00  0.00    +0.166 C 
BRANCH  32  33
ATOM     33  O   UNL     1      35.335 -19.321 -20.717  0.00  0.00    -0.473 OA
BRANCH  33  34
ATOM     34  C   UNL     1      35.461 -19.358 -22.138  0.00  0.00    +0.206 C 
ATOM     35  C   UNL     1      35.272 -17.959 -22.685  0.00  0.00    +0.051 C 
ENDBRANCH  33  34
ENDBRANCH  32  33
ENDBRANCH  25  27
ENDBRANCH   5  25
TORSDOF 10
ENDMDL
MODEL 3
REMARK VINA RESULT:     -10.2      3.145      4.916
REMARK  Name = 56832738
REMARK  10 active torsions:
REMARK  status: ('A' for Active; 'I' for Inactive)
REMARK    1  A    between atoms: C_2  and  C_11
REMARK    2  A    between atoms: C_5  and  C_25
REMARK    3  A    between atoms: C_10  and  C_22
REMARK    4  A    between atoms: C_12  and  O_16
REMARK    5  A    between atoms: C_13  and  O_18
REMARK    6  A    between atoms: C_14  and  O_20
REMARK    7  A    between atoms: C_22  and  O_23
REMARK    8  A    between atoms: C_25  and  C_27
REMARK    9  A    between atoms: C_32  and  O_33
REMARK   10  A    between atoms: O_33  and  C_34
REMARK                            x       y       z     vdW  Elec       q    Type
REMARK                         _______ _______ _______ _____ _____    ______ ____
ROOT
ATOM      1 CL   UNL     1      37.155 -22.323 -17.380  0.00  0.00    -0.083 Cl
ATOM      2  C   UNL     1      33.254 -23.507 -15.439  0.00  0.00    +0.031 C 
ATOM      3  C   UNL     1      33.372 -23.553 -16.828  0.00  0.00    -0.003 C 
ATOM      4  C   UNL     1      34.337 -23.100 -14.660  0.00  0.00    +0.001 C 
ATOM      5  C   UNL     1      34.572 -23.189 -17.438  0.00  0.00    -0.007 C 
ATOM      6  C   UNL     1      35.538 -22.737 -15.270  0.00  0.00    +0.011 C 
ATOM      7  C   UNL     1      35.656 -22.782 -16.660  0.00  0.00    +0.054 C 
ENDROOT
BRANCH   2  11
ATOM      8  O   UNL     1      31.067 -24.590 -15.683  0.00  0.00    -0.326 OA
ATOM      9  O   UNL     1      31.256 -22.718 -14.323  0.00  0.00    -0.326 OA
ATOM     10  C   UNL     1      29.778 -24.357 -15.101  0.00  0.00    +0.176 C 
ATOM     11  C   UNL     1      31.950 -23.903 -14.775  0.00  0.00    +0.235 C 
ATOM     12  C   UNL     1      29.648 -25.281 -13.863  0.00  0.00    +0.169 C 
ATOM     13  C   UNL     1      32.150 -24.830 -13.554  0.00  0.00    +0.196 C 
ATOM     14  C   UNL     1      30.809 -25.130 -12.856  0.00  0.00    +0.172 C 
ATOM     15  C   UNL     1      29.898 -22.880 -14.754  0.00  0.00    +0.177 C 
BRANCH  12  16
ATOM     16  O   UNL     1      29.628 -26.638 -14.318  0.00  0.00    -0.379 OA
ATOM     17  H   UNL     1      30.441 -27.086 -14.036  0.00  0.00    +0.211 HD
ENDBRANCH  12  16
BRANCH  13  18
ATOM     18  O   UNL     1      32.734 -26.062 -13.977  0.00  0.00    -0.377 OA
ATOM     19  H   UNL     1      33.024 -26.566 -13.200  0.00  0.00    +0.211 HD
ENDBRANCH  13  18
BRANCH  14  20
ATOM     20  O   UNL     1      30.518 -24.054 -11.963  0.00  0.00    -0.379 OA
ATOM     21  H   UNL     1      30.891 -23.231 -12.315  0.00  0.00    +0.211 HD
ENDBRANCH  14  20
BRANCH  10  22
ATOM     22  C   UNL     1      28.695 -24.618 -16.140  0.00  0.00    +0.169 C 
BRANCH  22  23
ATOM     23  O   UNL     1      28.586 -23.478 -16.975  0.00  0.00    -0.379 OA
ATOM     24  H   UNL     1      29.444 -23.300 -17.392  0.00  0.00    +0.211 HD
ENDBRANCH  22  23
ENDBRANCH  10  22
ENDBRANCH   2  11
BRANCH   5  25
ATOM     25  C   UNL     1      34.658 -23.250 -18.929  0.00  0.00    +0.054 C 
BRANCH  25  27
ATOM     26  F   UNL     1      37.214 -19.537 -20.812  0.00  0.00    -0.201 F 
ATOM     27  C   UNL     1      34.725 -21.891 -19.593  0.00  0.00    -0.015 C 
ATOM     28  C   UNL     1      35.962 -21.326 -19.904  0.00  0.00    +0.029 C 
ATOM     29  C   UNL     1      33.549 -21.202 -19.893  0.00  0.00    -0.001 C 
ATOM     30  C   UNL     1      36.023 -20.075 -20.516  0.00  0.00    +0.174 C 
ATOM     31  C   UNL     1      33.610 -19.951 -20.504  0.00  0.00    +0.039 C 
ATOM     32  C   UNL     1      34.847 -19.386 -20.815  0.00  0.00    +0.166 C 
BRANCH  32  33
ATOM     33  O   UNL     1      34.905 -18.164 -21.412  0.00  0.00    -0.473 OA
BRANCH  33  34
ATOM     34  C   UNL     1      35.231 -18.135 -22.801  0.00  0.00    +0.206 C 
ATOM     35  C   UNL     1      34.977 -16.742 -23.337  0.00  0.00    +0.051 C 
ENDBRANCH  33  34
ENDBRANCH  32  33
ENDBRANCH  25  27
ENDBRANCH   5  25
TORSDOF 10
ENDMDL
MODEL 4
REMARK VINA RESULT:      -9.8      3.206      5.252
REMARK  Name = 56832738
REMARK  10 active torsions:
REMARK  status: ('A' for Active; 'I' for Inactive)
REMARK    1  A    between atoms: C_2  and  C_11
REMARK    2  A    between atoms: C_5  and  C_25
REMARK    3  A    between atoms: C_10  and  C_22
REMARK    4  A    between atoms: C_12  and  O_16
REMARK    5  A    between atoms: C_13  and  O_18
REMARK    6  A    between atoms: C_14  and  O_20
REMARK    7  A    between atoms: C_22  and  O_23
REMARK    8  A    between atoms: C_25  and  C_27
REMARK    9  A    between atoms: C_32  and  O_33
REMARK   10  A    between atoms: O_33  and  C_34
REMARK                            x       y       z     vdW  Elec       q    Type
REMARK                         _______ _______ _______ _____ _____    ______ ____
ROOT
ATOM      1 CL   UNL     1      35.493 -21.302 -19.441  0.00  0.00    -0.083 Cl
ATOM      2  C   UNL     1      36.754 -23.333 -15.611  0.00  0.00    +0.031 C 
ATOM      3  C   UNL     1      35.462 -23.529 -16.099  0.00  0.00    -0.003 C 
ATOM      4  C   UNL     1      37.646 -22.516 -16.306  0.00  0.00    +0.001 C 
ATOM      5  C   UNL     1      35.062 -22.906 -17.282  0.00  0.00    -0.007 C 
ATOM      6  C   UNL     1      37.246 -21.894 -17.488  0.00  0.00    +0.011 C 
ATOM      7  C   UNL     1      35.954 -22.089 -17.977  0.00  0.00    +0.054 C 
ENDROOT
BRANCH   2  11
ATOM      8  O   UNL     1      36.071 -24.546 -13.592  0.00  0.00    -0.326 OA
ATOM      9  O   UNL     1      37.840 -23.047 -13.467  0.00  0.00    -0.326 OA
ATOM     10  C   UNL     1      36.575 -24.594 -12.251  0.00  0.00    +0.176 C 
ATOM     11  C   UNL     1      37.189 -24.009 -14.326  0.00  0.00    +0.235 C 
ATOM     12  C   UNL     1      37.548 -25.798 -12.158  0.00  0.00    +0.169 C 
ATOM     13  C   UNL     1      38.175 -25.177 -14.562  0.00  0.00    +0.196 C 
ATOM     14  C   UNL     1      38.662 -25.773 -13.227  0.00  0.00    +0.172 C 
ATOM     15  C   UNL     1      37.264 -23.241 -12.168  0.00  0.00    +0.177 C 
BRANCH  12  16
ATOM     16  O   UNL     1      36.792 -27.000 -12.332  0.00  0.00    -0.379 OA
ATOM     17  H   UNL     1      35.934 -26.787 -12.731  0.00  0.00    +0.211 HD
ENDBRANCH  12  16
BRANCH  13  18
ATOM     18  O   UNL     1      37.531 -26.203 -15.317  0.00  0.00    -0.377 OA
ATOM     19  H   UNL     1      36.971 -26.734 -14.729  0.00  0.00    +0.211 HD
ENDBRANCH  13  18
BRANCH  14  20
ATOM     20  O   UNL     1      39.751 -24.980 -12.753  0.00  0.00    -0.379 OA
ATOM     21  H   UNL     1      39.700 -24.094 -13.143  0.00  0.00    +0.211 HD
ENDBRANCH  14  20
BRANCH  10  22
ATOM     22  C   UNL     1      35.411 -24.709 -11.274  0.00  0.00    +0.169 C 
BRANCH  22  23
ATOM     23  O   UNL     1      34.353 -25.402 -11.912  0.00  0.00    -0.379 OA
ATOM     24  H   UNL     1      34.424 -26.350 -11.717  0.00  0.00    +0.211 HD
ENDBRANCH  22  23
ENDBRANCH  10  22
ENDBRANCH   2  11
BRANCH   5  25
ATOM     25  C   UNL     1      33.669 -23.140 -17.771  0.00  0.00    +0.054 C 
BRANCH  25  27
ATOM     26  F   UNL     1      29.122 -22.702 -16.039  0.00  0.00    -0.201 F 
ATOM     27  C   UNL     1      32.652 -23.312 -16.662  0.00  0.00    -0.015 C 
ATOM     28  C   UNL     1      31.328 -22.921 -16.862  0.00  0.00    +0.029 C 
ATOM     29  C   UNL     1      33.040 -23.860 -15.440  0.00  0.00    -0.001 C 
ATOM     30  C   UNL     1      30.393 -23.080 -15.841  0.00  0.00    +0.174 C 
ATOM     31  C   UNL     1      32.105 -24.019 -14.419  0.00  0.00    +0.039 C 
ATOM     32  C   UNL     1      30.781 -23.628 -14.619  0.00  0.00    +0.166 C 
BRANCH  32  33
ATOM     33  O   UNL     1      29.868 -23.782 -13.620  0.00  0.00    -0.473 OA
BRANCH  33  34
ATOM     34  C   UNL     1      29.678 -25.103 -13.114  0.00  0.00    +0.206 C 
ATOM     35  C   UNL     1      29.089 -25.969 -14.208  0.00  0.00    +0.051 C 
ENDBRANCH  33  34
ENDBRANCH  32  33
ENDBRANCH  25  27
ENDBRANCH   5  25
TORSDOF 10
ENDMDL
MODEL 5
REMARK VINA RESULT:      -9.7      1.140      2.192
REMARK  Name = 56832738
REMARK  10 active torsions:
REMARK  status: ('A' for Active; 'I' for Inactive)
REMARK    1  A    between atoms: C_2  and  C_11
REMARK    2  A    between atoms: C_5  and  C_25
REMARK    3  A    between atoms: C_10  and  C_22
REMARK    4  A    between atoms: C_12  and  O_16
REMARK    5  A    between atoms: C_13  and  O_18
REMARK    6  A    between atoms: C_14  and  O_20
REMARK    7  A    between atoms: C_22  and  O_23
REMARK    8  A    between atoms: C_25  and  C_27
REMARK    9  A    between atoms: C_32  and  O_33
REMARK   10  A    between atoms: O_33  and  C_34
REMARK                            x       y       z     vdW  Elec       q    Type
REMARK                         _______ _______ _______ _____ _____    ______ ____
ROOT
ATOM      1 CL   UNL     1      30.476 -22.873 -16.668  0.00  0.00    -0.083 Cl
ATOM      2  C   UNL     1      34.377 -23.875 -14.627  0.00  0.00    +0.031 C 
ATOM      3  C   UNL     1      34.292 -23.941 -16.017  0.00  0.00    -0.003 C 
ATOM      4  C   UNL     1      33.262 -23.500 -13.877  0.00  0.00    +0.001 C 
ATOM      5  C   UNL     1      33.092 -23.633 -16.658  0.00  0.00    -0.007 C 
ATOM      6  C   UNL     1      32.062 -23.192 -14.518  0.00  0.00    +0.011 C 
ATOM      7  C   UNL     1      31.977 -23.258 -15.910  0.00  0.00    +0.054 C 
ENDROOT
BRANCH   2  11
ATOM      8  O   UNL     1      36.371 -25.302 -14.568  0.00  0.00    -0.326 OA
ATOM      9  O   UNL     1      35.415 -24.611 -12.567  0.00  0.00    -0.326 OA
ATOM     10  C   UNL     1      37.187 -25.816 -13.508  0.00  0.00    +0.176 C 
ATOM     11  C   UNL     1      35.681 -24.209 -13.930  0.00  0.00    +0.235 C 
ATOM     12  C   UNL     1      38.374 -24.837 -13.313  0.00  0.00    +0.169 C 
ATOM     13  C   UNL     1      36.666 -23.018 -13.889  0.00  0.00    +0.196 C 
ATOM     14  C   UNL     1      37.936 -23.374 -13.091  0.00  0.00    +0.172 C 
ATOM     15  C   UNL     1      36.187 -25.802 -12.361  0.00  0.00    +0.177 C 
BRANCH  12  16
ATOM     16  O   UNL     1      39.190 -24.884 -14.488  0.00  0.00    -0.379 OA
ATOM     17  H   UNL     1      39.357 -25.808 -14.729  0.00  0.00    +0.211 HD
ENDBRANCH  12  16
BRANCH  13  18
ATOM     18  O   UNL     1      37.042 -22.660 -15.218  0.00  0.00    -0.377 OA
ATOM     19  H   UNL     1      37.471 -23.417 -15.648  0.00  0.00    +0.211 HD
ENDBRANCH  13  18
BRANCH  14  20
ATOM     20  O   UNL     1      37.667 -23.169 -11.703  0.00  0.00    -0.379 OA
ATOM     21  H   UNL     1      38.119 -22.366 -11.401  0.00  0.00    +0.211 HD
ENDBRANCH  14  20
BRANCH  10  22
ATOM     22  C   UNL     1      37.645 -27.226 -13.855  0.00  0.00    +0.169 C 
BRANCH  22  23
ATOM     23  O   UNL     1      37.676 -27.356 -15.266  0.00  0.00    -0.379 OA
ATOM     24  H   UNL     1      36.769 -27.405 -15.606  0.00  0.00    +0.211 HD
ENDBRANCH  22  23
ENDBRANCH  10  22
ENDBRANCH   2  11
BRANCH   5  25
ATOM     25  C   UNL     1      33.042 -23.718 -18.150  0.00  0.00    +0.054 C 
BRANCH  25  27
ATOM     26  F   UNL     1      37.221 -21.574 -19.493  0.00  0.00    -0.201 F 
ATOM     27  C   UNL     1      33.794 -22.606 -18.851  0.00  0.00    -0.015 C 
ATOM     28  C   UNL     1      35.189 -22.599 -18.851  0.00  0.00    +0.029 C 
ATOM     29  C   UNL     1      33.092 -21.589 -19.496  0.00  0.00    -0.001 C 
ATOM     30  C   UNL     1      35.881 -21.576 -19.497  0.00  0.00    +0.174 C 
ATOM     31  C   UNL     1      33.784 -20.565 -20.142  0.00  0.00    +0.039 C 
ATOM     32  C   UNL     1      35.179 -20.558 -20.142  0.00  0.00    +0.166 C 
BRANCH  32  33
ATOM     33  O   UNL     1      35.853 -19.557 -20.772  0.00  0.00    -0.473 OA
BRANCH  33  34
ATOM     34  C   UNL     1      35.070 -18.525 -21.372  0.00  0.00    +0.206 C 
ATOM     35  C   UNL     1      35.337 -18.509 -22.862  0.00  0.00    +0.051 C 
ENDBRANCH  33  34
ENDBRANCH  32  33
ENDBRANCH  25  27
ENDBRANCH   5  25
TORSDOF 10
ENDMDL
MODEL 6
REMARK VINA RESULT:      -8.9      3.190      5.639
REMARK  Name = 56832738
REMARK  10 active torsions:
REMARK  status: ('A' for Active; 'I' for Inactive)
REMARK    1  A    between atoms: C_2  and  C_11
REMARK    2  A    between atoms: C_5  and  C_25
REMARK    3  A    between atoms: C_10  and  C_22
REMARK    4  A    between atoms: C_12  and  O_16
REMARK    5  A    between atoms: C_13  and  O_18
REMARK    6  A    between atoms: C_14  and  O_20
REMARK    7  A    between atoms: C_22  and  O_23
REMARK    8  A    between atoms: C_25  and  C_27
REMARK    9  A    between atoms: C_32  and  O_33
REMARK   10  A    between atoms: O_33  and  C_34
REMARK                            x       y       z     vdW  Elec       q    Type
REMARK                         _______ _______ _______ _____ _____    ______ ____
ROOT
ATOM      1 CL   UNL     1      35.803 -21.110 -19.424  0.00  0.00    -0.083 Cl
ATOM      2  C   UNL     1      36.733 -23.524 -15.723  0.00  0.00    +0.031 C 
ATOM      3  C   UNL     1      35.444 -23.551 -16.255  0.00  0.00    -0.003 C 
ATOM      4  C   UNL     1      37.724 -22.757 -16.335  0.00  0.00    +0.001 C 
ATOM      5  C   UNL     1      35.146 -22.810 -17.398  0.00  0.00    -0.007 C 
ATOM      6  C   UNL     1      37.426 -22.015 -17.478  0.00  0.00    +0.011 C 
ATOM      7  C   UNL     1      36.136 -22.042 -18.010  0.00  0.00    +0.054 C 
ENDROOT
BRANCH   2  11
ATOM      8  O   UNL     1      38.475 -24.398 -14.235  0.00  0.00    -0.326 OA
ATOM      9  O   UNL     1      36.588 -25.687 -14.645  0.00  0.00    -0.326 OA
ATOM     10  C   UNL     1      38.598 -25.592 -13.452  0.00  0.00    +0.176 C 
ATOM     11  C   UNL     1      37.057 -24.330 -14.481  0.00  0.00    +0.235 C 
ATOM     12  C   UNL     1      38.102 -25.267 -12.019  0.00  0.00    +0.169 C 
ATOM     13  C   UNL     1      36.406 -23.755 -13.201  0.00  0.00    +0.196 C 
ATOM     14  C   UNL     1      36.685 -24.656 -11.982  0.00  0.00    +0.172 C 
ATOM     15  C   UNL     1      37.675 -26.522 -14.224  0.00  0.00    +0.177 C 
BRANCH  12  16
ATOM     16  O   UNL     1      39.007 -24.325 -11.435  0.00  0.00    -0.379 OA
ATOM     17  H   UNL     1      39.734 -24.800 -11.002  0.00  0.00    +0.211 HD
ENDBRANCH  12  16
BRANCH  13  18
ATOM     18  O   UNL     1      36.928 -22.453 -12.940  0.00  0.00    -0.377 OA
ATOM     19  H   UNL     1      36.707 -22.192 -12.032  0.00  0.00    +0.211 HD
ENDBRANCH  13  18
BRANCH  14  20
ATOM     20  O   UNL     1      35.719 -25.709 -11.972  0.00  0.00    -0.379 OA
ATOM     21  H   UNL     1      34.830 -25.332 -11.894  0.00  0.00    +0.211 HD
ENDBRANCH  14  20
BRANCH  10  22
ATOM     22  C   UNL     1      40.045 -26.069 -13.474  0.00  0.00    +0.169 C 
BRANCH  22  23
ATOM     23  O   UNL     1      40.874 -24.979 -13.839  0.00  0.00    -0.379 OA
ATOM     24  H   UNL     1      40.609 -24.190 -13.340  0.00  0.00    +0.211 HD
ENDBRANCH  22  23
ENDBRANCH  10  22
ENDBRANCH   2  11
BRANCH   5  25
ATOM     25  C   UNL     1      33.752 -22.864 -17.936  0.00  0.00    +0.054 C 
BRANCH  25  27
ATOM     26  F   UNL     1      29.116 -22.723 -16.404  0.00  0.00    -0.201 F 
ATOM     27  C   UNL     1      32.698 -23.123 -16.880  0.00  0.00    -0.015 C 
ATOM     28  C   UNL     1      31.365 -22.799 -17.131  0.00  0.00    +0.029 C 
ATOM     29  C   UNL     1      33.062 -23.683 -15.656  0.00  0.00    -0.001 C 
ATOM     30  C   UNL     1      30.395 -23.037 -16.158  0.00  0.00    +0.174 C 
ATOM     31  C   UNL     1      32.092 -23.921 -14.683  0.00  0.00    +0.039 C 
ATOM     32  C   UNL     1      30.759 -23.597 -14.933  0.00  0.00    +0.166 C 
BRANCH  32  33
ATOM     33  O   UNL     1      29.813 -23.830 -13.982  0.00  0.00    -0.473 OA
BRANCH  33  34
ATOM     34  C   UNL     1      29.757 -25.145 -13.431  0.00  0.00    +0.206 C 
ATOM     35  C   UNL     1      29.279 -26.106 -14.498  0.00  0.00    +0.051 C 
ENDBRANCH  33  34
ENDBRANCH  32  33
ENDBRANCH  25  27
ENDBRANCH   5  25
TORSDOF 10
ENDMDL
