MODEL 1
REMARK VINA RESULT:     -12.1      0.000      0.000
REMARK  Name = 10156987
REMARK  5 active torsions:
REMARK  status: ('A' for Active; 'I' for Inactive)
REMARK    1  A    between atoms: C_2  and  C_23
REMARK    2  A    between atoms: C_9  and  C_13
REMARK    3  A    between atoms: C_23  and  N_24
REMARK    4  A    between atoms: C_25  and  C_31
REMARK    5  A    between atoms: C_31  and  N_32
REMARK                            x       y       z     vdW  Elec       q    Type
REMARK                         _______ _______ _______ _____ _____    ______ ____
ROOT
ATOM      1  N   UNL     1      36.464 -20.985 -19.189  0.00  0.00    -0.312 N 
ATOM      2  C   UNL     1      35.581 -18.838 -22.584  0.00  0.00    -0.043 C 
ATOM      3  C   UNL     1      34.643 -19.641 -21.934  0.00  0.00    -0.005 C 
ATOM      4  C   UNL     1      36.882 -18.717 -22.111  0.00  0.00    -0.005 C 
ATOM      5  C   UNL     1      35.033 -20.343 -20.775  0.00  0.00    +0.014 C 
ATOM      6  C   UNL     1      36.346 -20.207 -20.319  0.00  0.00    +0.048 C 
ATOM      7  C   UNL     1      37.291 -19.403 -20.965  0.00  0.00    +0.014 C 
ATOM      8  C   UNL     1      34.370 -21.227 -19.881  0.00  0.00    +0.016 C 
ATOM      9  C   UNL     1      35.274 -21.605 -18.916  0.00  0.00    +0.053 C 
ATOM     10  H   UNL     1      37.285 -21.081 -18.654  0.00  0.00    +0.152 HD
ENDROOT
BRANCH   9  13
ATOM     11  O   UNL     1      32.972 -23.154 -18.235  0.00  0.00    -0.270 OA
ATOM     12  N   UNL     1      33.972 -24.062 -16.383  0.00  0.00    -0.280 N 
ATOM     13  C   UNL     1      35.205 -22.461 -17.773  0.00  0.00    +0.067 C 
ATOM     14  C   UNL     1      36.264 -22.562 -16.952  0.00  0.00    +0.007 C 
ATOM     15  C   UNL     1      33.954 -23.247 -17.499  0.00  0.00    +0.251 C 
ATOM     16  C   UNL     1      36.230 -23.433 -15.779  0.00  0.00    +0.014 C 
ATOM     17  C   UNL     1      35.073 -24.174 -15.519  0.00  0.00    +0.051 C 
ATOM     18  C   UNL     1      37.325 -23.545 -14.918  0.00  0.00    +0.001 C 
ATOM     19  C   UNL     1      35.004 -25.020 -14.409  0.00  0.00    +0.015 C 
ATOM     20  C   UNL     1      37.257 -24.391 -13.808  0.00  0.00    +0.000 C 
ATOM     21  C   UNL     1      36.100 -25.126 -13.554  0.00  0.00    +0.001 C 
ATOM     22  H   UNL     1      33.167 -24.593 -16.182  0.00  0.00    +0.155 HD
ENDBRANCH   9  13
BRANCH   2  23
ATOM     23  C   UNL     1      35.172 -18.090 -23.819  0.00  0.00    -0.050 C 
BRANCH  23  24
ATOM     24  N   UNL     1      34.418 -16.878 -23.501  0.00  0.00    +0.390 N 
ATOM     25  C   UNL     1      34.053 -13.983 -23.203  0.00  0.00    -0.026 C 
ATOM     26  C   UNL     1      34.238 -14.917 -22.002  0.00  0.00    -0.025 C 
ATOM     27  C   UNL     1      33.473 -14.768 -24.383  0.00  0.00    -0.025 C 
ATOM     28  C   UNL     1      35.045 -16.159 -22.382  0.00  0.00    -0.077 C 
ATOM     29  C   UNL     1      34.305 -16.016 -24.686  0.00  0.00    -0.077 C 
ATOM     30  H   UNL     1      33.476 -17.144 -23.215  0.00  0.00    -0.079 HD
BRANCH  25  31
ATOM     31  C   UNL     1      33.164 -12.796 -22.843  0.00  0.00    -0.086 C 
BRANCH  31  32
ATOM     32  N   UNL     1      32.022 -13.224 -22.050  0.00  0.00    +0.380 N 
ATOM     33  H   UNL     1      32.342 -13.521 -21.128  0.00  0.00    -0.089 HD
ATOM     34  H   UNL     1      31.557 -14.002 -22.516  0.00  0.00    -0.089 HD
ATOM     35  H   UNL     1      31.368 -12.448 -21.948  0.00  0.00    -0.089 HD
ENDBRANCH  31  32
ENDBRANCH  25  31
ENDBRANCH  23  24
ENDBRANCH   2  23
TORSDOF 5
ENDMDL
MODEL 2
REMARK VINA RESULT:     -12.1      1.440      2.447
REMARK  Name = 10156987
REMARK  5 active torsions:
REMARK  status: ('A' for Active; 'I' for Inactive)
REMARK    1  A    between atoms: C_2  and  C_23
REMARK    2  A    between atoms: C_9  and  C_13
REMARK    3  A    between atoms: C_23  and  N_24
REMARK    4  A    between atoms: C_25  and  C_31
REMARK    5  A    between atoms: C_31  and  N_32
REMARK                            x       y       z     vdW  Elec       q    Type
REMARK                         _______ _______ _______ _____ _____    ______ ____
ROOT
ATOM      1  N   UNL     1      34.543 -22.491 -17.675  0.00  0.00    -0.312 N 
ATOM      2  C   UNL     1      35.231 -20.215 -21.031  0.00  0.00    -0.043 C 
ATOM      3  C   UNL     1      36.255 -20.634 -20.181  0.00  0.00    -0.005 C 
ATOM      4  C   UNL     1      33.905 -20.550 -20.787  0.00  0.00    -0.005 C 
ATOM      5  C   UNL     1      35.928 -21.413 -19.052  0.00  0.00    +0.014 C 
ATOM      6  C   UNL     1      34.588 -21.736 -18.826  0.00  0.00    +0.048 C 
ATOM      7  C   UNL     1      33.557 -21.320 -19.674  0.00  0.00    +0.014 C 
ATOM      8  C   UNL     1      36.682 -21.998 -17.998  0.00  0.00    +0.016 C 
ATOM      9  C   UNL     1      35.804 -22.655 -17.168  0.00  0.00    +0.053 C 
ATOM     10  H   UNL     1      33.723 -22.860 -17.275  0.00  0.00    +0.152 HD
ENDROOT
BRANCH   9  13
ATOM     11  O   UNL     1      33.620 -23.422 -15.493  0.00  0.00    -0.270 OA
ATOM     12  N   UNL     1      34.976 -24.531 -14.014  0.00  0.00    -0.280 N 
ATOM     13  C   UNL     1      35.956 -23.415 -15.966  0.00  0.00    +0.067 C 
ATOM     14  C   UNL     1      37.182 -23.803 -15.575  0.00  0.00    +0.007 C 
ATOM     15  C   UNL     1      34.747 -23.782 -15.153  0.00  0.00    +0.251 C 
ATOM     16  C   UNL     1      37.372 -24.589 -14.357  0.00  0.00    +0.014 C 
ATOM     17  C   UNL     1      36.253 -24.941 -13.597  0.00  0.00    +0.051 C 
ATOM     18  C   UNL     1      38.642 -24.996 -13.940  0.00  0.00    +0.001 C 
ATOM     19  C   UNL     1      36.394 -25.694 -12.428  0.00  0.00    +0.015 C 
ATOM     20  C   UNL     1      38.785 -25.749 -12.771  0.00  0.00    +0.000 C 
ATOM     21  C   UNL     1      37.664 -26.096 -12.018  0.00  0.00    +0.001 C 
ATOM     22  H   UNL     1      34.201 -24.790 -13.465  0.00  0.00    +0.155 HD
ENDBRANCH   9  13
BRANCH   2  23
ATOM     23  C   UNL     1      35.573 -19.385 -22.234  0.00  0.00    -0.050 C 
BRANCH  23  24
ATOM     24  N   UNL     1      34.865 -18.106 -22.236  0.00  0.00    +0.390 N 
ATOM     25  C   UNL     1      34.676 -15.179 -22.268  0.00  0.00    -0.026 C 
ATOM     26  C   UNL     1      34.435 -16.005 -21.000  0.00  0.00    -0.025 C 
ATOM     27  C   UNL     1      34.389 -16.036 -23.505  0.00  0.00    -0.025 C 
ATOM     28  C   UNL     1      35.209 -17.324 -21.039  0.00  0.00    -0.077 C 
ATOM     29  C   UNL     1      35.164 -17.355 -23.463  0.00  0.00    -0.077 C 
ATOM     30  H   UNL     1      33.862 -18.287 -22.215  0.00  0.00    -0.079 HD
BRANCH  25  31
ATOM     31  C   UNL     1      33.825 -13.912 -22.268  0.00  0.00    -0.086 C 
BRANCH  31  32
ATOM     32  N   UNL     1      34.302 -12.966 -23.264  0.00  0.00    +0.380 N 
ATOM     33  H   UNL     1      33.785 -12.092 -23.177  0.00  0.00    -0.089 HD
ATOM     34  H   UNL     1      34.159 -13.354 -24.197  0.00  0.00    -0.089 HD
ATOM     35  H   UNL     1      35.296 -12.790 -23.118  0.00  0.00    -0.089 HD
ENDBRANCH  31  32
ENDBRANCH  25  31
ENDBRANCH  23  24
ENDBRANCH   2  23
TORSDOF 5
ENDMDL
MODEL 3
REMARK VINA RESULT:     -11.9      3.913     12.035
REMARK  Name = 10156987
REMARK  5 active torsions:
REMARK  status: ('A' for Active; 'I' for Inactive)
REMARK    1  A    between atoms: C_2  and  C_23
REMARK    2  A    between atoms: C_9  and  C_13
REMARK    3  A    between atoms: C_23  and  N_24
REMARK    4  A    between atoms: C_25  and  C_31
REMARK    5  A    between atoms: C_31  and  N_32
REMARK                            x       y       z     vdW  Elec       q    Type
REMARK                         _______ _______ _______ _____ _____    ______ ____
ROOT
ATOM      1  N   UNL     1      33.049 -12.732 -21.338  0.00  0.00    -0.312 N 
ATOM      2  C   UNL     1      34.787 -16.372 -22.139  0.00  0.00    -0.043 C 
ATOM      3  C   UNL     1      34.734 -15.339 -23.075  0.00  0.00    -0.005 C 
ATOM      4  C   UNL     1      34.249 -16.224 -20.867  0.00  0.00    -0.005 C 
ATOM      5  C   UNL     1      34.119 -14.124 -22.714  0.00  0.00    +0.014 C 
ATOM      6  C   UNL     1      33.584 -13.998 -21.431  0.00  0.00    +0.048 C 
ATOM      7  C   UNL     1      33.634 -15.029 -20.487  0.00  0.00    +0.014 C 
ATOM      8  C   UNL     1      33.886 -12.892 -23.386  0.00  0.00    +0.016 C 
ATOM      9  C   UNL     1      33.227 -12.056 -22.515  0.00  0.00    +0.053 C 
ATOM     10  H   UNL     1      32.603 -12.366 -20.540  0.00  0.00    +0.152 HD
ENDROOT
BRANCH   9  13
ATOM     11  O   UNL     1      30.646 -11.254 -21.588  0.00  0.00    -0.270 OA
ATOM     12  N   UNL     1      30.966  -9.067 -22.196  0.00  0.00    -0.280 N 
ATOM     13  C   UNL     1      32.733 -10.718 -22.608  0.00  0.00    +0.067 C 
ATOM     14  C   UNL     1      33.500  -9.762 -23.159  0.00  0.00    +0.007 C 
ATOM     15  C   UNL     1      31.365 -10.386 -22.083  0.00  0.00    +0.251 C 
ATOM     16  C   UNL     1      33.029  -8.382 -23.261  0.00  0.00    +0.014 C 
ATOM     17  C   UNL     1      31.760  -8.061 -22.770  0.00  0.00    +0.051 C 
ATOM     18  C   UNL     1      33.817  -7.380 -23.834  0.00  0.00    +0.001 C 
ATOM     19  C   UNL     1      31.276  -6.752 -22.848  0.00  0.00    +0.015 C 
ATOM     20  C   UNL     1      33.335  -6.071 -23.912  0.00  0.00    +0.000 C 
ATOM     21  C   UNL     1      32.068  -5.758 -23.421  0.00  0.00    +0.001 C 
ATOM     22  H   UNL     1      30.076  -8.820 -21.855  0.00  0.00    +0.155 HD
ENDBRANCH   9  13
BRANCH   2  23
ATOM     23  C   UNL     1      35.440 -17.670 -22.517  0.00  0.00    -0.050 C 
BRANCH  23  24
ATOM     24  N   UNL     1      35.560 -18.576 -21.376  0.00  0.00    +0.390 N 
ATOM     25  C   UNL     1      36.158 -21.134 -20.072  0.00  0.00    -0.026 C 
ATOM     26  C   UNL     1      34.725 -20.651 -20.317  0.00  0.00    -0.025 C 
ATOM     27  C   UNL     1      37.103 -19.931 -19.995  0.00  0.00    -0.025 C 
ATOM     28  C   UNL     1      34.651 -19.721 -21.529  0.00  0.00    -0.077 C 
ATOM     29  C   UNL     1      36.951 -19.023 -21.217  0.00  0.00    -0.077 C 
ATOM     30  H   UNL     1      35.293 -18.074 -20.529  0.00  0.00    -0.079 HD
BRANCH  25  31
ATOM     31  C   UNL     1      36.243 -21.981 -18.805  0.00  0.00    -0.086 C 
BRANCH  31  32
ATOM     32  N   UNL     1      35.035 -22.770 -18.626  0.00  0.00    +0.380 N 
ATOM     33  H   UNL     1      35.259 -23.623 -18.114  0.00  0.00    -0.089 HD
ATOM     34  H   UNL     1      34.649 -23.013 -19.539  0.00  0.00    -0.089 HD
ATOM     35  H   UNL     1      34.348 -22.228 -18.101  0.00  0.00    -0.089 HD
ENDBRANCH  31  32
ENDBRANCH  25  31
ENDBRANCH  23  24
ENDBRANCH   2  23
TORSDOF 5
ENDMDL
MODEL 4
REMARK VINA RESULT:     -11.8      2.263      3.090
REMARK  Name = 10156987
REMARK  5 active torsions:
REMARK  status: ('A' for Active; 'I' for Inactive)
REMARK    1  A    between atoms: C_2  and  C_23
REMARK    2  A    between atoms: C_9  and  C_13
REMARK    3  A    between atoms: C_23  and  N_24
REMARK    4  A    between atoms: C_25  and  C_31
REMARK    5  A    between atoms: C_31  and  N_32
REMARK                            x       y       z     vdW  Elec       q    Type
REMARK                         _______ _______ _______ _____ _____    ______ ____
ROOT
ATOM      1  N   UNL     1      35.093 -22.077 -18.201  0.00  0.00    -0.312 N 
ATOM      2  C   UNL     1      35.472 -19.848 -21.637  0.00  0.00    -0.043 C 
ATOM      3  C   UNL     1      34.237 -20.269 -21.143  0.00  0.00    -0.005 C 
ATOM      4  C   UNL     1      36.657 -20.161 -20.984  0.00  0.00    -0.005 C 
ATOM      5  C   UNL     1      34.200 -21.031 -19.958  0.00  0.00    +0.014 C 
ATOM      6  C   UNL     1      35.404 -21.335 -19.319  0.00  0.00    +0.048 C 
ATOM      7  C   UNL     1      36.646 -20.916 -19.808  0.00  0.00    +0.014 C 
ATOM      8  C   UNL     1      33.159 -21.615 -19.185  0.00  0.00    +0.016 C 
ATOM      9  C   UNL     1      33.738 -22.251 -18.112  0.00  0.00    +0.053 C 
ATOM     10  H   UNL     1      35.750 -22.432 -17.559  0.00  0.00    +0.152 HD
ENDROOT
BRANCH   9  13
ATOM     11  O   UNL     1      35.386 -23.481 -16.129  0.00  0.00    -0.270 OA
ATOM     12  N   UNL     1      33.592 -24.304 -14.964  0.00  0.00    -0.280 N 
ATOM     13  C   UNL     1      33.224 -23.003 -17.010  0.00  0.00    +0.067 C 
ATOM     14  C   UNL     1      31.896 -23.160 -16.872  0.00  0.00    +0.007 C 
ATOM     15  C   UNL     1      34.168 -23.606 -16.008  0.00  0.00    +0.251 C 
ATOM     16  C   UNL     1      31.337 -23.914 -15.753  0.00  0.00    +0.014 C 
ATOM     17  C   UNL     1      32.206 -24.473 -14.811  0.00  0.00    +0.051 C 
ATOM     18  C   UNL     1      29.959 -24.085 -15.600  0.00  0.00    +0.001 C 
ATOM     19  C   UNL     1      31.709 -25.199 -13.725  0.00  0.00    +0.015 C 
ATOM     20  C   UNL     1      29.460 -24.809 -14.515  0.00  0.00    +0.000 C 
ATOM     21  C   UNL     1      30.333 -25.365 -13.581  0.00  0.00    +0.001 C 
ATOM     22  H   UNL     1      34.187 -24.705 -14.289  0.00  0.00    +0.155 HD
ENDBRANCH   9  13
BRANCH   2  23
ATOM     23  C   UNL     1      35.517 -19.038 -22.899  0.00  0.00    -0.050 C 
BRANCH  23  24
ATOM     24  N   UNL     1      34.798 -17.771 -22.764  0.00  0.00    +0.390 N 
ATOM     25  C   UNL     1      34.569 -14.849 -22.672  0.00  0.00    -0.026 C 
ATOM     26  C   UNL     1      34.511 -15.718 -21.412  0.00  0.00    -0.025 C 
ATOM     27  C   UNL     1      34.129 -15.671 -23.888  0.00  0.00    -0.025 C 
ATOM     28  C   UNL     1      35.290 -17.022 -21.599  0.00  0.00    -0.077 C 
ATOM     29  C   UNL     1      34.920 -16.977 -23.994  0.00  0.00    -0.077 C 
ATOM     30  H   UNL     1      33.809 -17.970 -22.615  0.00  0.00    -0.079 HD
BRANCH  25  31
ATOM     31  C   UNL     1      33.710 -13.597 -22.516  0.00  0.00    -0.086 C 
BRANCH  31  32
ATOM     32  N   UNL     1      34.197 -12.523 -23.366  0.00  0.00    +0.380 N 
ATOM     33  H   UNL     1      34.328 -11.680 -22.808  0.00  0.00    -0.089 HD
ATOM     34  H   UNL     1      33.518 -12.339 -24.105  0.00  0.00    -0.089 HD
ATOM     35  H   UNL     1      35.087 -12.796 -23.784  0.00  0.00    -0.089 HD
ENDBRANCH  31  32
ENDBRANCH  25  31
ENDBRANCH  23  24
ENDBRANCH   2  23
TORSDOF 5
ENDMDL
MODEL 5
REMARK VINA RESULT:     -11.7      3.152     10.917
REMARK  Name = 10156987
REMARK  5 active torsions:
REMARK  status: ('A' for Active; 'I' for Inactive)
REMARK    1  A    between atoms: C_2  and  C_23
REMARK    2  A    between atoms: C_9  and  C_13
REMARK    3  A    between atoms: C_23  and  N_24
REMARK    4  A    between atoms: C_25  and  C_31
REMARK    5  A    between atoms: C_31  and  N_32
REMARK                            x       y       z     vdW  Elec       q    Type
REMARK                         _______ _______ _______ _____ _____    ______ ____
ROOT
ATOM      1  N   UNL     1      33.854 -14.612 -23.260  0.00  0.00    -0.312 N 
ATOM      2  C   UNL     1      35.568 -18.166 -22.100  0.00  0.00    -0.043 C 
ATOM      3  C   UNL     1      35.275 -17.140 -21.200  0.00  0.00    -0.005 C 
ATOM      4  C   UNL     1      35.291 -18.041 -23.455  0.00  0.00    -0.005 C 
ATOM      5  C   UNL     1      34.687 -15.955 -21.686  0.00  0.00    +0.014 C 
ATOM      6  C   UNL     1      34.419 -15.851 -23.053  0.00  0.00    +0.048 C 
ATOM      7  C   UNL     1      34.709 -16.875 -23.960  0.00  0.00    +0.014 C 
ATOM      8  C   UNL     1      34.265 -14.738 -21.083  0.00  0.00    +0.016 C 
ATOM      9  C   UNL     1      33.757 -13.932 -22.076  0.00  0.00    +0.053 C 
ATOM     10  H   UNL     1      33.563 -14.265 -24.134  0.00  0.00    +0.152 HD
ENDROOT
BRANCH   9  13
ATOM     11  O   UNL     1      31.377 -13.211 -20.669  0.00  0.00    -0.270 OA
ATOM     12  N   UNL     1      31.469 -11.031 -21.372  0.00  0.00    -0.280 N 
ATOM     13  C   UNL     1      33.193 -12.619 -22.095  0.00  0.00    +0.067 C 
ATOM     14  C   UNL     1      33.790 -11.648 -22.807  0.00  0.00    +0.007 C 
ATOM     15  C   UNL     1      31.942 -12.328 -21.315  0.00  0.00    +0.251 C 
ATOM     16  C   UNL     1      33.245 -10.292 -22.840  0.00  0.00    +0.014 C 
ATOM     17  C   UNL     1      32.085 -10.010 -22.112  0.00  0.00    +0.051 C 
ATOM     18  C   UNL     1      33.856  -9.275 -23.579  0.00  0.00    +0.001 C 
ATOM     19  C   UNL     1      31.535  -8.725 -22.118  0.00  0.00    +0.015 C 
ATOM     20  C   UNL     1      33.309  -7.990 -23.585  0.00  0.00    +0.000 C 
ATOM     21  C   UNL     1      32.151  -7.716 -22.857  0.00  0.00    +0.001 C 
ATOM     22  H   UNL     1      30.653 -10.811 -20.865  0.00  0.00    +0.155 HD
ENDBRANCH   9  13
BRANCH   2  23
ATOM     23  C   UNL     1      36.195 -19.430 -21.589  0.00  0.00    -0.050 C 
BRANCH  23  24
ATOM     24  N   UNL     1      35.418 -20.026 -20.502  0.00  0.00    +0.390 N 
ATOM     25  C   UNL     1      33.899 -22.165 -19.191  0.00  0.00    -0.026 C 
ATOM     26  C   UNL     1      33.222 -20.943 -19.822  0.00  0.00    -0.025 C 
ATOM     27  C   UNL     1      35.335 -21.812 -18.791  0.00  0.00    -0.025 C 
ATOM     28  C   UNL     1      34.065 -20.368 -20.962  0.00  0.00    -0.077 C 
ATOM     29  C   UNL     1      36.108 -21.207 -19.965  0.00  0.00    -0.077 C 
ATOM     30  H   UNL     1      35.331 -19.343 -19.749  0.00  0.00    -0.079 HD
BRANCH  25  31
ATOM     31  C   UNL     1      33.104 -22.674 -17.992  0.00  0.00    -0.086 C 
BRANCH  31  32
ATOM     32  N   UNL     1      33.439 -24.058 -17.697  0.00  0.00    +0.380 N 
ATOM     33  H   UNL     1      33.228 -24.639 -18.507  0.00  0.00    -0.089 HD
ATOM     34  H   UNL     1      32.891 -24.378 -16.897  0.00  0.00    -0.089 HD
ATOM     35  H   UNL     1      34.433 -24.129 -17.477  0.00  0.00    -0.089 HD
ENDBRANCH  31  32
ENDBRANCH  25  31
ENDBRANCH  23  24
ENDBRANCH   2  23
TORSDOF 5
ENDMDL
MODEL 6
REMARK VINA RESULT:     -11.5      7.140     14.936
REMARK  Name = 10156987
REMARK  5 active torsions:
REMARK  status: ('A' for Active; 'I' for Inactive)
REMARK    1  A    between atoms: C_2  and  C_23
REMARK    2  A    between atoms: C_9  and  C_13
REMARK    3  A    between atoms: C_23  and  N_24
REMARK    4  A    between atoms: C_25  and  C_31
REMARK    5  A    between atoms: C_31  and  N_32
REMARK                            x       y       z     vdW  Elec       q    Type
REMARK                         _______ _______ _______ _____ _____    ______ ____
ROOT
ATOM      1  N   UNL     1      31.801  -7.806 -20.765  0.00  0.00    -0.312 N 
ATOM      2  C   UNL     1      31.801 -11.891 -20.287  0.00  0.00    -0.043 C 
ATOM      3  C   UNL     1      31.705 -11.277 -21.536  0.00  0.00    -0.005 C 
ATOM      4  C   UNL     1      31.904 -11.144 -19.120  0.00  0.00    -0.005 C 
ATOM      5  C   UNL     1      31.713  -9.870 -21.607  0.00  0.00    +0.014 C 
ATOM      6  C   UNL     1      31.817  -9.139 -20.421  0.00  0.00    +0.048 C 
ATOM      7  C   UNL     1      31.914  -9.747 -19.165  0.00  0.00    +0.014 C 
ATOM      8  C   UNL     1      31.635  -8.929 -22.671  0.00  0.00    +0.016 C 
ATOM      9  C   UNL     1      31.691  -7.669 -22.122  0.00  0.00    +0.053 C 
ATOM     10  H   UNL     1      31.860  -7.058 -20.126  0.00  0.00    +0.152 HD
ENDROOT
BRANCH   9  13
ATOM     11  O   UNL     1      30.147  -5.536 -21.014  0.00  0.00    -0.270 OA
ATOM     12  N   UNL     1      30.857  -4.031 -22.590  0.00  0.00    -0.280 N 
ATOM     13  C   UNL     1      31.658  -6.348 -22.668  0.00  0.00    +0.067 C 
ATOM     14  C   UNL     1      32.381  -6.063 -23.765  0.00  0.00    +0.007 C 
ATOM     15  C   UNL     1      30.824  -5.286 -22.011  0.00  0.00    +0.251 C 
ATOM     16  C   UNL     1      32.377  -4.721 -24.343  0.00  0.00    +0.014 C 
ATOM     17  C   UNL     1      31.609  -3.723 -23.735  0.00  0.00    +0.051 C 
ATOM     18  C   UNL     1      33.123  -4.413 -25.484  0.00  0.00    +0.001 C 
ATOM     19  C   UNL     1      31.581  -2.427 -24.258  0.00  0.00    +0.015 C 
ATOM     20  C   UNL     1      33.097  -3.118 -26.008  0.00  0.00    +0.000 C 
ATOM     21  C   UNL     1      32.328  -2.128 -25.396  0.00  0.00    +0.001 C 
ATOM     22  H   UNL     1      30.324  -3.314 -22.176  0.00  0.00    +0.155 HD
ENDBRANCH   9  13
BRANCH   2  23
ATOM     23  C   UNL     1      31.791 -13.389 -20.205  0.00  0.00    -0.050 C 
BRANCH  23  24
ATOM     24  N   UNL     1      32.932 -13.983 -20.903  0.00  0.00    +0.390 N 
ATOM     25  C   UNL     1      34.283 -16.026 -22.515  0.00  0.00    -0.026 C 
ATOM     26  C   UNL     1      34.496 -15.898 -21.003  0.00  0.00    -0.025 C 
ATOM     27  C   UNL     1      33.852 -14.675 -23.093  0.00  0.00    -0.025 C 
ATOM     28  C   UNL     1      33.271 -15.288 -20.318  0.00  0.00    -0.077 C 
ATOM     29  C   UNL     1      32.648 -14.104 -22.340  0.00  0.00    -0.077 C 
ATOM     30  H   UNL     1      33.738 -13.369 -20.793  0.00  0.00    -0.079 HD
BRANCH  25  31
ATOM     31  C   UNL     1      35.544 -16.542 -23.205  0.00  0.00    -0.086 C 
BRANCH  31  32
ATOM     32  N   UNL     1      35.820 -17.917 -22.821  0.00  0.00    +0.380 N 
ATOM     33  H   UNL     1      35.960 -18.482 -23.659  0.00  0.00    -0.089 HD
ATOM     34  H   UNL     1      35.031 -18.287 -22.290  0.00  0.00    -0.089 HD
ATOM     35  H   UNL     1      36.661 -17.948 -22.245  0.00  0.00    -0.089 HD
ENDBRANCH  31  32
ENDBRANCH  25  31
ENDBRANCH  23  24
ENDBRANCH   2  23
TORSDOF 5
ENDMDL
MODEL 7
REMARK VINA RESULT:     -11.5      3.088      6.025
REMARK  Name = 10156987
REMARK  5 active torsions:
REMARK  status: ('A' for Active; 'I' for Inactive)
REMARK    1  A    between atoms: C_2  and  C_23
REMARK    2  A    between atoms: C_9  and  C_13
REMARK    3  A    between atoms: C_23  and  N_24
REMARK    4  A    between atoms: C_25  and  C_31
REMARK    5  A    between atoms: C_31  and  N_32
REMARK                            x       y       z     vdW  Elec       q    Type
REMARK                         _______ _______ _______ _____ _____    ______ ____
ROOT
ATOM      1  N   UNL     1      34.573 -17.190 -23.318  0.00  0.00    -0.312 N 
ATOM      2  C   UNL     1      33.922 -13.212 -24.138  0.00  0.00    -0.043 C 
ATOM      3  C   UNL     1      34.222 -13.680 -22.858  0.00  0.00    -0.005 C 
ATOM      4  C   UNL     1      33.827 -14.077 -25.221  0.00  0.00    -0.005 C 
ATOM      5  C   UNL     1      34.430 -15.061 -22.668  0.00  0.00    +0.014 C 
ATOM      6  C   UNL     1      34.329 -15.912 -23.771  0.00  0.00    +0.048 C 
ATOM      7  C   UNL     1      34.029 -15.450 -25.057  0.00  0.00    +0.014 C 
ATOM      8  C   UNL     1      34.743 -15.871 -21.542  0.00  0.00    +0.016 C 
ATOM      9  C   UNL     1      34.824 -17.175 -21.973  0.00  0.00    +0.053 C 
ATOM     10  H   UNL     1      34.568 -17.997 -23.882  0.00  0.00    +0.152 HD
ENDROOT
BRANCH   9  13
ATOM     11  O   UNL     1      37.459 -18.214 -21.598  0.00  0.00    -0.270 OA
ATOM     12  N   UNL     1      36.705 -20.086 -20.510  0.00  0.00    -0.280 N 
ATOM     13  C   UNL     1      35.101 -18.418 -21.324  0.00  0.00    +0.067 C 
ATOM     14  C   UNL     1      34.085 -19.164 -20.855  0.00  0.00    +0.007 C 
ATOM     15  C   UNL     1      36.521 -18.881 -21.162  0.00  0.00    +0.251 C 
ATOM     16  C   UNL     1      34.333 -20.435 -20.178  0.00  0.00    +0.014 C 
ATOM     17  C   UNL     1      35.651 -20.872 -20.016  0.00  0.00    +0.051 C 
ATOM     18  C   UNL     1      33.285 -21.220 -19.688  0.00  0.00    +0.001 C 
ATOM     19  C   UNL     1      35.928 -22.081 -19.372  0.00  0.00    +0.015 C 
ATOM     20  C   UNL     1      33.559 -22.429 -19.043  0.00  0.00    +0.000 C 
ATOM     21  C   UNL     1      34.877 -22.858 -18.887  0.00  0.00    +0.001 C 
ATOM     22  H   UNL     1      37.626 -20.410 -20.385  0.00  0.00    +0.155 HD
ENDBRANCH   9  13
BRANCH   2  23
ATOM     23  C   UNL     1      33.698 -11.743 -24.346  0.00  0.00    -0.050 C 
BRANCH  23  24
ATOM     24  N   UNL     1      33.473 -11.039 -23.084  0.00  0.00    +0.390 N 
ATOM     25  C   UNL     1      32.044  -9.223 -21.278  0.00  0.00    -0.026 C 
ATOM     26  C   UNL     1      33.358  -8.835 -21.964  0.00  0.00    -0.025 C 
ATOM     27  C   UNL     1      31.960 -10.747 -21.148  0.00  0.00    -0.025 C 
ATOM     28  C   UNL     1      33.538  -9.585 -23.286  0.00  0.00    -0.077 C 
ATOM     29  C   UNL     1      32.186 -11.435 -22.496  0.00  0.00    -0.077 C 
ATOM     30  H   UNL     1      34.210 -11.298 -22.428  0.00  0.00    -0.079 HD
BRANCH  25  31
ATOM     31  C   UNL     1      31.917  -8.548 -19.914  0.00  0.00    -0.086 C 
BRANCH  31  32
ATOM     32  N   UNL     1      33.142  -7.844 -19.568  0.00  0.00    +0.380 N 
ATOM     33  H   UNL     1      32.954  -7.189 -18.809  0.00  0.00    -0.089 HD
ATOM     34  H   UNL     1      33.482  -7.332 -20.382  0.00  0.00    -0.089 HD
ATOM     35  H   UNL     1      33.849  -8.517 -19.269  0.00  0.00    -0.089 HD
ENDBRANCH  31  32
ENDBRANCH  25  31
ENDBRANCH  23  24
ENDBRANCH   2  23
TORSDOF 5
ENDMDL
MODEL 8
REMARK VINA RESULT:     -11.3      1.513      2.351
REMARK  Name = 10156987
REMARK  5 active torsions:
REMARK  status: ('A' for Active; 'I' for Inactive)
REMARK    1  A    between atoms: C_2  and  C_23
REMARK    2  A    between atoms: C_9  and  C_13
REMARK    3  A    between atoms: C_23  and  N_24
REMARK    4  A    between atoms: C_25  and  C_31
REMARK    5  A    between atoms: C_31  and  N_32
REMARK                            x       y       z     vdW  Elec       q    Type
REMARK                         _______ _______ _______ _____ _____    ______ ____
ROOT
ATOM      1  N   UNL     1      35.888 -20.899 -19.411  0.00  0.00    -0.312 N 
ATOM      2  C   UNL     1      35.249 -18.843 -22.916  0.00  0.00    -0.043 C 
ATOM      3  C   UNL     1      34.249 -19.580 -22.280  0.00  0.00    -0.005 C 
ATOM      4  C   UNL     1      36.533 -18.762 -22.391  0.00  0.00    -0.005 C 
ATOM      5  C   UNL     1      34.557 -20.254 -21.081  0.00  0.00    +0.014 C 
ATOM      6  C   UNL     1      35.854 -20.159 -20.572  0.00  0.00    +0.048 C 
ATOM      7  C   UNL     1      36.862 -19.422 -21.204  0.00  0.00    +0.014 C 
ATOM      8  C   UNL     1      33.816 -21.075 -20.186  0.00  0.00    +0.016 C 
ATOM      9  C   UNL     1      34.661 -21.456 -19.170  0.00  0.00    +0.053 C 
ATOM     10  H   UNL     1      36.681 -21.011 -18.837  0.00  0.00    +0.152 HD
ENDROOT
BRANCH   9  13
ATOM     11  O   UNL     1      36.849 -22.420 -17.605  0.00  0.00    -0.270 OA
ATOM     12  N   UNL     1      35.477 -23.483 -16.108  0.00  0.00    -0.280 N 
ATOM     13  C   UNL     1      34.504 -22.264 -18.001  0.00  0.00    +0.067 C 
ATOM     14  C   UNL     1      33.271 -22.609 -17.591  0.00  0.00    +0.007 C 
ATOM     15  C   UNL     1      35.714 -22.717 -17.234  0.00  0.00    +0.251 C 
ATOM     16  C   UNL     1      33.074 -23.426 -16.396  0.00  0.00    +0.014 C 
ATOM     17  C   UNL     1      34.193 -23.848 -15.671  0.00  0.00    +0.051 C 
ATOM     18  C   UNL     1      31.798 -23.792 -15.960  0.00  0.00    +0.001 C 
ATOM     19  C   UNL     1      34.045 -24.628 -14.521  0.00  0.00    +0.015 C 
ATOM     20  C   UNL     1      31.647 -24.572 -14.811  0.00  0.00    +0.000 C 
ATOM     21  C   UNL     1      32.768 -24.989 -14.094  0.00  0.00    +0.001 C 
ATOM     22  H   UNL     1      36.252 -23.789 -15.583  0.00  0.00    +0.155 HD
ENDBRANCH   9  13
BRANCH   2  23
ATOM     23  C   UNL     1      34.928 -18.125 -24.193  0.00  0.00    -0.050 C 
BRANCH  23  24
ATOM     24  N   UNL     1      34.830 -16.678 -23.998  0.00  0.00    +0.390 N 
ATOM     25  C   UNL     1      33.470 -14.189 -23.256  0.00  0.00    -0.026 C 
ATOM     26  C   UNL     1      33.713 -14.590 -24.715  0.00  0.00    -0.025 C 
ATOM     27  C   UNL     1      34.515 -14.855 -22.356  0.00  0.00    -0.025 C 
ATOM     28  C   UNL     1      33.791 -16.110 -24.868  0.00  0.00    -0.077 C 
ATOM     29  C   UNL     1      34.567 -16.367 -22.587  0.00  0.00    -0.077 C 
ATOM     30  H   UNL     1      35.721 -16.253 -24.253  0.00  0.00    -0.079 HD
BRANCH  25  31
ATOM     31  C   UNL     1      33.492 -12.671 -23.093  0.00  0.00    -0.086 C 
BRANCH  31  32
ATOM     32  N   UNL     1      34.371 -12.057 -24.076  0.00  0.00    +0.380 N 
ATOM     33  H   UNL     1      34.258 -12.526 -24.974  0.00  0.00    -0.089 HD
ATOM     34  H   UNL     1      35.340 -12.144 -23.767  0.00  0.00    -0.089 HD
ATOM     35  H   UNL     1      34.134 -11.069 -24.175  0.00  0.00    -0.089 HD
ENDBRANCH  31  32
ENDBRANCH  25  31
ENDBRANCH  23  24
ENDBRANCH   2  23
TORSDOF 5
ENDMDL
MODEL 9
REMARK VINA RESULT:     -11.2      1.955      3.033
REMARK  Name = 10156987
REMARK  5 active torsions:
REMARK  status: ('A' for Active; 'I' for Inactive)
REMARK    1  A    between atoms: C_2  and  C_23
REMARK    2  A    between atoms: C_9  and  C_13
REMARK    3  A    between atoms: C_23  and  N_24
REMARK    4  A    between atoms: C_25  and  C_31
REMARK    5  A    between atoms: C_31  and  N_32
REMARK                            x       y       z     vdW  Elec       q    Type
REMARK                         _______ _______ _______ _____ _____    ______ ____
ROOT
ATOM      1  N   UNL     1      34.838 -22.467 -17.438  0.00  0.00    -0.312 N 
ATOM      2  C   UNL     1      35.224 -20.399 -20.973  0.00  0.00    -0.043 C 
ATOM      3  C   UNL     1      36.307 -20.674 -20.137  0.00  0.00    -0.005 C 
ATOM      4  C   UNL     1      33.938 -20.816 -20.652  0.00  0.00    -0.005 C 
ATOM      5  C   UNL     1      36.083 -21.389 -18.944  0.00  0.00    +0.014 C 
ATOM      6  C   UNL     1      34.782 -21.798 -18.641  0.00  0.00    +0.048 C 
ATOM      7  C   UNL     1      33.691 -21.526 -19.474  0.00  0.00    +0.014 C 
ATOM      8  C   UNL     1      36.918 -21.836 -17.883  0.00  0.00    +0.016 C 
ATOM      9  C   UNL     1      36.125 -22.495 -16.973  0.00  0.00    +0.053 C 
ATOM     10  H   UNL     1      34.064 -22.867 -16.980  0.00  0.00    +0.152 HD
ENDROOT
BRANCH   9  13
ATOM     11  O   UNL     1      38.732 -23.266 -16.092  0.00  0.00    -0.270 OA
ATOM     12  N   UNL     1      37.950 -24.127 -14.117  0.00  0.00    -0.280 N 
ATOM     13  C   UNL     1      36.379 -23.150 -15.728  0.00  0.00    +0.067 C 
ATOM     14  C   UNL     1      35.356 -23.436 -14.905  0.00  0.00    +0.007 C 
ATOM     15  C   UNL     1      37.786 -23.510 -15.343  0.00  0.00    +0.251 C 
ATOM     16  C   UNL     1      35.581 -24.098 -13.622  0.00  0.00    +0.014 C 
ATOM     17  C   UNL     1      36.887 -24.430 -13.251  0.00  0.00    +0.051 C 
ATOM     18  C   UNL     1      34.524 -24.401 -12.759  0.00  0.00    +0.001 C 
ATOM     19  C   UNL     1      37.143 -25.061 -12.030  0.00  0.00    +0.015 C 
ATOM     20  C   UNL     1      34.778 -25.031 -11.538  0.00  0.00    +0.000 C 
ATOM     21  C   UNL     1      36.084 -25.361 -11.175  0.00  0.00    +0.001 C 
ATOM     22  H   UNL     1      38.863 -24.369 -13.837  0.00  0.00    +0.155 HD
ENDBRANCH   9  13
BRANCH   2  23
ATOM     23  C   UNL     1      35.456 -19.636 -22.244  0.00  0.00    -0.050 C 
BRANCH  23  24
ATOM     24  N   UNL     1      34.807 -18.325 -22.223  0.00  0.00    +0.390 N 
ATOM     25  C   UNL     1      34.754 -15.393 -22.229  0.00  0.00    -0.026 C 
ATOM     26  C   UNL     1      34.499 -16.218 -20.963  0.00  0.00    -0.025 C 
ATOM     27  C   UNL     1      34.404 -16.225 -23.467  0.00  0.00    -0.025 C 
ATOM     28  C   UNL     1      35.210 -17.571 -21.027  0.00  0.00    -0.077 C 
ATOM     29  C   UNL     1      35.118 -17.578 -23.449  0.00  0.00    -0.077 C 
ATOM     30  H   UNL     1      33.797 -18.460 -22.184  0.00  0.00    -0.079 HD
BRANCH  25  31
ATOM     31  C   UNL     1      33.962 -14.088 -22.203  0.00  0.00    -0.086 C 
BRANCH  31  32
ATOM     32  N   UNL     1      34.419 -13.183 -23.245  0.00  0.00    +0.380 N 
ATOM     33  H   UNL     1      35.352 -13.459 -23.550  0.00  0.00    -0.089 HD
ATOM     34  H   UNL     1      34.449 -12.231 -22.880  0.00  0.00    -0.089 HD
ATOM     35  H   UNL     1      33.777 -13.223 -24.037  0.00  0.00    -0.089 HD
ENDBRANCH  31  32
ENDBRANCH  25  31
ENDBRANCH  23  24
ENDBRANCH   2  23
TORSDOF 5
ENDMDL
