MODEL 1
REMARK VINA RESULT:     -12.1      0.000      0.000
REMARK  Name = 46911863
REMARK  3 active torsions:
REMARK  status: ('A' for Active; 'I' for Inactive)
REMARK    1  A    between atoms: C_5  and  C_18
REMARK    2  A    between atoms: C_7  and  C_12
REMARK    3  A    between atoms: C_18  and  C_20
REMARK                            x       y       z     vdW  Elec       q    Type
REMARK                         _______ _______ _______ _____ _____    ______ ____
ROOT
ATOM      1  N   UNL     1      32.948 -23.517 -15.895  0.00  0.00    -0.190 N 
ATOM      2  N   UNL     1      34.001 -24.018 -15.204  0.00  0.00    -0.162 NA
ATOM      3  N   UNL     1      31.729 -22.712 -17.530  0.00  0.00    -0.126 NA
ATOM      4  N   UNL     1      30.946 -22.767 -16.395  0.00  0.00    -0.127 NA
ATOM      5  C   UNL     1      32.921 -23.165 -17.213  0.00  0.00    +0.228 A 
ATOM      6  C   UNL     1      31.684 -23.250 -15.419  0.00  0.00    +0.187 A 
ATOM      7  C   UNL     1      33.743 -24.257 -13.950  0.00  0.00    +0.104 C 
ATOM      8  C   UNL     1      31.429 -23.534 -14.064  0.00  0.00    +0.042 C 
ATOM      9  C   UNL     1      32.410 -24.033 -13.301  0.00  0.00    +0.024 C 
ENDROOT
BRANCH   7  12
ATOM     10  N   UNL     1      36.694 -25.685 -12.388  0.00  0.00    -0.208 N 
ATOM     11  N   UNL     1      36.003 -25.482 -11.252  0.00  0.00    -0.176 NA
ATOM     12  C   UNL     1      34.820 -24.804 -13.084  0.00  0.00    +0.056 C 
ATOM     13  C   UNL     1      36.029 -25.296 -13.513  0.00  0.00    +0.087 C 
ATOM     14  C   UNL     1      34.860 -24.944 -11.684  0.00  0.00    +0.121 C 
ATOM     15  C   UNL     1      38.014 -26.266 -12.330  0.00  0.00    +0.140 C 
ENDBRANCH   7  12
BRANCH   5  18
ATOM     16  F   UNL     1      34.042 -24.481 -18.847  0.00  0.00    -0.191 F 
ATOM     17  F   UNL     1      35.270 -23.501 -17.380  0.00  0.00    -0.191 F 
ATOM     18  C   UNL     1      34.132 -23.298 -18.137  0.00  0.00    +0.335 C 
BRANCH  18  20
ATOM     19  N   UNL     1      34.630 -18.830 -21.573  0.00  0.00    -0.244 NA
ATOM     20  C   UNL     1      34.273 -22.121 -19.042  0.00  0.00    +0.045 C 
ATOM     21  C   UNL     1      35.536 -21.630 -19.358  0.00  0.00    +0.003 C 
ATOM     22  C   UNL     1      35.674 -20.521 -20.211  0.00  0.00    +0.018 C 
ATOM     23  C   UNL     1      33.145 -21.508 -19.573  0.00  0.00    +0.003 C 
ATOM     24  C   UNL     1      34.534 -19.894 -20.754  0.00  0.00    +0.081 C 
ATOM     25  C   UNL     1      33.283 -20.406 -20.419  0.00  0.00    +0.019 C 
ATOM     26  C   UNL     1      36.934 -20.007 -20.547  0.00  0.00    +0.003 C 
ATOM     27  C   UNL     1      37.036 -18.911 -21.392  0.00  0.00    +0.021 C 
ATOM     28  C   UNL     1      35.864 -18.364 -21.874  0.00  0.00    +0.099 C 
ENDBRANCH  18  20
ENDBRANCH   5  18
TORSDOF 3
ENDMDL
MODEL 2
REMARK VINA RESULT:     -11.9      2.388      3.444
REMARK  Name = 46911863
REMARK  3 active torsions:
REMARK  status: ('A' for Active; 'I' for Inactive)
REMARK    1  A    between atoms: C_5  and  C_18
REMARK    2  A    between atoms: C_7  and  C_12
REMARK    3  A    between atoms: C_18  and  C_20
REMARK                            x       y       z     vdW  Elec       q    Type
REMARK                         _______ _______ _______ _____ _____    ______ ____
ROOT
ATOM      1  N   UNL     1      34.480 -22.196 -18.355  0.00  0.00    -0.190 N 
ATOM      2  N   UNL     1      35.555 -22.558 -17.612  0.00  0.00    -0.162 NA
ATOM      3  N   UNL     1      33.254 -21.302 -19.936  0.00  0.00    -0.126 NA
ATOM      4  N   UNL     1      32.414 -21.958 -19.059  0.00  0.00    -0.127 NA
ATOM      5  C   UNL     1      34.484 -21.456 -19.500  0.00  0.00    +0.228 A 
ATOM      6  C   UNL     1      33.158 -22.492 -18.113  0.00  0.00    +0.187 A 
ATOM      7  C   UNL     1      35.255 -23.263 -16.558  0.00  0.00    +0.104 C 
ATOM      8  C   UNL     1      32.864 -23.269 -16.976  0.00  0.00    +0.042 C 
ATOM      9  C   UNL     1      33.863 -23.674 -16.182  0.00  0.00    +0.024 C 
ENDROOT
BRANCH   7  12
ATOM     10  N   UNL     1      37.494 -24.801 -14.148  0.00  0.00    -0.208 N 
ATOM     11  N   UNL     1      38.371 -23.894 -14.614  0.00  0.00    -0.176 NA
ATOM     12  C   UNL     1      36.348 -23.716 -15.659  0.00  0.00    +0.056 C 
ATOM     13  C   UNL     1      36.267 -24.736 -14.741  0.00  0.00    +0.087 C 
ATOM     14  C   UNL     1      37.664 -23.234 -15.535  0.00  0.00    +0.121 C 
ATOM     15  C   UNL     1      37.897 -25.724 -13.114  0.00  0.00    +0.140 C 
ENDBRANCH   7  12
BRANCH   5  18
ATOM     16  F   UNL     1      36.515 -21.956 -20.632  0.00  0.00    -0.191 F 
ATOM     17  F   UNL     1      36.586 -20.399 -19.151  0.00  0.00    -0.191 F 
ATOM     18  C   UNL     1      35.761 -20.908 -20.137  0.00  0.00    +0.335 C 
BRANCH  18  20
ATOM     19  N   UNL     1      34.652 -17.085 -24.158  0.00  0.00    -0.244 NA
ATOM     20  C   UNL     1      35.468 -19.894 -21.189  0.00  0.00    +0.045 C 
ATOM     21  C   UNL     1      35.300 -18.556 -20.844  0.00  0.00    +0.003 C 
ATOM     22  C   UNL     1      35.024 -17.596 -21.833  0.00  0.00    +0.018 C 
ATOM     23  C   UNL     1      35.362 -20.278 -22.520  0.00  0.00    +0.003 C 
ATOM     24  C   UNL     1      34.915 -17.979 -23.186  0.00  0.00    +0.081 C 
ATOM     25  C   UNL     1      35.087 -19.323 -23.502  0.00  0.00    +0.019 C 
ATOM     26  C   UNL     1      34.851 -16.242 -21.514  0.00  0.00    +0.003 C 
ATOM     27  C   UNL     1      34.580 -15.319 -22.514  0.00  0.00    +0.021 C 
ATOM     28  C   UNL     1      34.491 -15.788 -23.809  0.00  0.00    +0.099 C 
ENDBRANCH  18  20
ENDBRANCH   5  18
TORSDOF 3
ENDMDL
MODEL 3
REMARK VINA RESULT:     -11.6      2.215      4.971
REMARK  Name = 46911863
REMARK  3 active torsions:
REMARK  status: ('A' for Active; 'I' for Inactive)
REMARK    1  A    between atoms: C_5  and  C_18
REMARK    2  A    between atoms: C_7  and  C_12
REMARK    3  A    between atoms: C_18  and  C_20
REMARK                            x       y       z     vdW  Elec       q    Type
REMARK                         _______ _______ _______ _____ _____    ______ ____
ROOT
ATOM      1  N   UNL     1      32.916 -23.248 -16.308  0.00  0.00    -0.190 N 
ATOM      2  N   UNL     1      31.605 -23.174 -16.645  0.00  0.00    -0.162 NA
ATOM      3  N   UNL     1      35.101 -23.305 -16.465  0.00  0.00    -0.126 NA
ATOM      4  N   UNL     1      34.762 -23.432 -15.134  0.00  0.00    -0.127 NA
ATOM      5  C   UNL     1      33.986 -23.195 -17.152  0.00  0.00    +0.228 A 
ATOM      6  C   UNL     1      33.449 -23.397 -15.048  0.00  0.00    +0.187 A 
ATOM      7  C   UNL     1      30.793 -23.260 -15.630  0.00  0.00    +0.104 C 
ATOM      8  C   UNL     1      32.549 -23.471 -13.968  0.00  0.00    +0.042 C 
ATOM      9  C   UNL     1      31.232 -23.405 -14.204  0.00  0.00    +0.024 C 
ENDROOT
BRANCH   7  12
ATOM     10  N   UNL     1      27.196 -22.764 -15.671  0.00  0.00    -0.208 N 
ATOM     11  N   UNL     1      27.265 -23.477 -16.809  0.00  0.00    -0.176 NA
ATOM     12  C   UNL     1      29.328 -23.197 -15.871  0.00  0.00    +0.056 C 
ATOM     13  C   UNL     1      28.405 -22.569 -15.070  0.00  0.00    +0.087 C 
ATOM     14  C   UNL     1      28.569 -23.739 -16.925  0.00  0.00    +0.121 C 
ATOM     15  C   UNL     1      25.918 -22.287 -15.200  0.00  0.00    +0.140 C 
ENDBRANCH   7  12
BRANCH   5  18
ATOM     16  F   UNL     1      32.546 -22.694 -18.977  0.00  0.00    -0.191 F 
ATOM     17  F   UNL     1      33.979 -24.268 -19.275  0.00  0.00    -0.191 F 
ATOM     18  C   UNL     1      33.849 -23.034 -18.666  0.00  0.00    +0.335 C 
BRANCH  18  20
ATOM     19  N   UNL     1      37.572 -19.295 -20.709  0.00  0.00    -0.244 NA
ATOM     20  C   UNL     1      34.823 -22.045 -19.211  0.00  0.00    +0.045 C 
ATOM     21  C   UNL     1      34.425 -21.136 -20.186  0.00  0.00    +0.003 C 
ATOM     22  C   UNL     1      35.340 -20.201 -20.702  0.00  0.00    +0.018 C 
ATOM     23  C   UNL     1      36.132 -22.026 -18.748  0.00  0.00    +0.003 C 
ATOM     24  C   UNL     1      36.671 -20.176 -20.236  0.00  0.00    +0.081 C 
ATOM     25  C   UNL     1      37.041 -21.098 -19.261  0.00  0.00    +0.019 C 
ATOM     26  C   UNL     1      34.966 -19.274 -21.684  0.00  0.00    +0.003 C 
ATOM     27  C   UNL     1      35.893 -18.364 -22.173  0.00  0.00    +0.021 C 
ATOM     28  C   UNL     1      37.172 -18.416 -21.656  0.00  0.00    +0.099 C 
ENDBRANCH  18  20
ENDBRANCH   5  18
TORSDOF 3
ENDMDL
MODEL 4
REMARK VINA RESULT:     -11.3      6.575     10.663
REMARK  Name = 46911863
REMARK  3 active torsions:
REMARK  status: ('A' for Active; 'I' for Inactive)
REMARK    1  A    between atoms: C_5  and  C_18
REMARK    2  A    between atoms: C_7  and  C_12
REMARK    3  A    between atoms: C_18  and  C_20
REMARK                            x       y       z     vdW  Elec       q    Type
REMARK                         _______ _______ _______ _____ _____    ______ ____
ROOT
ATOM      1  N   UNL     1      33.964 -15.666 -22.719  0.00  0.00    -0.190 N 
ATOM      2  N   UNL     1      34.416 -16.583 -21.827  0.00  0.00    -0.162 NA
ATOM      3  N   UNL     1      33.001 -13.887 -23.560  0.00  0.00    -0.126 NA
ATOM      4  N   UNL     1      33.517 -14.630 -24.602  0.00  0.00    -0.127 NA
ATOM      5  C   UNL     1      33.278 -14.520 -22.443  0.00  0.00    +0.228 A 
ATOM      6  C   UNL     1      34.093 -15.697 -24.088  0.00  0.00    +0.187 A 
ATOM      7  C   UNL     1      35.035 -17.590 -22.374  0.00  0.00    +0.104 C 
ATOM      8  C   UNL     1      34.780 -16.789 -24.651  0.00  0.00    +0.042 C 
ATOM      9  C   UNL     1      35.265 -17.745 -23.848  0.00  0.00    +0.024 C 
ENDROOT
BRANCH   7  12
ATOM     10  N   UNL     1      35.747 -20.448 -20.250  0.00  0.00    -0.208 N 
ATOM     11  N   UNL     1      36.994 -19.945 -20.252  0.00  0.00    -0.176 NA
ATOM     12  C   UNL     1      35.573 -18.666 -21.501  0.00  0.00    +0.056 C 
ATOM     13  C   UNL     1      34.858 -19.719 -20.983  0.00  0.00    +0.087 C 
ATOM     14  C   UNL     1      36.881 -18.856 -21.017  0.00  0.00    +0.121 C 
ATOM     15  C   UNL     1      35.463 -21.656 -19.513  0.00  0.00    +0.140 C 
ENDBRANCH   7  12
BRANCH   5  18
ATOM     16  F   UNL     1      33.963 -14.362 -20.171  0.00  0.00    -0.191 F 
ATOM     17  F   UNL     1      31.917 -14.913 -20.532  0.00  0.00    -0.191 F 
ATOM     18  C   UNL     1      32.911 -14.087 -21.024  0.00  0.00    +0.335 C 
BRANCH  18  20
ATOM     19  N   UNL     1      31.390  -8.643 -20.764  0.00  0.00    -0.244 NA
ATOM     20  C   UNL     1      32.514 -12.651 -20.965  0.00  0.00    +0.045 C 
ATOM     21  C   UNL     1      32.726 -11.821 -22.061  0.00  0.00    +0.003 C 
ATOM     22  C   UNL     1      32.353 -10.467 -22.010  0.00  0.00    +0.018 C 
ATOM     23  C   UNL     1      31.930 -12.134 -19.815  0.00  0.00    +0.003 C 
ATOM     24  C   UNL     1      31.759  -9.935 -20.847  0.00  0.00    +0.081 C 
ATOM     25  C   UNL     1      31.560 -10.788 -19.765  0.00  0.00    +0.019 C 
ATOM     26  C   UNL     1      32.554  -9.609 -23.100  0.00  0.00    +0.003 C 
ATOM     27  C   UNL     1      32.175  -8.277 -23.018  0.00  0.00    +0.021 C 
ATOM     28  C   UNL     1      31.602  -7.847 -21.838  0.00  0.00    +0.099 C 
ENDBRANCH  18  20
ENDBRANCH   5  18
TORSDOF 3
ENDMDL
MODEL 5
REMARK VINA RESULT:     -11.3      8.289     13.321
REMARK  Name = 46911863
REMARK  3 active torsions:
REMARK  status: ('A' for Active; 'I' for Inactive)
REMARK    1  A    between atoms: C_5  and  C_18
REMARK    2  A    between atoms: C_7  and  C_12
REMARK    3  A    between atoms: C_18  and  C_20
REMARK                            x       y       z     vdW  Elec       q    Type
REMARK                         _______ _______ _______ _____ _____    ______ ____
ROOT
ATOM      1  N   UNL     1      32.430 -12.251 -21.764  0.00  0.00    -0.190 N 
ATOM      2  N   UNL     1      32.576 -11.122 -22.501  0.00  0.00    -0.162 NA
ATOM      3  N   UNL     1      32.522 -14.349 -21.138  0.00  0.00    -0.126 NA
ATOM      4  N   UNL     1      31.883 -13.632 -20.147  0.00  0.00    -0.127 NA
ATOM      5  C   UNL     1      32.842 -13.508 -22.095  0.00  0.00    +0.228 A 
ATOM      6  C   UNL     1      31.832 -12.374 -20.531  0.00  0.00    +0.187 A 
ATOM      7  C   UNL     1      32.077 -10.057 -21.940  0.00  0.00    +0.104 C 
ATOM      8  C   UNL     1      31.316 -11.204 -19.941  0.00  0.00    +0.042 C 
ATOM      9  C   UNL     1      31.415 -10.040 -20.595  0.00  0.00    +0.024 C 
ENDROOT
BRANCH   7  12
ATOM     10  N   UNL     1      32.941  -6.984 -23.669  0.00  0.00    -0.208 N 
ATOM     11  N   UNL     1      31.610  -6.794 -23.677  0.00  0.00    -0.176 NA
ATOM     12  C   UNL     1      32.170  -8.756 -22.652  0.00  0.00    +0.056 C 
ATOM     13  C   UNL     1      33.328  -8.144 -23.067  0.00  0.00    +0.087 C 
ATOM     14  C   UNL     1      31.145  -7.879 -23.054  0.00  0.00    +0.121 C 
ATOM     15  C   UNL     1      33.809  -5.999 -24.268  0.00  0.00    +0.140 C 
ENDBRANCH   7  12
BRANCH   5  18
ATOM     16  F   UNL     1      34.577 -12.915 -23.611  0.00  0.00    -0.191 F 
ATOM     17  F   UNL     1      32.722 -13.580 -24.470  0.00  0.00    -0.191 F 
ATOM     18  C   UNL     1      33.564 -13.833 -23.403  0.00  0.00    +0.335 C 
BRANCH  18  20
ATOM     19  N   UNL     1      35.496 -19.150 -23.520  0.00  0.00    -0.244 NA
ATOM     20  C   UNL     1      34.075 -15.233 -23.424  0.00  0.00    +0.045 C 
ATOM     21  C   UNL     1      34.535 -15.828 -22.252  0.00  0.00    +0.003 C 
ATOM     22  C   UNL     1      35.017 -17.148 -22.267  0.00  0.00    +0.018 C 
ATOM     23  C   UNL     1      34.096 -15.952 -24.612  0.00  0.00    +0.003 C 
ATOM     24  C   UNL     1      35.040 -17.884 -23.470  0.00  0.00    +0.081 C 
ATOM     25  C   UNL     1      34.575 -17.264 -24.627  0.00  0.00    +0.019 C 
ATOM     26  C   UNL     1      35.485 -17.772 -21.103  0.00  0.00    +0.003 C 
ATOM     27  C   UNL     1      35.954 -19.077 -21.151  0.00  0.00    +0.021 C 
ATOM     28  C   UNL     1      35.938 -19.716 -22.374  0.00  0.00    +0.099 C 
ENDBRANCH  18  20
ENDBRANCH   5  18
TORSDOF 3
ENDMDL
MODEL 6
REMARK VINA RESULT:     -10.9     10.889     15.027
REMARK  Name = 46911863
REMARK  3 active torsions:
REMARK  status: ('A' for Active; 'I' for Inactive)
REMARK    1  A    between atoms: C_5  and  C_18
REMARK    2  A    between atoms: C_7  and  C_12
REMARK    3  A    between atoms: C_18  and  C_20
REMARK                            x       y       z     vdW  Elec       q    Type
REMARK                         _______ _______ _______ _____ _____    ______ ____
ROOT
ATOM      1  N   UNL     1      32.297 -11.022 -21.482  0.00  0.00    -0.190 N 
ATOM      2  N   UNL     1      32.769 -11.863 -22.435  0.00  0.00    -0.162 NA
ATOM      3  N   UNL     1      31.717  -9.186 -20.434  0.00  0.00    -0.126 NA
ATOM      4  N   UNL     1      31.445 -10.258 -19.608  0.00  0.00    -0.127 NA
ATOM      5  C   UNL     1      32.224  -9.662 -21.549  0.00  0.00    +0.228 A 
ATOM      6  C   UNL     1      31.796 -11.356 -20.244  0.00  0.00    +0.187 A 
ATOM      7  C   UNL     1      32.727 -13.120 -22.096  0.00  0.00    +0.104 C 
ATOM      8  C   UNL     1      31.748 -12.723 -19.912  0.00  0.00    +0.042 C 
ATOM      9  C   UNL     1      32.192 -13.629 -20.792  0.00  0.00    +0.024 C 
ENDROOT
BRANCH   7  12
ATOM     10  N   UNL     1      34.196 -15.895 -23.920  0.00  0.00    -0.208 N 
ATOM     11  N   UNL     1      33.639 -15.292 -24.984  0.00  0.00    -0.176 NA
ATOM     12  C   UNL     1      33.222 -14.142 -23.056  0.00  0.00    +0.056 C 
ATOM     13  C   UNL     1      33.976 -15.247 -22.741  0.00  0.00    +0.087 C 
ATOM     14  C   UNL     1      33.046 -14.221 -24.450  0.00  0.00    +0.121 C 
ATOM     15  C   UNL     1      34.943 -17.117 -24.098  0.00  0.00    +0.140 C 
ENDBRANCH   7  12
BRANCH   5  18
ATOM     16  F   UNL     1      32.388  -9.563 -23.920  0.00  0.00    -0.191 F 
ATOM     17  F   UNL     1      34.064  -8.818 -22.798  0.00  0.00    -0.191 F 
ATOM     18  C   UNL     1      32.682  -8.859 -22.767  0.00  0.00    +0.335 C 
BRANCH  18  20
ATOM     19  N   UNL     1      30.405  -3.680 -22.819  0.00  0.00    -0.244 NA
ATOM     20  C   UNL     1      32.088  -7.492 -22.788  0.00  0.00    +0.045 C 
ATOM     21  C   UNL     1      32.538  -6.548 -23.707  0.00  0.00    +0.003 C 
ATOM     22  C   UNL     1      31.981  -5.258 -23.731  0.00  0.00    +0.018 C 
ATOM     23  C   UNL     1      31.083  -7.152 -21.892  0.00  0.00    +0.003 C 
ATOM     24  C   UNL     1      30.960  -4.907 -22.824  0.00  0.00    +0.081 C 
ATOM     25  C   UNL     1      30.530  -5.870 -21.916  0.00  0.00    +0.019 C 
ATOM     26  C   UNL     1      32.414  -4.288 -24.645  0.00  0.00    +0.003 C 
ATOM     27  C   UNL     1      31.844  -3.024 -24.643  0.00  0.00    +0.021 C 
ATOM     28  C   UNL     1      30.851  -2.772 -23.718  0.00  0.00    +0.099 C 
ENDBRANCH  18  20
ENDBRANCH   5  18
TORSDOF 3
ENDMDL
MODEL 7
REMARK VINA RESULT:     -10.9      5.465      9.203
REMARK  Name = 46911863
REMARK  3 active torsions:
REMARK  status: ('A' for Active; 'I' for Inactive)
REMARK    1  A    between atoms: C_5  and  C_18
REMARK    2  A    between atoms: C_7  and  C_12
REMARK    3  A    between atoms: C_18  and  C_20
REMARK                            x       y       z     vdW  Elec       q    Type
REMARK                         _______ _______ _______ _____ _____    ______ ____
ROOT
ATOM      1  N   UNL     1      34.584 -17.277 -22.158  0.00  0.00    -0.190 N 
ATOM      2  N   UNL     1      34.535 -18.175 -21.144  0.00  0.00    -0.162 NA
ATOM      3  N   UNL     1      34.433 -15.400 -23.281  0.00  0.00    -0.126 NA
ATOM      4  N   UNL     1      34.868 -16.385 -24.144  0.00  0.00    -0.127 NA
ATOM      5  C   UNL     1      34.269 -15.951 -22.099  0.00  0.00    +0.228 A 
ATOM      6  C   UNL     1      34.956 -17.508 -23.463  0.00  0.00    +0.187 A 
ATOM      7  C   UNL     1      34.885 -19.382 -21.490  0.00  0.00    +0.104 C 
ATOM      8  C   UNL     1      35.345 -18.817 -23.804  0.00  0.00    +0.042 C 
ATOM      9  C   UNL     1      35.329 -19.773 -22.867  0.00  0.00    +0.024 C 
ENDROOT
BRANCH   7  12
ATOM     10  N   UNL     1      34.199 -21.954 -19.020  0.00  0.00    -0.208 N 
ATOM     11  N   UNL     1      35.539 -22.057 -18.979  0.00  0.00    -0.176 NA
ATOM     12  C   UNL     1      34.867 -20.459 -20.466  0.00  0.00    +0.056 C 
ATOM     13  C   UNL     1      33.745 -21.011 -19.895  0.00  0.00    +0.087 C 
ATOM     14  C   UNL     1      35.941 -21.141 -19.864  0.00  0.00    +0.121 C 
ATOM     15  C   UNL     1      33.388 -22.804 -18.181  0.00  0.00    +0.140 C 
ENDBRANCH   7  12
BRANCH   5  18
ATOM     16  F   UNL     1      34.858 -15.152 -19.937  0.00  0.00    -0.191 F 
ATOM     17  F   UNL     1      32.938 -16.099 -20.133  0.00  0.00    -0.191 F 
ATOM     18  C   UNL     1      33.799 -15.261 -20.818  0.00  0.00    +0.335 C 
BRANCH  18  20
ATOM     19  N   UNL     1      31.401 -10.241 -21.849  0.00  0.00    -0.244 NA
ATOM     20  C   UNL     1      33.174 -13.937 -21.097  0.00  0.00    +0.045 C 
ATOM     21  C   UNL     1      33.682 -13.121 -22.104  0.00  0.00    +0.003 C 
ATOM     22  C   UNL     1      33.095 -11.872 -22.371  0.00  0.00    +0.018 C 
ATOM     23  C   UNL     1      32.082 -13.509 -20.353  0.00  0.00    +0.003 C 
ATOM     24  C   UNL     1      31.986 -11.432 -21.620  0.00  0.00    +0.081 C 
ATOM     25  C   UNL     1      31.500 -12.267 -20.618  0.00  0.00    +0.019 C 
ATOM     26  C   UNL     1      33.586 -11.031 -23.379  0.00  0.00    +0.003 C 
ATOM     27  C   UNL     1      32.984  -9.804 -23.618  0.00  0.00    +0.021 C 
ATOM     28  C   UNL     1      31.904  -9.459 -22.831  0.00  0.00    +0.099 C 
ENDBRANCH  18  20
ENDBRANCH   5  18
TORSDOF 3
ENDMDL
MODEL 8
REMARK VINA RESULT:     -10.8      6.827     11.184
REMARK  Name = 46911863
REMARK  3 active torsions:
REMARK  status: ('A' for Active; 'I' for Inactive)
REMARK    1  A    between atoms: C_5  and  C_18
REMARK    2  A    between atoms: C_7  and  C_12
REMARK    3  A    between atoms: C_18  and  C_20
REMARK                            x       y       z     vdW  Elec       q    Type
REMARK                         _______ _______ _______ _____ _____    ______ ____
ROOT
ATOM      1  N   UNL     1      34.004 -15.771 -23.718  0.00  0.00    -0.190 N 
ATOM      2  N   UNL     1      34.503 -16.494 -22.684  0.00  0.00    -0.162 NA
ATOM      3  N   UNL     1      33.119 -14.129 -24.867  0.00  0.00    -0.126 NA
ATOM      4  N   UNL     1      33.340 -15.186 -25.727  0.00  0.00    -0.127 NA
ATOM      5  C   UNL     1      33.523 -14.496 -23.672  0.00  0.00    +0.228 A 
ATOM      6  C   UNL     1      33.871 -16.167 -25.029  0.00  0.00    +0.187 A 
ATOM      7  C   UNL     1      34.886 -17.695 -23.016  0.00  0.00    +0.104 C 
ATOM      8  C   UNL     1      34.308 -17.464 -25.362  0.00  0.00    +0.042 C 
ATOM      9  C   UNL     1      34.817 -18.252 -24.407  0.00  0.00    +0.024 C 
ENDROOT
BRANCH   7  12
ATOM     10  N   UNL     1      35.703 -20.203 -20.522  0.00  0.00    -0.208 N 
ATOM     11  N   UNL     1      36.846 -19.504 -20.414  0.00  0.00    -0.176 NA
ATOM     12  C   UNL     1      35.447 -18.588 -21.969  0.00  0.00    +0.056 C 
ATOM     13  C   UNL     1      34.831 -19.696 -21.439  0.00  0.00    +0.087 C 
ATOM     14  C   UNL     1      36.683 -18.518 -21.300  0.00  0.00    +0.121 C 
ATOM     15  C   UNL     1      35.499 -21.374 -19.703  0.00  0.00    +0.140 C 
ENDBRANCH   7  12
BRANCH   5  18
ATOM     16  F   UNL     1      34.556 -13.998 -21.588  0.00  0.00    -0.191 F 
ATOM     17  F   UNL     1      32.407 -14.065 -21.616  0.00  0.00    -0.191 F 
ATOM     18  C   UNL     1      33.481 -13.664 -22.390  0.00  0.00    +0.335 C 
BRANCH  18  20
ATOM     19  N   UNL     1      33.353  -8.117 -23.500  0.00  0.00    -0.244 NA
ATOM     20  C   UNL     1      33.439 -12.202 -22.676  0.00  0.00    +0.045 C 
ATOM     21  C   UNL     1      32.462 -11.402 -22.091  0.00  0.00    +0.003 C 
ATOM     22  C   UNL     1      32.419 -10.022 -22.358  0.00  0.00    +0.018 C 
ATOM     23  C   UNL     1      34.374 -11.630 -23.529  0.00  0.00    +0.003 C 
ATOM     24  C   UNL     1      33.366  -9.435 -23.222  0.00  0.00    +0.081 C 
ATOM     25  C   UNL     1      34.331 -10.259 -23.794  0.00  0.00    +0.019 C 
ATOM     26  C   UNL     1      31.447  -9.194 -21.782  0.00  0.00    +0.003 C 
ATOM     27  C   UNL     1      31.432  -7.836 -22.065  0.00  0.00    +0.021 C 
ATOM     28  C   UNL     1      32.399  -7.351 -22.923  0.00  0.00    +0.099 C 
ENDBRANCH  18  20
ENDBRANCH   5  18
TORSDOF 3
ENDMDL
MODEL 9
REMARK VINA RESULT:     -10.8      2.644      8.923
REMARK  Name = 46911863
REMARK  3 active torsions:
REMARK  status: ('A' for Active; 'I' for Inactive)
REMARK    1  A    between atoms: C_5  and  C_18
REMARK    2  A    between atoms: C_7  and  C_12
REMARK    3  A    between atoms: C_18  and  C_20
REMARK                            x       y       z     vdW  Elec       q    Type
REMARK                         _______ _______ _______ _____ _____    ______ ____
ROOT
ATOM      1  N   UNL     1      35.763 -20.975 -19.662  0.00  0.00    -0.190 N 
ATOM      2  N   UNL     1      35.121 -20.556 -20.780  0.00  0.00    -0.162 NA
ATOM      3  N   UNL     1      36.219 -22.056 -17.811  0.00  0.00    -0.126 NA
ATOM      4  N   UNL     1      37.258 -21.184 -18.067  0.00  0.00    -0.127 NA
ATOM      5  C   UNL     1      35.336 -21.919 -18.775  0.00  0.00    +0.228 A 
ATOM      6  C   UNL     1      36.976 -20.539 -19.180  0.00  0.00    +0.187 A 
ATOM      7  C   UNL     1      35.760 -19.632 -21.440  0.00  0.00    +0.104 C 
ATOM      8  C   UNL     1      37.652 -19.552 -19.923  0.00  0.00    +0.042 C 
ATOM      9  C   UNL     1      37.095 -19.077 -21.044  0.00  0.00    +0.024 C 
ENDROOT
BRANCH   7  12
ATOM     10  N   UNL     1      34.517 -17.730 -24.273  0.00  0.00    -0.208 N 
ATOM     11  N   UNL     1      34.047 -18.924 -24.673  0.00  0.00    -0.176 NA
ATOM     12  C   UNL     1      35.156 -19.085 -22.684  0.00  0.00    +0.056 C 
ATOM     13  C   UNL     1      35.189 -17.772 -23.087  0.00  0.00    +0.087 C 
ATOM     14  C   UNL     1      34.440 -19.748 -23.698  0.00  0.00    +0.121 C 
ATOM     15  C   UNL     1      34.288 -16.560 -25.086  0.00  0.00    +0.140 C 
ENDBRANCH   7  12
BRANCH   5  18
ATOM     16  F   UNL     1      34.201 -23.770 -19.746  0.00  0.00    -0.191 F 
ATOM     17  F   UNL     1      33.131 -21.907 -19.665  0.00  0.00    -0.191 F 
ATOM     18  C   UNL     1      34.015 -22.672 -18.927  0.00  0.00    +0.335 C 
BRANCH  18  20
ATOM     19  N   UNL     1      31.868 -24.157 -13.906  0.00  0.00    -0.244 NA
ATOM     20  C   UNL     1      33.440 -23.060 -17.607  0.00  0.00    +0.045 C 
ATOM     21  C   UNL     1      32.083 -22.881 -17.355  0.00  0.00    +0.003 C 
ATOM     22  C   UNL     1      31.537 -23.246 -16.112  0.00  0.00    +0.018 C 
ATOM     23  C   UNL     1      34.255 -23.601 -16.621  0.00  0.00    +0.003 C 
ATOM     24  C   UNL     1      32.359 -23.797 -15.108  0.00  0.00    +0.081 C 
ATOM     25  C   UNL     1      33.712 -23.963 -15.386  0.00  0.00    +0.019 C 
ATOM     26  C   UNL     1      30.174 -23.078 -15.832  0.00  0.00    +0.003 C 
ATOM     27  C   UNL     1      29.665 -23.449 -14.596  0.00  0.00    +0.021 C 
ATOM     28  C   UNL     1      30.547 -23.979 -13.675  0.00  0.00    +0.099 C 
ENDBRANCH  18  20
ENDBRANCH   5  18
TORSDOF 3
ENDMDL
