MODEL 1
REMARK VINA RESULT:     -11.5      0.000      0.000
REMARK  Name = 445481
REMARK  5 active torsions:
REMARK  status: ('A' for Active; 'I' for Inactive)
REMARK    1  A    between atoms: N_2  and  C_21
REMARK    2  A    between atoms: C_3  and  N_7
REMARK    3  A    between atoms: N_7  and  S_9
REMARK    4  A    between atoms: S_9  and  C_14
REMARK    5  A    between atoms: C_21  and  C_24
REMARK                            x       y       z     vdW  Elec       q    Type
REMARK                         _______ _______ _______ _____ _____    ______ ____
ROOT
ATOM      1  O   UNL     1      36.196 -21.836 -19.939  0.00  0.00    -0.273 OA
ATOM      2  N   UNL     1      34.003 -22.339 -19.251  0.00  0.00    -0.273 N 
ATOM      3  C   UNL     1      34.367 -20.266 -20.252  0.00  0.00    +0.153 C 
ATOM      4  C   UNL     1      32.881 -20.604 -20.303  0.00  0.00    +0.048 C 
ATOM      5  C   UNL     1      32.722 -21.674 -19.240  0.00  0.00    +0.096 C 
ATOM      6  C   UNL     1      35.010 -21.562 -19.823  0.00  0.00    +0.242 C 
ENDROOT
BRANCH   3   7
ATOM      7  N   UNL     1      34.869 -19.887 -21.577  0.00  0.00    -0.171 NA
ATOM      8  H   UNL     1      35.372 -20.691 -21.952  0.00  0.00    +0.149 HD
BRANCH   7   9
ATOM      9  S   UNL     1      35.917 -18.534 -21.686  0.00  0.00    +0.066 S 
ATOM     10  O   UNL     1      37.168 -18.948 -22.291  0.00  0.00    -0.152 OA
ATOM     11  O   UNL     1      35.891 -17.810 -20.431  0.00  0.00    -0.152 OA
BRANCH   9  14
ATOM     12  S   UNL     1      34.733 -15.909 -22.157  0.00  0.00    -0.066 S 
ATOM     13  N   UNL     1      33.923 -16.080 -25.958  0.00  0.00    -0.243 NA
ATOM     14  C   UNL     1      35.179 -17.388 -22.850  0.00  0.00    +0.153 C 
ATOM     15  C   UNL     1      34.913 -17.486 -24.173  0.00  0.00    +0.046 C 
ATOM     16  C   UNL     1      34.309 -16.292 -24.670  0.00  0.00    +0.089 C 
ATOM     17  C   UNL     1      34.148 -15.334 -23.668  0.00  0.00    +0.048 C 
ATOM     18  C   UNL     1      33.569 -14.093 -23.970  0.00  0.00    +0.010 C 
ATOM     19  C   UNL     1      33.174 -13.871 -25.283  0.00  0.00    +0.021 C 
ATOM     20  C   UNL     1      33.371 -14.876 -26.212  0.00  0.00    +0.099 C 
ENDBRANCH   9  14
ENDBRANCH   7   9
ENDBRANCH   3   7
BRANCH   2  21
ATOM     21  C   UNL     1      34.197 -23.621 -18.610  0.00  0.00    +0.135 C 
BRANCH  21  24
ATOM     22  N   UNL     1      34.278 -24.078 -16.173  0.00  0.00    -0.313 N 
ATOM     23  N   UNL     1      32.810 -24.114 -12.787  0.00  0.00    -0.241 NA
ATOM     24  C   UNL     1      33.576 -23.625 -17.240  0.00  0.00    +0.046 C 
ATOM     25  C   UNL     1      32.340 -23.226 -16.844  0.00  0.00    +0.013 C 
ATOM     26  C   UNL     1      32.268 -23.445 -15.439  0.00  0.00    +0.017 C 
ATOM     27  C   UNL     1      33.496 -23.979 -15.046  0.00  0.00    +0.068 C 
ATOM     28  C   UNL     1      31.281 -23.241 -14.465  0.00  0.00    +0.022 C 
ATOM     29  C   UNL     1      33.766 -24.312 -13.725  0.00  0.00    +0.113 C 
ATOM     30  C   UNL     1      31.620 -23.597 -13.166  0.00  0.00    +0.099 C 
ATOM     31  H   UNL     1      35.200 -24.424 -16.201  0.00  0.00    +0.152 HD
ENDBRANCH  21  24
ENDBRANCH   2  21
TORSDOF 5
ENDMDL
MODEL 2
REMARK VINA RESULT:     -11.4      2.847     10.391
REMARK  Name = 445481
REMARK  5 active torsions:
REMARK  status: ('A' for Active; 'I' for Inactive)
REMARK    1  A    between atoms: N_2  and  C_21
REMARK    2  A    between atoms: C_3  and  N_7
REMARK    3  A    between atoms: N_7  and  S_9
REMARK    4  A    between atoms: S_9  and  C_14
REMARK    5  A    between atoms: C_21  and  C_24
REMARK                            x       y       z     vdW  Elec       q    Type
REMARK                         _______ _______ _______ _____ _____    ______ ____
ROOT
ATOM      1  O   UNL     1      36.755 -21.076 -19.538  0.00  0.00    -0.273 OA
ATOM      2  N   UNL     1      35.211 -19.986 -20.941  0.00  0.00    -0.273 N 
ATOM      3  C   UNL     1      34.416 -21.730 -19.614  0.00  0.00    +0.153 C 
ATOM      4  C   UNL     1      33.247 -20.866 -20.077  0.00  0.00    +0.048 C 
ATOM      5  C   UNL     1      33.811 -20.113 -21.266  0.00  0.00    +0.096 C 
ATOM      6  C   UNL     1      35.629 -20.912 -19.984  0.00  0.00    +0.242 C 
ENDROOT
BRANCH   3   7
ATOM      7  N   UNL     1      34.384 -21.927 -18.161  0.00  0.00    -0.171 NA
ATOM      8  H   UNL     1      35.344 -22.091 -17.857  0.00  0.00    +0.149 HD
BRANCH   7   9
ATOM      9  S   UNL     1      33.428 -23.207 -17.540  0.00  0.00    +0.066 S 
ATOM     10  O   UNL     1      33.663 -24.403 -18.324  0.00  0.00    -0.152 OA
ATOM     11  O   UNL     1      32.084 -22.719 -17.293  0.00  0.00    -0.152 OA
BRANCH   9  14
ATOM     12  S   UNL     1      35.663 -23.126 -15.664  0.00  0.00    -0.066 S 
ATOM     13  N   UNL     1      34.098 -24.769 -12.504  0.00  0.00    -0.243 NA
ATOM     14  C   UNL     1      34.048 -23.580 -15.900  0.00  0.00    +0.153 C 
ATOM     15  C   UNL     1      33.469 -24.156 -14.822  0.00  0.00    +0.046 C 
ATOM     16  C   UNL     1      34.381 -24.241 -13.726  0.00  0.00    +0.089 C 
ATOM     17  C   UNL     1      35.631 -23.710 -14.048  0.00  0.00    +0.048 C 
ATOM     18  C   UNL     1      36.658 -23.706 -13.093  0.00  0.00    +0.010 C 
ATOM     19  C   UNL     1      36.376 -24.243 -11.844  0.00  0.00    +0.021 C 
ATOM     20  C   UNL     1      35.110 -24.748 -11.612  0.00  0.00    +0.099 C 
ENDBRANCH   9  14
ENDBRANCH   7   9
ENDBRANCH   3   7
BRANCH   2  21
ATOM     21  C   UNL     1      36.075 -19.068 -21.650  0.00  0.00    +0.135 C 
BRANCH  21  24
ATOM     22  N   UNL     1      35.347 -17.089 -22.957  0.00  0.00    -0.313 N 
ATOM     23  N   UNL     1      33.778 -13.764 -23.282  0.00  0.00    -0.241 NA
ATOM     24  C   UNL     1      35.430 -17.713 -21.757  0.00  0.00    +0.046 C 
ATOM     25  C   UNL     1      34.872 -16.938 -20.792  0.00  0.00    +0.013 C 
ATOM     26  C   UNL     1      34.411 -15.753 -21.433  0.00  0.00    +0.017 C 
ATOM     27  C   UNL     1      34.721 -15.876 -22.788  0.00  0.00    +0.068 C 
ATOM     28  C   UNL     1      33.760 -14.591 -20.995  0.00  0.00    +0.022 C 
ATOM     29  C   UNL     1      34.406 -14.885 -23.709  0.00  0.00    +0.113 C 
ATOM     30  C   UNL     1      33.477 -13.644 -21.970  0.00  0.00    +0.099 C 
ATOM     31  H   UNL     1      35.681 -17.446 -23.811  0.00  0.00    +0.152 HD
ENDBRANCH  21  24
ENDBRANCH   2  21
TORSDOF 5
ENDMDL
MODEL 3
REMARK VINA RESULT:     -11.3      2.011      2.730
REMARK  Name = 445481
REMARK  5 active torsions:
REMARK  status: ('A' for Active; 'I' for Inactive)
REMARK    1  A    between atoms: N_2  and  C_21
REMARK    2  A    between atoms: C_3  and  N_7
REMARK    3  A    between atoms: N_7  and  S_9
REMARK    4  A    between atoms: S_9  and  C_14
REMARK    5  A    between atoms: C_21  and  C_24
REMARK                            x       y       z     vdW  Elec       q    Type
REMARK                         _______ _______ _______ _____ _____    ______ ____
ROOT
ATOM      1  O   UNL     1      32.845 -21.329 -19.668  0.00  0.00    -0.273 OA
ATOM      2  N   UNL     1      34.523 -22.289 -18.327  0.00  0.00    -0.273 N 
ATOM      3  C   UNL     1      35.202 -21.088 -20.206  0.00  0.00    +0.153 C 
ATOM      4  C   UNL     1      36.372 -21.225 -19.237  0.00  0.00    +0.048 C 
ATOM      5  C   UNL     1      35.964 -22.383 -18.348  0.00  0.00    +0.096 C 
ATOM      6  C   UNL     1      34.016 -21.549 -19.396  0.00  0.00    +0.242 C 
ENDROOT
BRANCH   3   7
ATOM      7  N   UNL     1      35.007 -19.690 -20.605  0.00  0.00    -0.171 NA
ATOM      8  H   UNL     1      34.002 -19.535 -20.684  0.00  0.00    +0.149 HD
BRANCH   7   9
ATOM      9  S   UNL     1      35.720 -19.162 -22.072  0.00  0.00    +0.066 S 
ATOM     10  O   UNL     1      35.245 -19.993 -23.160  0.00  0.00    -0.152 OA
ATOM     11  O   UNL     1      37.137 -18.937 -21.858  0.00  0.00    -0.152 OA
BRANCH   9  14
ATOM     12  S   UNL     1      34.651 -16.660 -21.015  0.00  0.00    -0.066 S 
ATOM     13  N   UNL     1      34.023 -14.632 -24.274  0.00  0.00    -0.243 NA
ATOM     14  C   UNL     1      35.079 -17.522 -22.408  0.00  0.00    +0.153 C 
ATOM     15  C   UNL     1      34.876 -16.848 -23.563  0.00  0.00    +0.046 C 
ATOM     16  C   UNL     1      34.337 -15.549 -23.319  0.00  0.00    +0.089 C 
ATOM     17  C   UNL     1      34.160 -15.308 -21.955  0.00  0.00    +0.048 C 
ATOM     18  C   UNL     1      33.640 -14.080 -21.521  0.00  0.00    +0.010 C 
ATOM     19  C   UNL     1      33.318 -13.140 -22.493  0.00  0.00    +0.021 C 
ATOM     20  C   UNL     1      33.526 -13.463 -23.820  0.00  0.00    +0.099 C 
ENDBRANCH   9  14
ENDBRANCH   7   9
ENDBRANCH   3   7
BRANCH   2  21
ATOM     21  C   UNL     1      33.730 -23.009 -17.355  0.00  0.00    +0.135 C 
BRANCH  21  24
ATOM     22  N   UNL     1      34.886 -24.758 -16.029  0.00  0.00    -0.313 N 
ATOM     23  N   UNL     1      36.978 -25.896 -13.209  0.00  0.00    -0.241 NA
ATOM     24  C   UNL     1      34.585 -23.447 -16.198  0.00  0.00    +0.046 C 
ATOM     25  C   UNL     1      35.155 -22.711 -15.210  0.00  0.00    +0.013 C 
ATOM     26  C   UNL     1      35.858 -23.622 -14.372  0.00  0.00    +0.017 C 
ATOM     27  C   UNL     1      35.672 -24.896 -14.909  0.00  0.00    +0.068 C 
ATOM     28  C   UNL     1      36.633 -23.488 -13.211  0.00  0.00    +0.022 C 
ATOM     29  C   UNL     1      36.230 -26.029 -14.330  0.00  0.00    +0.113 C 
ATOM     30  C   UNL     1      37.158 -24.662 -12.687  0.00  0.00    +0.099 C 
ATOM     31  H   UNL     1      34.589 -25.492 -16.614  0.00  0.00    +0.152 HD
ENDBRANCH  21  24
ENDBRANCH   2  21
TORSDOF 5
ENDMDL
MODEL 4
REMARK VINA RESULT:     -11.1      1.484      1.920
REMARK  Name = 445481
REMARK  5 active torsions:
REMARK  status: ('A' for Active; 'I' for Inactive)
REMARK    1  A    between atoms: N_2  and  C_21
REMARK    2  A    between atoms: C_3  and  N_7
REMARK    3  A    between atoms: N_7  and  S_9
REMARK    4  A    between atoms: S_9  and  C_14
REMARK    5  A    between atoms: C_21  and  C_24
REMARK                            x       y       z     vdW  Elec       q    Type
REMARK                         _______ _______ _______ _____ _____    ______ ____
ROOT
ATOM      1  O   UNL     1      36.003 -22.232 -19.820  0.00  0.00    -0.273 OA
ATOM      2  N   UNL     1      33.752 -22.306 -19.137  0.00  0.00    -0.273 N 
ATOM      3  C   UNL     1      34.506 -20.344 -20.144  0.00  0.00    +0.153 C 
ATOM      4  C   UNL     1      32.983 -20.394 -20.199  0.00  0.00    +0.048 C 
ATOM      5  C   UNL     1      32.621 -21.409 -19.132  0.00  0.00    +0.096 C 
ATOM      6  C   UNL     1      34.890 -21.737 -19.709  0.00  0.00    +0.242 C 
ENDROOT
BRANCH   3   7
ATOM      7  N   UNL     1      35.074 -20.072 -21.468  0.00  0.00    -0.171 NA
ATOM      8  H   UNL     1      35.628 -20.888 -21.734  0.00  0.00    +0.149 HD
BRANCH   7   9
ATOM      9  S   UNL     1      36.079 -18.695 -21.650  0.00  0.00    +0.066 S 
ATOM     10  O   UNL     1      37.315 -19.087 -22.297  0.00  0.00    -0.152 OA
ATOM     11  O   UNL     1      36.083 -17.944 -20.409  0.00  0.00    -0.152 OA
BRANCH   9  14
ATOM     12  S   UNL     1      34.831 -16.101 -22.134  0.00  0.00    -0.066 S 
ATOM     13  N   UNL     1      33.820 -16.400 -25.878  0.00  0.00    -0.243 NA
ATOM     14  C   UNL     1      35.261 -17.595 -22.805  0.00  0.00    +0.153 C 
ATOM     15  C   UNL     1      34.926 -17.737 -24.108  0.00  0.00    +0.046 C 
ATOM     16  C   UNL     1      34.277 -16.567 -24.607  0.00  0.00    +0.089 C 
ATOM     17  C   UNL     1      34.156 -15.581 -23.626  0.00  0.00    +0.048 C 
ATOM     18  C   UNL     1      33.544 -14.357 -23.934  0.00  0.00    +0.010 C 
ATOM     19  C   UNL     1      33.075 -14.181 -25.230  0.00  0.00    +0.021 C 
ATOM     20  C   UNL     1      33.237 -15.212 -26.137  0.00  0.00    +0.099 C 
ENDBRANCH   9  14
ENDBRANCH   7   9
ENDBRANCH   3   7
BRANCH   2  21
ATOM     21  C   UNL     1      33.697 -23.599 -18.491  0.00  0.00    +0.135 C 
BRANCH  21  24
ATOM     22  N   UNL     1      35.686 -23.122 -17.088  0.00  0.00    -0.313 N 
ATOM     23  N   UNL     1      37.479 -22.995 -13.864  0.00  0.00    -0.241 NA
ATOM     24  C   UNL     1      34.405 -23.557 -17.165  0.00  0.00    +0.046 C 
ATOM     25  C   UNL     1      33.961 -23.906 -15.930  0.00  0.00    +0.013 C 
ATOM     26  C   UNL     1      35.034 -23.671 -15.025  0.00  0.00    +0.017 C 
ATOM     27  C   UNL     1      36.102 -23.180 -15.778  0.00  0.00    +0.068 C 
ATOM     28  C   UNL     1      35.203 -23.827 -13.643  0.00  0.00    +0.022 C 
ATOM     29  C   UNL     1      37.319 -22.844 -15.200  0.00  0.00    +0.113 C 
ATOM     30  C   UNL     1      36.446 -23.472 -13.133  0.00  0.00    +0.099 C 
ATOM     31  H   UNL     1      36.231 -22.814 -17.848  0.00  0.00    +0.152 HD
ENDBRANCH  21  24
ENDBRANCH   2  21
TORSDOF 5
ENDMDL
MODEL 5
REMARK VINA RESULT:     -11.0      1.755      2.482
REMARK  Name = 445481
REMARK  5 active torsions:
REMARK  status: ('A' for Active; 'I' for Inactive)
REMARK    1  A    between atoms: N_2  and  C_21
REMARK    2  A    between atoms: C_3  and  N_7
REMARK    3  A    between atoms: N_7  and  S_9
REMARK    4  A    between atoms: S_9  and  C_14
REMARK    5  A    between atoms: C_21  and  C_24
REMARK                            x       y       z     vdW  Elec       q    Type
REMARK                         _______ _______ _______ _____ _____    ______ ____
ROOT
ATOM      1  O   UNL     1      32.705 -20.986 -19.963  0.00  0.00    -0.273 OA
ATOM      2  N   UNL     1      34.123 -22.283 -18.604  0.00  0.00    -0.273 N 
ATOM      3  C   UNL     1      35.113 -21.014 -20.289  0.00  0.00    +0.153 C 
ATOM      4  C   UNL     1      36.165 -21.396 -19.253  0.00  0.00    +0.048 C 
ATOM      5  C   UNL     1      35.536 -22.567 -18.523  0.00  0.00    +0.096 C 
ATOM      6  C   UNL     1      33.811 -21.386 -19.626  0.00  0.00    +0.242 C 
ENDROOT
BRANCH   3   7
ATOM      7  N   UNL     1      35.132 -19.571 -20.555  0.00  0.00    -0.171 NA
ATOM      8  H   UNL     1      34.169 -19.240 -20.495  0.00  0.00    +0.149 HD
BRANCH   7   9
ATOM      9  S   UNL     1      35.763 -19.034 -22.056  0.00  0.00    +0.066 S 
ATOM     10  O   UNL     1      35.227 -19.858 -23.121  0.00  0.00    -0.152 OA
ATOM     11  O   UNL     1      37.190 -18.813 -21.919  0.00  0.00    -0.152 OA
BRANCH   9  14
ATOM     12  S   UNL     1      34.830 -17.048 -23.980  0.00  0.00    -0.066 S 
ATOM     13  N   UNL     1      33.899 -14.073 -21.653  0.00  0.00    -0.243 NA
ATOM     14  C   UNL     1      35.107 -17.391 -22.345  0.00  0.00    +0.153 C 
ATOM     15  C   UNL     1      34.795 -16.379 -21.503  0.00  0.00    +0.046 C 
ATOM     16  C   UNL     1      34.298 -15.247 -22.216  0.00  0.00    +0.089 C 
ATOM     17  C   UNL     1      34.261 -15.473 -23.593  0.00  0.00    +0.048 C 
ATOM     18  C   UNL     1      33.799 -14.470 -24.457  0.00  0.00    +0.010 C 
ATOM     19  C   UNL     1      33.391 -13.270 -23.888  0.00  0.00    +0.021 C 
ATOM     20  C   UNL     1      33.461 -13.132 -22.514  0.00  0.00    +0.099 C 
ENDBRANCH   9  14
ENDBRANCH   7   9
ENDBRANCH   3   7
BRANCH   2  21
ATOM     21  C   UNL     1      33.161 -22.977 -17.776  0.00  0.00    +0.135 C 
BRANCH  21  24
ATOM     22  N   UNL     1      32.991 -23.848 -15.459  0.00  0.00    -0.313 N 
ATOM     23  N   UNL     1      34.397 -24.668 -12.147  0.00  0.00    -0.241 NA
ATOM     24  C   UNL     1      33.758 -23.302 -16.434  0.00  0.00    +0.046 C 
ATOM     25  C   UNL     1      35.028 -23.135 -15.984  0.00  0.00    +0.013 C 
ATOM     26  C   UNL     1      35.054 -23.607 -14.641  0.00  0.00    +0.017 C 
ATOM     27  C   UNL     1      33.764 -24.048 -14.340  0.00  0.00    +0.068 C 
ATOM     28  C   UNL     1      36.045 -23.704 -13.654  0.00  0.00    +0.022 C 
ATOM     29  C   UNL     1      33.437 -24.576 -13.097  0.00  0.00    +0.113 C 
ATOM     30  C   UNL     1      35.646 -24.241 -12.437  0.00  0.00    +0.099 C 
ATOM     31  H   UNL     1      32.034 -24.065 -15.540  0.00  0.00    +0.152 HD
ENDBRANCH  21  24
ENDBRANCH   2  21
TORSDOF 5
ENDMDL
MODEL 6
REMARK VINA RESULT:     -11.0      3.047      9.874
REMARK  Name = 445481
REMARK  5 active torsions:
REMARK  status: ('A' for Active; 'I' for Inactive)
REMARK    1  A    between atoms: N_2  and  C_21
REMARK    2  A    between atoms: C_3  and  N_7
REMARK    3  A    between atoms: N_7  and  S_9
REMARK    4  A    between atoms: S_9  and  C_14
REMARK    5  A    between atoms: C_21  and  C_24
REMARK                            x       y       z     vdW  Elec       q    Type
REMARK                         _______ _______ _______ _____ _____    ______ ____
ROOT
ATOM      1  O   UNL     1      33.972 -20.217 -21.625  0.00  0.00    -0.273 OA
ATOM      2  N   UNL     1      36.044 -19.103 -21.563  0.00  0.00    -0.273 N 
ATOM      3  C   UNL     1      35.620 -20.679 -19.899  0.00  0.00    +0.153 C 
ATOM      4  C   UNL     1      37.120 -20.417 -19.984  0.00  0.00    +0.048 C 
ATOM      5  C   UNL     1      37.208 -19.089 -20.709  0.00  0.00    +0.096 C 
ATOM      6  C   UNL     1      35.073 -20.009 -21.135  0.00  0.00    +0.242 C 
ENDROOT
BRANCH   3   7
ATOM      7  N   UNL     1      35.330 -22.116 -19.954  0.00  0.00    -0.171 NA
ATOM      8  H   UNL     1      35.058 -22.334 -20.913  0.00  0.00    +0.149 HD
BRANCH   7   9
ATOM      9  S   UNL     1      34.105 -22.733 -18.926  0.00  0.00    +0.066 S 
ATOM     10  O   UNL     1      33.722 -24.056 -19.380  0.00  0.00    -0.152 OA
ATOM     11  O   UNL     1      33.114 -21.700 -18.693  0.00  0.00    -0.152 OA
BRANCH   9  14
ATOM     12  S   UNL     1      33.798 -23.682 -16.183  0.00  0.00    -0.066 S 
ATOM     13  N   UNL     1      37.315 -22.941 -14.695  0.00  0.00    -0.243 NA
ATOM     14  C   UNL     1      34.846 -22.978 -17.312  0.00  0.00    +0.153 C 
ATOM     15  C   UNL     1      36.080 -22.706 -16.831  0.00  0.00    +0.046 C 
ATOM     16  C   UNL     1      36.199 -23.086 -15.460  0.00  0.00    +0.089 C 
ATOM     17  C   UNL     1      35.015 -23.639 -14.970  0.00  0.00    +0.048 C 
ATOM     18  C   UNL     1      34.942 -24.074 -13.638  0.00  0.00    +0.010 C 
ATOM     19  C   UNL     1      36.079 -23.928 -12.852  0.00  0.00    +0.021 C 
ATOM     20  C   UNL     1      37.208 -23.369 -13.420  0.00  0.00    +0.099 C 
ENDBRANCH   9  14
ENDBRANCH   7   9
ENDBRANCH   3   7
BRANCH   2  21
ATOM     21  C   UNL     1      35.894 -18.168 -22.656  0.00  0.00    +0.135 C 
BRANCH  21  24
ATOM     22  N   UNL     1      34.598 -16.116 -23.165  0.00  0.00    -0.313 N 
ATOM     23  N   UNL     1      32.504 -13.232 -22.207  0.00  0.00    -0.241 NA
ATOM     24  C   UNL     1      35.042 -17.001 -22.240  0.00  0.00    +0.046 C 
ATOM     25  C   UNL     1      34.600 -16.643 -21.008  0.00  0.00    +0.013 C 
ATOM     26  C   UNL     1      33.831 -15.457 -21.175  0.00  0.00    +0.017 C 
ATOM     27  C   UNL     1      33.847 -15.150 -22.537  0.00  0.00    +0.068 C 
ATOM     28  C   UNL     1      33.123 -14.616 -20.305  0.00  0.00    +0.022 C 
ATOM     29  C   UNL     1      33.186 -14.042 -23.050  0.00  0.00    +0.113 C 
ATOM     30  C   UNL     1      32.488 -13.527 -20.888  0.00  0.00    +0.099 C 
ATOM     31  H   UNL     1      34.785 -16.156 -24.131  0.00  0.00    +0.152 HD
ENDBRANCH  21  24
ENDBRANCH   2  21
TORSDOF 5
ENDMDL
MODEL 7
REMARK VINA RESULT:     -10.8      1.748      2.242
REMARK  Name = 445481
REMARK  5 active torsions:
REMARK  status: ('A' for Active; 'I' for Inactive)
REMARK    1  A    between atoms: N_2  and  C_21
REMARK    2  A    between atoms: C_3  and  N_7
REMARK    3  A    between atoms: N_7  and  S_9
REMARK    4  A    between atoms: S_9  and  C_14
REMARK    5  A    between atoms: C_21  and  C_24
REMARK                            x       y       z     vdW  Elec       q    Type
REMARK                         _______ _______ _______ _____ _____    ______ ____
ROOT
ATOM      1  O   UNL     1      36.190 -21.904 -19.773  0.00  0.00    -0.273 OA
ATOM      2  N   UNL     1      33.981 -22.336 -19.086  0.00  0.00    -0.273 N 
ATOM      3  C   UNL     1      34.399 -20.304 -20.149  0.00  0.00    +0.153 C 
ATOM      4  C   UNL     1      32.906 -20.610 -20.202  0.00  0.00    +0.048 C 
ATOM      5  C   UNL     1      32.715 -21.642 -19.107  0.00  0.00    +0.096 C 
ATOM      6  C   UNL     1      35.010 -21.600 -19.675  0.00  0.00    +0.242 C 
ENDROOT
BRANCH   3   7
ATOM      7  N   UNL     1      34.919 -19.978 -21.481  0.00  0.00    -0.171 NA
ATOM      8  H   UNL     1      35.375 -20.816 -21.842  0.00  0.00    +0.149 HD
BRANCH   7   9
ATOM      9  S   UNL     1      36.042 -18.690 -21.617  0.00  0.00    +0.066 S 
ATOM     10  O   UNL     1      36.705 -18.767 -22.904  0.00  0.00    -0.152 OA
ATOM     11  O   UNL     1      36.800 -18.588 -20.384  0.00  0.00    -0.152 OA
BRANCH   9  14
ATOM     12  S   UNL     1      34.998 -16.469 -23.196  0.00  0.00    -0.066 S 
ATOM     13  N   UNL     1      33.106 -14.403 -20.497  0.00  0.00    -0.243 NA
ATOM     14  C   UNL     1      35.096 -17.168 -21.657  0.00  0.00    +0.153 C 
ATOM     15  C   UNL     1      34.449 -16.477 -20.690  0.00  0.00    +0.046 C 
ATOM     16  C   UNL     1      33.829 -15.304 -21.217  0.00  0.00    +0.089 C 
ATOM     17  C   UNL     1      34.050 -15.170 -22.589  0.00  0.00    +0.048 C 
ATOM     18  C   UNL     1      33.516 -14.074 -23.282  0.00  0.00    +0.010 C 
ATOM     19  C   UNL     1      32.776 -13.152 -22.552  0.00  0.00    +0.021 C 
ATOM     20  C   UNL     1      32.608 -13.363 -21.197  0.00  0.00    +0.099 C 
ENDBRANCH   9  14
ENDBRANCH   7   9
ENDBRANCH   3   7
BRANCH   2  21
ATOM     21  C   UNL     1      34.141 -23.601 -18.404  0.00  0.00    +0.135 C 
BRANCH  21  24
ATOM     22  N   UNL     1      32.004 -23.523 -17.147  0.00  0.00    -0.313 N 
ATOM     23  N   UNL     1      30.021 -23.542 -14.034  0.00  0.00    -0.241 NA
ATOM     24  C   UNL     1      33.356 -23.612 -17.121  0.00  0.00    +0.046 C 
ATOM     25  C   UNL     1      33.789 -23.700 -15.837  0.00  0.00    +0.013 C 
ATOM     26  C   UNL     1      32.631 -23.664 -15.010  0.00  0.00    +0.017 C 
ATOM     27  C   UNL     1      31.528 -23.553 -15.857  0.00  0.00    +0.068 C 
ATOM     28  C   UNL     1      32.413 -23.716 -13.626  0.00  0.00    +0.022 C 
ATOM     29  C   UNL     1      30.228 -23.492 -15.371  0.00  0.00    +0.113 C 
ATOM     30  C   UNL     1      31.089 -23.650 -13.212  0.00  0.00    +0.099 C 
ATOM     31  H   UNL     1      31.452 -23.447 -17.959  0.00  0.00    +0.152 HD
ENDBRANCH  21  24
ENDBRANCH   2  21
TORSDOF 5
ENDMDL
MODEL 8
REMARK VINA RESULT:     -10.3      5.202      8.009
REMARK  Name = 445481
REMARK  5 active torsions:
REMARK  status: ('A' for Active; 'I' for Inactive)
REMARK    1  A    between atoms: N_2  and  C_21
REMARK    2  A    between atoms: C_3  and  N_7
REMARK    3  A    between atoms: N_7  and  S_9
REMARK    4  A    between atoms: S_9  and  C_14
REMARK    5  A    between atoms: C_21  and  C_24
REMARK                            x       y       z     vdW  Elec       q    Type
REMARK                         _______ _______ _______ _____ _____    ______ ____
ROOT
ATOM      1  O   UNL     1      34.295 -13.739 -23.335  0.00  0.00    -0.273 OA
ATOM      2  N   UNL     1      34.320 -15.593 -21.885  0.00  0.00    -0.273 N 
ATOM      3  C   UNL     1      33.366 -13.620 -21.092  0.00  0.00    +0.153 C 
ATOM      4  C   UNL     1      32.889 -14.795 -20.244  0.00  0.00    +0.048 C 
ATOM      5  C   UNL     1      33.911 -15.878 -20.530  0.00  0.00    +0.096 C 
ATOM      6  C   UNL     1      34.035 -14.282 -22.270  0.00  0.00    +0.242 C 
ENDROOT
BRANCH   3   7
ATOM      7  N   UNL     1      32.234 -12.814 -21.563  0.00  0.00    -0.171 NA
ATOM      8  H   UNL     1      32.558 -12.278 -22.369  0.00  0.00    +0.149 HD
BRANCH   7   9
ATOM      9  S   UNL     1      31.520 -11.705 -20.468  0.00  0.00    +0.066 S 
ATOM     10  O   UNL     1      32.302 -11.669 -19.248  0.00  0.00    -0.152 OA
ATOM     11  O   UNL     1      30.087 -11.923 -20.438  0.00  0.00    -0.152 OA
BRANCH   9  14
ATOM     12  S   UNL     1      32.076  -8.869 -20.065  0.00  0.00    -0.066 S 
ATOM     13  N   UNL     1      31.722  -7.476 -23.680  0.00  0.00    -0.243 NA
ATOM     14  C   UNL     1      31.684 -10.073 -21.190  0.00  0.00    +0.153 C 
ATOM     15  C   UNL     1      31.552  -9.626 -22.460  0.00  0.00    +0.046 C 
ATOM     16  C   UNL     1      31.781  -8.220 -22.542  0.00  0.00    +0.089 C 
ATOM     17  C   UNL     1      32.081  -7.668 -21.295  0.00  0.00    +0.048 C 
ATOM     18  C   UNL     1      32.337  -6.294 -21.179  0.00  0.00    +0.010 C 
ATOM     19  C   UNL     1      32.279  -5.530 -22.337  0.00  0.00    +0.021 C 
ATOM     20  C   UNL     1      31.974  -6.159 -23.530  0.00  0.00    +0.099 C 
ENDBRANCH   9  14
ENDBRANCH   7   9
ENDBRANCH   3   7
BRANCH   2  21
ATOM     21  C   UNL     1      35.057 -16.556 -22.673  0.00  0.00    +0.135 C 
BRANCH  21  24
ATOM     22  N   UNL     1      34.271 -18.606 -21.518  0.00  0.00    -0.313 N 
ATOM     23  N   UNL     1      34.816 -21.691 -19.566  0.00  0.00    -0.241 NA
ATOM     24  C   UNL     1      35.306 -17.808 -21.878  0.00  0.00    +0.046 C 
ATOM     25  C   UNL     1      36.472 -18.328 -21.415  0.00  0.00    +0.013 C 
ATOM     26  C   UNL     1      36.142 -19.527 -20.723  0.00  0.00    +0.017 C 
ATOM     27  C   UNL     1      34.757 -19.676 -20.804  0.00  0.00    +0.068 C 
ATOM     28  C   UNL     1      36.884 -20.499 -20.038  0.00  0.00    +0.022 C 
ATOM     29  C   UNL     1      34.096 -20.754 -20.228  0.00  0.00    +0.113 C 
ATOM     30  C   UNL     1      36.158 -21.547 -19.487  0.00  0.00    +0.099 C 
ATOM     31  H   UNL     1      33.324 -18.444 -21.733  0.00  0.00    +0.152 HD
ENDBRANCH  21  24
ENDBRANCH   2  21
TORSDOF 5
ENDMDL
MODEL 9
REMARK VINA RESULT:     -10.1      3.422     10.743
REMARK  Name = 445481
REMARK  5 active torsions:
REMARK  status: ('A' for Active; 'I' for Inactive)
REMARK    1  A    between atoms: N_2  and  C_21
REMARK    2  A    between atoms: C_3  and  N_7
REMARK    3  A    between atoms: N_7  and  S_9
REMARK    4  A    between atoms: S_9  and  C_14
REMARK    5  A    between atoms: C_21  and  C_24
REMARK                            x       y       z     vdW  Elec       q    Type
REMARK                         _______ _______ _______ _____ _____    ______ ____
ROOT
ATOM      1  O   UNL     1      35.102 -16.172 -24.271  0.00  0.00    -0.273 OA
ATOM      2  N   UNL     1      34.091 -14.366 -23.152  0.00  0.00    -0.273 N 
ATOM      3  C   UNL     1      34.293 -16.375 -21.988  0.00  0.00    +0.153 C 
ATOM      4  C   UNL     1      34.066 -15.234 -21.001  0.00  0.00    +0.048 C 
ATOM      5  C   UNL     1      33.485 -14.129 -21.863  0.00  0.00    +0.096 C 
ATOM      6  C   UNL     1      34.576 -15.667 -23.289  0.00  0.00    +0.242 C 
ENDROOT
BRANCH   3   7
ATOM      7  N   UNL     1      35.458 -17.179 -21.606  0.00  0.00    -0.171 NA
ATOM      8  H   UNL     1      36.291 -16.653 -21.875  0.00  0.00    +0.149 HD
BRANCH   7   9
ATOM      9  S   UNL     1      35.611 -18.750 -22.276  0.00  0.00    +0.066 S 
ATOM     10  O   UNL     1      37.015 -19.046 -22.485  0.00  0.00    -0.152 OA
ATOM     11  O   UNL     1      34.640 -18.908 -23.342  0.00  0.00    -0.152 OA
BRANCH   9  14
ATOM     12  S   UNL     1      36.323 -20.630 -20.160  0.00  0.00    -0.066 S 
ATOM     13  N   UNL     1      32.824 -21.871 -18.998  0.00  0.00    -0.243 NA
ATOM     14  C   UNL     1      35.058 -19.911 -21.027  0.00  0.00    +0.153 C 
ATOM     15  C   UNL     1      33.824 -20.318 -20.651  0.00  0.00    +0.046 C 
ATOM     16  C   UNL     1      33.893 -21.274 -19.593  0.00  0.00    +0.089 C 
ATOM     17  C   UNL     1      35.211 -21.543 -19.220  0.00  0.00    +0.048 C 
ATOM     18  C   UNL     1      35.476 -22.460 -18.193  0.00  0.00    +0.010 C 
ATOM     19  C   UNL     1      34.389 -23.073 -17.582  0.00  0.00    +0.021 C 
ATOM     20  C   UNL     1      33.117 -22.747 -18.015  0.00  0.00    +0.099 C 
ENDBRANCH   9  14
ENDBRANCH   7   9
ENDBRANCH   3   7
BRANCH   2  21
ATOM     21  C   UNL     1      34.059 -13.368 -24.199  0.00  0.00    +0.135 C 
BRANCH  21  24
ATOM     22  N   UNL     1      32.666 -11.874 -22.792  0.00  0.00    -0.313 N 
ATOM     23  N   UNL     1      31.785  -8.586 -21.366  0.00  0.00    -0.241 NA
ATOM     24  C   UNL     1      33.721 -12.018 -23.631  0.00  0.00    +0.046 C 
ATOM     25  C   UNL     1      34.328 -10.818 -23.820  0.00  0.00    +0.013 C 
ATOM     26  C   UNL     1      33.604  -9.865 -23.049  0.00  0.00    +0.017 C 
ATOM     27  C   UNL     1      32.569 -10.555 -22.416  0.00  0.00    +0.068 C 
ATOM     28  C   UNL     1      33.727  -8.486 -22.828  0.00  0.00    +0.022 C 
ATOM     29  C   UNL     1      31.663  -9.917 -21.578  0.00  0.00    +0.113 C 
ATOM     30  C   UNL     1      32.787  -7.916 -21.979  0.00  0.00    +0.099 C 
ATOM     31  H   UNL     1      32.066 -12.597 -22.501  0.00  0.00    +0.152 HD
ENDBRANCH  21  24
ENDBRANCH   2  21
TORSDOF 5
ENDMDL
