MODEL 1
REMARK VINA RESULT:     -11.1      0.000      0.000
REMARK  Name = 60795
REMARK  7 active torsions:
REMARK  status: ('A' for Active; 'I' for Inactive)
REMARK    1  A    between atoms: C_1  and  N_2
REMARK    2  A    between atoms: C_1  and  C_17
REMARK    3  A    between atoms: N_3  and  C_11
REMARK    4  A    between atoms: C_17  and  C_18
REMARK    5  A    between atoms: C_18  and  C_19
REMARK    6  A    between atoms: C_19  and  O_20
REMARK    7  A    between atoms: O_20  and  C_26
REMARK                            x       y       z     vdW  Elec       q    Type
REMARK                         _______ _______ _______ _____ _____    ______ ____
ROOT
ATOM      1  C   UNL     1      31.694 -10.602 -19.389  0.00  0.00    -0.077 C 
ENDROOT
BRANCH   1   2
ATOM      2  N   UNL     1      32.293  -9.691 -20.363  0.00  0.00    +0.389 N 
ATOM      3  N   UNL     1      32.359  -7.472 -22.162  0.00  0.00    -0.311 N 
ATOM      4  C   UNL     1      31.561  -9.743 -21.635  0.00  0.00    -0.055 C 
ATOM      5  C   UNL     1      32.300  -8.317 -19.847  0.00  0.00    -0.055 C 
ATOM      6  C   UNL     1      32.212  -8.838 -22.681  0.00  0.00    +0.068 C 
ATOM      7  C   UNL     1      32.975  -7.361 -20.836  0.00  0.00    +0.068 C 
ATOM      8  H   UNL     1      33.255  -9.986 -20.525  0.00  0.00    -0.080 HD
BRANCH   3  11
ATOM      9 CL   UNL     1      30.408  -5.195 -21.892  0.00  0.00    -0.080 Cl
ATOM     10 CL   UNL     1      30.833  -2.866 -24.058  0.00  0.00    -0.081 Cl
ATOM     11  C   UNL     1      32.503  -6.429 -23.082  0.00  0.00    +0.059 C 
ATOM     12  C   UNL     1      31.664  -5.293 -23.086  0.00  0.00    +0.081 C 
ATOM     13  C   UNL     1      33.522  -6.497 -24.055  0.00  0.00    +0.015 C 
ATOM     14  C   UNL     1      31.838  -4.272 -24.022  0.00  0.00    +0.069 C 
ATOM     15  C   UNL     1      33.696  -5.476 -24.990  0.00  0.00    +0.002 C 
ATOM     16  C   UNL     1      32.854  -4.364 -24.973  0.00  0.00    +0.012 C 
ENDBRANCH   3  11
ENDBRANCH   1   2
BRANCH   1  17
ATOM     17  C   UNL     1      31.094 -11.815 -20.095  0.00  0.00    -0.019 C 
BRANCH  17  18
ATOM     18  C   UNL     1      32.101 -12.961 -20.179  0.00  0.00    +0.045 C 
BRANCH  18  19
ATOM     19  C   UNL     1      32.443 -13.305 -21.623  0.00  0.00    +0.205 C 
BRANCH  19  20
ATOM     20  O   UNL     1      33.840 -13.564 -21.741  0.00  0.00    -0.475 OA
BRANCH  20  26
ATOM     21  O   UNL     1      35.855 -20.201 -20.209  0.00  0.00    -0.275 OA
ATOM     22  N   UNL     1      35.255 -18.044 -20.719  0.00  0.00    -0.284 N 
ATOM     23  C   UNL     1      34.960 -17.357 -23.034  0.00  0.00    -0.008 C 
ATOM     24  C   UNL     1      35.468 -18.698 -23.478  0.00  0.00    +0.037 C 
ATOM     25  C   UNL     1      34.909 -17.062 -21.664  0.00  0.00    +0.049 C 
ATOM     26  C   UNL     1      34.207 -14.806 -22.162  0.00  0.00    +0.140 C 
ATOM     27  C   UNL     1      35.130 -19.772 -22.455  0.00  0.00    +0.090 C 
ATOM     28  C   UNL     1      34.543 -15.786 -21.228  0.00  0.00    +0.051 C 
ATOM     29  C   UNL     1      34.635 -16.362 -23.961  0.00  0.00    +0.000 C 
ATOM     30  C   UNL     1      34.250 -15.093 -23.525  0.00  0.00    +0.037 C 
ATOM     31  C   UNL     1      35.483 -19.369 -21.036  0.00  0.00    +0.226 C 
ATOM     32  H   UNL     1      35.339 -17.770 -19.777  0.00  0.00    +0.155 HD
ENDBRANCH  20  26
ENDBRANCH  19  20
ENDBRANCH  18  19
ENDBRANCH  17  18
ENDBRANCH   1  17
TORSDOF 7
ENDMDL
MODEL 2
REMARK VINA RESULT:     -11.1      4.083      7.319
REMARK  Name = 60795
REMARK  7 active torsions:
REMARK  status: ('A' for Active; 'I' for Inactive)
REMARK    1  A    between atoms: C_1  and  N_2
REMARK    2  A    between atoms: C_1  and  C_17
REMARK    3  A    between atoms: N_3  and  C_11
REMARK    4  A    between atoms: C_17  and  C_18
REMARK    5  A    between atoms: C_18  and  C_19
REMARK    6  A    between atoms: C_19  and  O_20
REMARK    7  A    between atoms: O_20  and  C_26
REMARK                            x       y       z     vdW  Elec       q    Type
REMARK                         _______ _______ _______ _____ _____    ______ ____
ROOT
ATOM      1  C   UNL     1      34.946 -17.271 -24.120  0.00  0.00    -0.077 C 
ENDROOT
BRANCH   1   2
ATOM      2  N   UNL     1      34.778 -15.862 -23.767  0.00  0.00    +0.389 N 
ATOM      3  N   UNL     1      33.414 -13.582 -22.717  0.00  0.00    -0.311 N 
ATOM      4  C   UNL     1      33.635 -15.284 -24.485  0.00  0.00    -0.055 C 
ATOM      5  C   UNL     1      34.584 -15.713 -22.319  0.00  0.00    -0.055 C 
ATOM      6  C   UNL     1      33.483 -13.795 -24.169  0.00  0.00    +0.068 C 
ATOM      7  C   UNL     1      34.461 -14.238 -21.929  0.00  0.00    +0.068 C 
ATOM      8  H   UNL     1      35.624 -15.363 -24.038  0.00  0.00    -0.080 HD
BRANCH   3  11
ATOM      9 CL   UNL     1      31.951 -13.762 -20.093  0.00  0.00    -0.080 Cl
ATOM     10 CL   UNL     1      30.671 -10.980 -19.132  0.00  0.00    -0.081 Cl
ATOM     11  C   UNL     1      32.838 -12.394 -22.254  0.00  0.00    +0.059 C 
ATOM     12  C   UNL     1      32.119 -12.317 -21.041  0.00  0.00    +0.081 C 
ATOM     13  C   UNL     1      32.970 -11.214 -23.015  0.00  0.00    +0.015 C 
ATOM     14  C   UNL     1      31.558 -11.114 -20.611  0.00  0.00    +0.069 C 
ATOM     15  C   UNL     1      32.410 -10.011 -22.584  0.00  0.00    +0.002 C 
ATOM     16  C   UNL     1      31.704  -9.962 -21.382  0.00  0.00    +0.012 C 
ENDBRANCH   3  11
ENDBRANCH   1   2
BRANCH   1  17
ATOM     17  C   UNL     1      35.515 -18.051 -22.936  0.00  0.00    -0.019 C 
BRANCH  17  18
ATOM     18  C   UNL     1      34.913 -19.453 -22.856  0.00  0.00    +0.045 C 
BRANCH  18  19
ATOM     19  C   UNL     1      34.502 -19.809 -21.433  0.00  0.00    +0.205 C 
BRANCH  19  20
ATOM     20  O   UNL     1      35.521 -20.595 -20.818  0.00  0.00    -0.475 OA
BRANCH  20  26
ATOM     21  O   UNL     1      37.352 -23.933 -14.822  0.00  0.00    -0.275 OA
ATOM     22  N   UNL     1      36.754 -22.902 -16.785  0.00  0.00    -0.284 N 
ATOM     23  C   UNL     1      34.426 -22.833 -17.486  0.00  0.00    -0.008 C 
ATOM     24  C   UNL     1      34.071 -23.729 -16.335  0.00  0.00    +0.037 C 
ATOM     25  C   UNL     1      35.767 -22.482 -17.694  0.00  0.00    +0.049 C 
ATOM     26  C   UNL     1      35.165 -21.327 -19.727  0.00  0.00    +0.140 C 
ATOM     27  C   UNL     1      35.016 -23.508 -15.164  0.00  0.00    +0.090 C 
ATOM     28  C   UNL     1      36.139 -21.739 -18.818  0.00  0.00    +0.051 C 
ATOM     29  C   UNL     1      33.460 -22.427 -18.412  0.00  0.00    +0.000 C 
ATOM     30  C   UNL     1      33.828 -21.667 -19.524  0.00  0.00    +0.037 C 
ATOM     31  C   UNL     1      36.476 -23.506 -15.574  0.00  0.00    +0.226 C 
ATOM     32  H   UNL     1      37.698 -22.757 -17.026  0.00  0.00    +0.155 HD
ENDBRANCH  20  26
ENDBRANCH  19  20
ENDBRANCH  18  19
ENDBRANCH  17  18
ENDBRANCH   1  17
TORSDOF 7
ENDMDL
MODEL 3
REMARK VINA RESULT:     -11.0      4.871     11.920
REMARK  Name = 60795
REMARK  7 active torsions:
REMARK  status: ('A' for Active; 'I' for Inactive)
REMARK    1  A    between atoms: C_1  and  N_2
REMARK    2  A    between atoms: C_1  and  C_17
REMARK    3  A    between atoms: N_3  and  C_11
REMARK    4  A    between atoms: C_17  and  C_18
REMARK    5  A    between atoms: C_18  and  C_19
REMARK    6  A    between atoms: C_19  and  O_20
REMARK    7  A    between atoms: O_20  and  C_26
REMARK                            x       y       z     vdW  Elec       q    Type
REMARK                         _______ _______ _______ _____ _____    ______ ____
ROOT
ATOM      1  C   UNL     1      34.548 -15.972 -24.094  0.00  0.00    -0.077 C 
ENDROOT
BRANCH   1   2
ATOM      2  N   UNL     1      35.153 -17.031 -23.287  0.00  0.00    +0.389 N 
ATOM      3  N   UNL     1      35.184 -19.181 -21.407  0.00  0.00    -0.311 N 
ATOM      4  C   UNL     1      34.948 -16.770 -21.857  0.00  0.00    -0.055 C 
ATOM      5  C   UNL     1      34.585 -18.337 -23.643  0.00  0.00    -0.055 C 
ATOM      6  C   UNL     1      35.626 -17.841 -21.001  0.00  0.00    +0.068 C 
ATOM      7  C   UNL     1      35.250 -19.462 -22.844  0.00  0.00    +0.068 C 
ATOM      8  H   UNL     1      36.154 -17.044 -23.480  0.00  0.00    -0.080 HD
BRANCH   3  11
ATOM      9 CL   UNL     1      32.627 -20.411 -20.403  0.00  0.00    -0.080 Cl
ATOM     10 CL   UNL     1      33.077 -22.796 -18.302  0.00  0.00    -0.081 Cl
ATOM     11  C   UNL     1      35.326 -20.227 -20.489  0.00  0.00    +0.059 C 
ATOM     12  C   UNL     1      34.222 -20.904 -19.927  0.00  0.00    +0.081 C 
ATOM     13  C   UNL     1      36.618 -20.637 -20.096  0.00  0.00    +0.015 C 
ATOM     14  C   UNL     1      34.403 -21.943 -19.012  0.00  0.00    +0.069 C 
ATOM     15  C   UNL     1      36.798 -21.676 -19.183  0.00  0.00    +0.002 C 
ATOM     16  C   UNL     1      35.690 -22.329 -18.641  0.00  0.00    +0.012 C 
ENDBRANCH   3  11
ENDBRANCH   1   2
BRANCH   1  17
ATOM     17  C   UNL     1      34.511 -14.662 -23.309  0.00  0.00    -0.019 C 
BRANCH  17  18
ATOM     18  C   UNL     1      33.084 -14.128 -23.191  0.00  0.00    +0.045 C 
BRANCH  18  19
ATOM     19  C   UNL     1      32.756 -13.708 -21.764  0.00  0.00    +0.205 C 
BRANCH  19  20
ATOM     20  O   UNL     1      31.615 -12.853 -21.762  0.00  0.00    -0.475 OA
BRANCH  20  26
ATOM     21  O   UNL     1      33.188  -6.062 -23.123  0.00  0.00    -0.275 OA
ATOM     22  N   UNL     1      32.729  -8.264 -22.660  0.00  0.00    -0.284 N 
ATOM     23  C   UNL     1      32.167  -8.961 -20.399  0.00  0.00    -0.008 C 
ATOM     24  C   UNL     1      32.474  -7.574 -19.914  0.00  0.00    +0.037 C 
ATOM     25  C   UNL     1      32.344  -9.268 -21.755  0.00  0.00    +0.049 C 
ATOM     26  C   UNL     1      31.796 -11.579 -21.318  0.00  0.00    +0.140 C 
ATOM     27  C   UNL     1      32.188  -6.545 -20.997  0.00  0.00    +0.090 C 
ATOM     28  C   UNL     1      32.169 -10.577 -22.213  0.00  0.00    +0.051 C 
ATOM     29  C   UNL     1      31.806  -9.976 -19.508  0.00  0.00    +0.000 C 
ATOM     30  C   UNL     1      31.612 -11.280 -19.969  0.00  0.00    +0.037 C 
ATOM     31  C   UNL     1      32.781  -6.921 -22.342  0.00  0.00    +0.226 C 
ATOM     32  H   UNL     1      32.976  -8.534 -23.575  0.00  0.00    +0.155 HD
ENDBRANCH  20  26
ENDBRANCH  19  20
ENDBRANCH  18  19
ENDBRANCH  17  18
ENDBRANCH   1  17
TORSDOF 7
ENDMDL
MODEL 4
REMARK VINA RESULT:     -11.0      7.155     11.202
REMARK  Name = 60795
REMARK  7 active torsions:
REMARK  status: ('A' for Active; 'I' for Inactive)
REMARK    1  A    between atoms: C_1  and  N_2
REMARK    2  A    between atoms: C_1  and  C_17
REMARK    3  A    between atoms: N_3  and  C_11
REMARK    4  A    between atoms: C_17  and  C_18
REMARK    5  A    between atoms: C_18  and  C_19
REMARK    6  A    between atoms: C_19  and  O_20
REMARK    7  A    between atoms: O_20  and  C_26
REMARK                            x       y       z     vdW  Elec       q    Type
REMARK                         _______ _______ _______ _____ _____    ______ ____
ROOT
ATOM      1  C   UNL     1      36.707 -21.695 -19.323  0.00  0.00    -0.077 C 
ENDROOT
BRANCH   1   2
ATOM      2  N   UNL     1      36.212 -20.410 -19.814  0.00  0.00    +0.389 N 
ATOM      3  N   UNL     1      35.380 -18.516 -21.785  0.00  0.00    -0.311 N 
ATOM      4  C   UNL     1      37.197 -19.784 -20.705  0.00  0.00    -0.055 C 
ATOM      5  C   UNL     1      34.938 -20.585 -20.522  0.00  0.00    -0.055 C 
ATOM      6  C   UNL     1      36.715 -18.413 -21.181  0.00  0.00    +0.068 C 
ATOM      7  C   UNL     1      34.380 -19.239 -20.994  0.00  0.00    +0.068 C 
ATOM      8  H   UNL     1      36.060 -19.800 -19.011  0.00  0.00    -0.080 HD
BRANCH   3  11
ATOM      9 CL   UNL     1      34.611 -15.904 -20.503  0.00  0.00    -0.080 Cl
ATOM     10 CL   UNL     1      33.689 -13.656 -22.600  0.00  0.00    -0.081 Cl
ATOM     11  C   UNL     1      34.972 -17.502 -22.658  0.00  0.00    +0.059 C 
ATOM     12  C   UNL     1      34.579 -16.222 -22.209  0.00  0.00    +0.081 C 
ATOM     13  C   UNL     1      34.944 -17.749 -24.046  0.00  0.00    +0.015 C 
ATOM     14  C   UNL     1      34.177 -15.235 -23.110  0.00  0.00    +0.069 C 
ATOM     15  C   UNL     1      34.543 -16.762 -24.946  0.00  0.00    +0.002 C 
ATOM     16  C   UNL     1      34.159 -15.505 -24.478  0.00  0.00    +0.012 C 
ENDBRANCH   3  11
ENDBRANCH   1   2
BRANCH   1  17
ATOM     17  C   UNL     1      36.023 -22.060 -18.008  0.00  0.00    -0.019 C 
BRANCH  17  18
ATOM     18  C   UNL     1      37.042 -22.232 -16.882  0.00  0.00    +0.045 C 
BRANCH  18  19
ATOM     19  C   UNL     1      36.378 -22.671 -15.584  0.00  0.00    +0.205 C 
BRANCH  19  20
ATOM     20  O   UNL     1      35.619 -23.858 -15.806  0.00  0.00    -0.475 OA
BRANCH  20  26
ATOM     21  O   UNL     1      28.682 -22.760 -16.862  0.00  0.00    -0.275 OA
ATOM     22  N   UNL     1      30.927 -23.069 -16.491  0.00  0.00    -0.284 N 
ATOM     23  C   UNL     1      31.721 -23.913 -14.353  0.00  0.00    -0.008 C 
ATOM     24  C   UNL     1      30.321 -23.824 -13.817  0.00  0.00    +0.037 C 
ATOM     25  C   UNL     1      31.982 -23.493 -15.664  0.00  0.00    +0.049 C 
ATOM     26  C   UNL     1      34.343 -23.875 -15.333  0.00  0.00    +0.140 C 
ATOM     27  C   UNL     1      29.302 -24.033 -14.927  0.00  0.00    +0.090 C 
ATOM     28  C   UNL     1      33.292 -23.464 -16.152  0.00  0.00    +0.051 C 
ATOM     29  C   UNL     1      32.785 -24.310 -13.536  0.00  0.00    +0.000 C 
ATOM     30  C   UNL     1      34.091 -24.300 -14.029  0.00  0.00    +0.037 C 
ATOM     31  C   UNL     1      29.592 -23.200 -16.161  0.00  0.00    +0.226 C 
ATOM     32  H   UNL     1      31.153 -22.655 -17.356  0.00  0.00    +0.155 HD
ENDBRANCH  20  26
ENDBRANCH  19  20
ENDBRANCH  18  19
ENDBRANCH  17  18
ENDBRANCH   1  17
TORSDOF 7
ENDMDL
MODEL 5
REMARK VINA RESULT:     -10.8      3.793      6.893
REMARK  Name = 60795
REMARK  7 active torsions:
REMARK  status: ('A' for Active; 'I' for Inactive)
REMARK    1  A    between atoms: C_1  and  N_2
REMARK    2  A    between atoms: C_1  and  C_17
REMARK    3  A    between atoms: N_3  and  C_11
REMARK    4  A    between atoms: C_17  and  C_18
REMARK    5  A    between atoms: C_18  and  C_19
REMARK    6  A    between atoms: C_19  and  O_20
REMARK    7  A    between atoms: O_20  and  C_26
REMARK                            x       y       z     vdW  Elec       q    Type
REMARK                         _______ _______ _______ _____ _____    ______ ____
ROOT
ATOM      1  C   UNL     1      34.771 -16.731 -24.828  0.00  0.00    -0.077 C 
ENDROOT
BRANCH   1   2
ATOM      2  N   UNL     1      34.589 -15.364 -24.343  0.00  0.00    +0.389 N 
ATOM      3  N   UNL     1      33.275 -13.246 -22.946  0.00  0.00    -0.311 N 
ATOM      4  C   UNL     1      33.339 -14.796 -24.862  0.00  0.00    -0.055 C 
ATOM      5  C   UNL     1      34.579 -15.336 -22.875  0.00  0.00    -0.055 C 
ATOM      6  C   UNL     1      33.164 -13.345 -24.407  0.00  0.00    +0.068 C 
ATOM      7  C   UNL     1      34.444 -13.902 -22.353  0.00  0.00    +0.068 C 
ATOM      8  H   UNL     1      35.370 -14.801 -24.677  0.00  0.00    -0.080 HD
BRANCH   3  11
ATOM      9 CL   UNL     1      31.920 -13.761 -20.308  0.00  0.00    -0.080 Cl
ATOM     10 CL   UNL     1      30.667 -11.129 -18.964  0.00  0.00    -0.081 Cl
ATOM     11  C   UNL     1      32.714 -12.129 -22.318  0.00  0.00    +0.059 C 
ATOM     12  C   UNL     1      32.043 -12.209 -21.078  0.00  0.00    +0.081 C 
ATOM     13  C   UNL     1      32.810 -10.864 -22.933  0.00  0.00    +0.015 C 
ATOM     14  C   UNL     1      31.494 -11.073 -20.481  0.00  0.00    +0.069 C 
ATOM     15  C   UNL     1      32.262  -9.729 -22.336  0.00  0.00    +0.002 C 
ATOM     16  C   UNL     1      31.604  -9.833 -21.111  0.00  0.00    +0.012 C 
ENDBRANCH   3  11
ENDBRANCH   1   2
BRANCH   1  17
ATOM     17  C   UNL     1      34.983 -17.687 -23.656  0.00  0.00    -0.019 C 
BRANCH  17  18
ATOM     18  C   UNL     1      34.507 -19.098 -24.000  0.00  0.00    +0.045 C 
BRANCH  18  19
ATOM     19  C   UNL     1      34.888 -20.100 -22.918  0.00  0.00    +0.205 C 
BRANCH  19  20
ATOM     20  O   UNL     1      34.459 -19.622 -21.644  0.00  0.00    -0.475 OA
BRANCH  20  26
ATOM     21  O   UNL     1      31.556 -23.591 -16.519  0.00  0.00    -0.275 OA
ATOM     22  N   UNL     1      32.509 -22.271 -18.139  0.00  0.00    -0.284 N 
ATOM     23  C   UNL     1      34.925 -22.192 -18.406  0.00  0.00    -0.008 C 
ATOM     24  C   UNL     1      35.071 -23.034 -17.171  0.00  0.00    +0.037 C 
ATOM     25  C   UNL     1      33.645 -21.806 -18.825  0.00  0.00    +0.049 C 
ATOM     26  C   UNL     1      34.610 -20.463 -20.584  0.00  0.00    +0.140 C 
ATOM     27  C   UNL     1      33.876 -23.960 -17.002  0.00  0.00    +0.090 C 
ATOM     28  C   UNL     1      33.486 -20.934 -19.906  0.00  0.00    +0.051 C 
ATOM     29  C   UNL     1      36.045 -21.702 -19.085  0.00  0.00    +0.000 C 
ATOM     30  C   UNL     1      35.886 -20.848 -20.177  0.00  0.00    +0.037 C 
ATOM     31  C   UNL     1      32.548 -23.245 -17.161  0.00  0.00    +0.226 C 
ATOM     32  H   UNL     1      31.635 -21.878 -18.369  0.00  0.00    +0.155 HD
ENDBRANCH  20  26
ENDBRANCH  19  20
ENDBRANCH  18  19
ENDBRANCH  17  18
ENDBRANCH   1  17
TORSDOF 7
ENDMDL
MODEL 6
REMARK VINA RESULT:     -10.8      5.520      9.229
REMARK  Name = 60795
REMARK  7 active torsions:
REMARK  status: ('A' for Active; 'I' for Inactive)
REMARK    1  A    between atoms: C_1  and  N_2
REMARK    2  A    between atoms: C_1  and  C_17
REMARK    3  A    between atoms: N_3  and  C_11
REMARK    4  A    between atoms: C_17  and  C_18
REMARK    5  A    between atoms: C_18  and  C_19
REMARK    6  A    between atoms: C_19  and  O_20
REMARK    7  A    between atoms: O_20  and  C_26
REMARK                            x       y       z     vdW  Elec       q    Type
REMARK                         _______ _______ _______ _____ _____    ______ ____
ROOT
ATOM      1  C   UNL     1      35.596 -19.541 -21.931  0.00  0.00    -0.077 C 
ENDROOT
BRANCH   1   2
ATOM      2  N   UNL     1      35.534 -18.084 -22.034  0.00  0.00    +0.389 N 
ATOM      3  N   UNL     1      34.260 -15.540 -22.291  0.00  0.00    -0.311 N 
ATOM      4  C   UNL     1      34.925 -17.683 -23.309  0.00  0.00    -0.055 C 
ATOM      5  C   UNL     1      34.767 -17.521 -20.916  0.00  0.00    -0.055 C 
ATOM      6  C   UNL     1      34.907 -16.161 -23.454  0.00  0.00    +0.068 C 
ATOM      7  C   UNL     1      34.741 -15.991 -20.982  0.00  0.00    +0.068 C 
ATOM      8  H   UNL     1      36.486 -17.722 -21.995  0.00  0.00    -0.080 HD
BRANCH   3  11
ATOM      9 CL   UNL     1      32.137 -14.731 -20.316  0.00  0.00    -0.080 Cl
ATOM     10 CL   UNL     1      31.044 -11.743 -20.744  0.00  0.00    -0.081 Cl
ATOM     11  C   UNL     1      33.752 -14.244 -22.434  0.00  0.00    +0.059 C 
ATOM     12  C   UNL     1      32.751 -13.720 -21.587  0.00  0.00    +0.081 C 
ATOM     13  C   UNL     1      34.245 -13.413 -23.462  0.00  0.00    +0.015 C 
ATOM     14  C   UNL     1      32.267 -12.422 -21.761  0.00  0.00    +0.069 C 
ATOM     15  C   UNL     1      33.762 -12.116 -23.635  0.00  0.00    +0.002 C 
ATOM     16  C   UNL     1      32.773 -11.621 -22.784  0.00  0.00    +0.012 C 
ENDBRANCH   3  11
ENDBRANCH   1   2
BRANCH   1  17
ATOM     17  C   UNL     1      34.633 -20.039 -20.855  0.00  0.00    -0.019 C 
BRANCH  17  18
ATOM     18  C   UNL     1      35.275 -21.130 -19.999  0.00  0.00    +0.045 C 
BRANCH  18  19
ATOM     19  C   UNL     1      34.228 -22.007 -19.326  0.00  0.00    +0.205 C 
BRANCH  19  20
ATOM     20  O   UNL     1      34.810 -22.692 -18.219  0.00  0.00    -0.475 OA
BRANCH  20  26
ATOM     21  O   UNL     1      28.222 -23.352 -15.645  0.00  0.00    -0.275 OA
ATOM     22  N   UNL     1      30.359 -23.095 -16.446  0.00  0.00    -0.284 N 
ATOM     23  C   UNL     1      32.273 -23.754 -15.097  0.00  0.00    -0.008 C 
ATOM     24  C   UNL     1      31.346 -24.031 -13.949  0.00  0.00    +0.037 C 
ATOM     25  C   UNL     1      31.748 -23.256 -16.297  0.00  0.00    +0.049 C 
ATOM     26  C   UNL     1      33.978 -23.039 -17.198  0.00  0.00    +0.140 C 
ATOM     27  C   UNL     1      29.977 -24.467 -14.450  0.00  0.00    +0.090 C 
ATOM     28  C   UNL     1      32.599 -22.889 -17.344  0.00  0.00    +0.051 C 
ATOM     29  C   UNL     1      33.658 -23.888 -14.957  0.00  0.00    +0.000 C 
ATOM     30  C   UNL     1      34.507 -23.539 -16.010  0.00  0.00    +0.037 C 
ATOM     31  C   UNL     1      29.430 -23.564 -15.538  0.00  0.00    +0.226 C 
ATOM     32  H   UNL     1      30.031 -22.619 -17.244  0.00  0.00    +0.155 HD
ENDBRANCH  20  26
ENDBRANCH  19  20
ENDBRANCH  18  19
ENDBRANCH  17  18
ENDBRANCH   1  17
TORSDOF 7
ENDMDL
MODEL 7
REMARK VINA RESULT:     -10.8      4.924      8.726
REMARK  Name = 60795
REMARK  7 active torsions:
REMARK  status: ('A' for Active; 'I' for Inactive)
REMARK    1  A    between atoms: C_1  and  N_2
REMARK    2  A    between atoms: C_1  and  C_17
REMARK    3  A    between atoms: N_3  and  C_11
REMARK    4  A    between atoms: C_17  and  C_18
REMARK    5  A    between atoms: C_18  and  C_19
REMARK    6  A    between atoms: C_19  and  O_20
REMARK    7  A    between atoms: O_20  and  C_26
REMARK                            x       y       z     vdW  Elec       q    Type
REMARK                         _______ _______ _______ _____ _____    ______ ____
ROOT
ATOM      1  C   UNL     1      35.714 -19.344 -22.082  0.00  0.00    -0.077 C 
ENDROOT
BRANCH   1   2
ATOM      2  N   UNL     1      35.606 -17.887 -22.159  0.00  0.00    +0.389 N 
ATOM      3  N   UNL     1      34.251 -15.377 -22.318  0.00  0.00    -0.311 N 
ATOM      4  C   UNL     1      34.930 -17.486 -23.398  0.00  0.00    -0.055 C 
ATOM      5  C   UNL     1      34.876 -17.363 -20.999  0.00  0.00    -0.055 C 
ATOM      6  C   UNL     1      34.862 -15.962 -23.519  0.00  0.00    +0.068 C 
ATOM      7  C   UNL     1      34.804 -15.834 -21.039  0.00  0.00    +0.068 C 
ATOM      8  H   UNL     1      36.549 -17.498 -22.157  0.00  0.00    -0.080 HD
BRANCH   3  11
ATOM      9 CL   UNL     1      32.116 -14.700 -20.307  0.00  0.00    -0.080 Cl
ATOM     10 CL   UNL     1      30.926 -11.737 -20.634  0.00  0.00    -0.081 Cl
ATOM     11  C   UNL     1      33.701 -14.095 -22.417  0.00  0.00    +0.059 C 
ATOM     12  C   UNL     1      32.690 -13.630 -21.548  0.00  0.00    +0.081 C 
ATOM     13  C   UNL     1      34.160 -13.217 -23.420  0.00  0.00    +0.015 C 
ATOM     14  C   UNL     1      32.163 -12.344 -21.678  0.00  0.00    +0.069 C 
ATOM     15  C   UNL     1      33.635 -11.932 -23.550  0.00  0.00    +0.002 C 
ATOM     16  C   UNL     1      32.636 -11.495 -22.679  0.00  0.00    +0.012 C 
ENDBRANCH   3  11
ENDBRANCH   1   2
BRANCH   1  17
ATOM     17  C   UNL     1      34.390 -19.950 -21.621  0.00  0.00    -0.019 C 
BRANCH  17  18
ATOM     18  C   UNL     1      34.582 -20.816 -20.376  0.00  0.00    +0.045 C 
BRANCH  18  19
ATOM     19  C   UNL     1      33.267 -21.049 -19.644  0.00  0.00    +0.205 C 
BRANCH  19  20
ATOM     20  O   UNL     1      33.127 -22.433 -19.332  0.00  0.00    -0.475 OA
BRANCH  20  26
ATOM     21  O   UNL     1      38.225 -23.788 -14.576  0.00  0.00    -0.275 OA
ATOM     22  N   UNL     1      36.569 -23.404 -16.119  0.00  0.00    -0.284 N 
ATOM     23  C   UNL     1      34.227 -23.633 -15.503  0.00  0.00    -0.008 C 
ATOM     24  C   UNL     1      34.650 -24.164 -14.164  0.00  0.00    +0.037 C 
ATOM     25  C   UNL     1      35.206 -23.308 -16.452  0.00  0.00    +0.049 C 
ATOM     26  C   UNL     1      33.489 -22.826 -18.079  0.00  0.00    +0.140 C 
ATOM     27  C   UNL     1      35.986 -23.572 -13.743  0.00  0.00    +0.090 C 
ATOM     28  C   UNL     1      34.839 -22.914 -17.742  0.00  0.00    +0.051 C 
ATOM     29  C   UNL     1      32.877 -23.554 -15.857  0.00  0.00    +0.000 C 
ATOM     30  C   UNL     1      32.509 -23.142 -17.139  0.00  0.00    +0.037 C 
ATOM     31  C   UNL     1      37.033 -23.635 -14.839  0.00  0.00    +0.226 C 
ATOM     32  H   UNL     1      37.231 -23.300 -16.841  0.00  0.00    +0.155 HD
ENDBRANCH  20  26
ENDBRANCH  19  20
ENDBRANCH  18  19
ENDBRANCH  17  18
ENDBRANCH   1  17
TORSDOF 7
ENDMDL
MODEL 8
REMARK VINA RESULT:     -10.7      1.230      1.777
REMARK  Name = 60795
REMARK  7 active torsions:
REMARK  status: ('A' for Active; 'I' for Inactive)
REMARK    1  A    between atoms: C_1  and  N_2
REMARK    2  A    between atoms: C_1  and  C_17
REMARK    3  A    between atoms: N_3  and  C_11
REMARK    4  A    between atoms: C_17  and  C_18
REMARK    5  A    between atoms: C_18  and  C_19
REMARK    6  A    between atoms: C_19  and  O_20
REMARK    7  A    between atoms: O_20  and  C_26
REMARK                            x       y       z     vdW  Elec       q    Type
REMARK                         _______ _______ _______ _____ _____    ______ ____
ROOT
ATOM      1  C   UNL     1      32.063 -10.691 -19.685  0.00  0.00    -0.077 C 
ENDROOT
BRANCH   1   2
ATOM      2  N   UNL     1      31.601  -9.498 -20.393  0.00  0.00    +0.389 N 
ATOM      3  N   UNL     1      31.849  -7.210 -22.087  0.00  0.00    -0.311 N 
ATOM      4  C   UNL     1      32.334  -8.311 -19.936  0.00  0.00    -0.055 C 
ATOM      5  C   UNL     1      31.769  -9.661 -21.842  0.00  0.00    -0.055 C 
ATOM      6  C   UNL     1      31.820  -7.047 -20.628  0.00  0.00    +0.068 C 
ATOM      7  C   UNL     1      31.238  -8.441 -22.600  0.00  0.00    +0.068 C 
ATOM      8  H   UNL     1      30.610  -9.371 -20.190  0.00  0.00    -0.080 HD
BRANCH   3  11
ATOM      9 CL   UNL     1      33.972  -7.083 -24.217  0.00  0.00    -0.080 Cl
ATOM     10 CL   UNL     1      33.889  -4.393 -25.966  0.00  0.00    -0.081 Cl
ATOM     11  C   UNL     1      31.854  -6.057 -22.879  0.00  0.00    +0.059 C 
ATOM     12  C   UNL     1      32.788  -5.849 -23.917  0.00  0.00    +0.081 C 
ATOM     13  C   UNL     1      30.896  -5.049 -22.645  0.00  0.00    +0.015 C 
ATOM     14  C   UNL     1      32.764  -4.684 -24.685  0.00  0.00    +0.069 C 
ATOM     15  C   UNL     1      30.871  -3.886 -23.413  0.00  0.00    +0.002 C 
ATOM     16  C   UNL     1      31.805  -3.703 -24.434  0.00  0.00    +0.012 C 
ENDBRANCH   3  11
ENDBRANCH   1   2
BRANCH   1  17
ATOM     17  C   UNL     1      31.195 -11.894 -20.050  0.00  0.00    -0.019 C 
BRANCH  17  18
ATOM     18  C   UNL     1      32.046 -13.146 -20.262  0.00  0.00    +0.045 C 
BRANCH  18  19
ATOM     19  C   UNL     1      32.469 -13.299 -21.718  0.00  0.00    +0.205 C 
BRANCH  19  20
ATOM     20  O   UNL     1      33.866 -13.574 -21.789  0.00  0.00    -0.475 OA
BRANCH  20  26
ATOM     21  O   UNL     1      35.854 -20.206 -20.202  0.00  0.00    -0.275 OA
ATOM     22  N   UNL     1      35.263 -18.050 -20.730  0.00  0.00    -0.284 N 
ATOM     23  C   UNL     1      34.986 -17.377 -23.050  0.00  0.00    -0.008 C 
ATOM     24  C   UNL     1      35.494 -18.722 -23.482  0.00  0.00    +0.037 C 
ATOM     25  C   UNL     1      34.925 -17.073 -21.683  0.00  0.00    +0.049 C 
ATOM     26  C   UNL     1      34.233 -14.819 -22.200  0.00  0.00    +0.140 C 
ATOM     27  C   UNL     1      35.146 -19.789 -22.455  0.00  0.00    +0.090 C 
ATOM     28  C   UNL     1      34.560 -15.794 -21.257  0.00  0.00    +0.051 C 
ATOM     29  C   UNL     1      34.669 -16.388 -23.987  0.00  0.00    +0.000 C 
ATOM     30  C   UNL     1      34.285 -15.115 -23.561  0.00  0.00    +0.037 C 
ATOM     31  C   UNL     1      35.490 -19.377 -21.036  0.00  0.00    +0.226 C 
ATOM     32  H   UNL     1      35.341 -17.771 -19.788  0.00  0.00    +0.155 HD
ENDBRANCH  20  26
ENDBRANCH  19  20
ENDBRANCH  18  19
ENDBRANCH  17  18
ENDBRANCH   1  17
TORSDOF 7
ENDMDL
MODEL 9
REMARK VINA RESULT:     -10.7      4.076      7.442
REMARK  Name = 60795
REMARK  7 active torsions:
REMARK  status: ('A' for Active; 'I' for Inactive)
REMARK    1  A    between atoms: C_1  and  N_2
REMARK    2  A    between atoms: C_1  and  C_17
REMARK    3  A    between atoms: N_3  and  C_11
REMARK    4  A    between atoms: C_17  and  C_18
REMARK    5  A    between atoms: C_18  and  C_19
REMARK    6  A    between atoms: C_19  and  O_20
REMARK    7  A    between atoms: O_20  and  C_26
REMARK                            x       y       z     vdW  Elec       q    Type
REMARK                         _______ _______ _______ _____ _____    ______ ____
ROOT
ATOM      1  C   UNL     1      35.250 -17.361 -23.496  0.00  0.00    -0.077 C 
ENDROOT
BRANCH   1   2
ATOM      2  N   UNL     1      34.245 -16.359 -23.144  0.00  0.00    +0.389 N 
ATOM      3  N   UNL     1      33.278 -13.751 -22.494  0.00  0.00    -0.311 N 
ATOM      4  C   UNL     1      34.551 -15.757 -21.841  0.00  0.00    -0.055 C 
ATOM      5  C   UNL     1      34.176 -15.315 -24.173  0.00  0.00    -0.055 C 
ATOM      6  C   UNL     1      33.475 -14.749 -21.435  0.00  0.00    +0.068 C 
ATOM      7  C   UNL     1      33.088 -14.289 -23.844  0.00  0.00    +0.068 C 
ATOM      8  H   UNL     1      33.339 -16.824 -23.087  0.00  0.00    -0.080 HD
BRANCH   3  11
ATOM      9 CL   UNL     1      34.217 -11.351 -24.050  0.00  0.00    -0.080 Cl
ATOM     10 CL   UNL     1      32.813  -8.605 -23.162  0.00  0.00    -0.081 Cl
ATOM     11  C   UNL     1      32.694 -12.528 -22.146  0.00  0.00    +0.059 C 
ATOM     12  C   UNL     1      33.031 -11.314 -22.782  0.00  0.00    +0.081 C 
ATOM     13  C   UNL     1      31.728 -12.486 -21.119  0.00  0.00    +0.015 C 
ATOM     14  C   UNL     1      32.428 -10.112 -22.407  0.00  0.00    +0.069 C 
ATOM     15  C   UNL     1      31.125 -11.285 -20.745  0.00  0.00    +0.002 C 
ATOM     16  C   UNL     1      31.475 -10.098 -21.389  0.00  0.00    +0.012 C 
ENDBRANCH   3  11
ENDBRANCH   1   2
BRANCH   1  17
ATOM     17  C   UNL     1      35.595 -18.218 -22.280  0.00  0.00    -0.019 C 
BRANCH  17  18
ATOM     18  C   UNL     1      34.864 -19.559 -22.323  0.00  0.00    +0.045 C 
BRANCH  18  19
ATOM     19  C   UNL     1      34.524 -20.060 -20.926  0.00  0.00    +0.205 C 
BRANCH  19  20
ATOM     20  O   UNL     1      35.531 -20.966 -20.478  0.00  0.00    -0.475 OA
BRANCH  20  26
ATOM     21  O   UNL     1      37.807 -23.474 -14.235  0.00  0.00    -0.275 OA
ATOM     22  N   UNL     1      37.073 -22.713 -16.273  0.00  0.00    -0.284 N 
ATOM     23  C   UNL     1      34.765 -23.055 -16.962  0.00  0.00    -0.008 C 
ATOM     24  C   UNL     1      34.542 -23.894 -15.738  0.00  0.00    +0.037 C 
ATOM     25  C   UNL     1      36.039 -22.524 -17.208  0.00  0.00    +0.049 C 
ATOM     26  C   UNL     1      35.282 -21.649 -19.327  0.00  0.00    +0.140 C 
ATOM     27  C   UNL     1      35.436 -23.435 -14.595  0.00  0.00    +0.090 C 
ATOM     28  C   UNL     1      36.302 -21.831 -18.393  0.00  0.00    +0.051 C 
ATOM     29  C   UNL     1      33.755 -22.878 -17.912  0.00  0.00    +0.000 C 
ATOM     30  C   UNL     1      34.011 -22.168 -19.087  0.00  0.00    +0.037 C 
ATOM     31  C   UNL     1      36.882 -23.248 -15.014  0.00  0.00    +0.226 C 
ATOM     32  H   UNL     1      37.986 -22.449 -16.532  0.00  0.00    +0.155 HD
ENDBRANCH  20  26
ENDBRANCH  19  20
ENDBRANCH  18  19
ENDBRANCH  17  18
ENDBRANCH   1  17
TORSDOF 7
ENDMDL
