MODEL 1
REMARK VINA RESULT:     -11.5      0.000      0.000
REMARK  Name = 21302490
REMARK  5 active torsions:
REMARK  status: ('A' for Active; 'I' for Inactive)
REMARK    1  A    between atoms: N_2  and  C_19
REMARK    2  A    between atoms: C_19  and  C_20
REMARK    3  A    between atoms: C_20  and  C_21
REMARK    4  A    between atoms: C_21  and  C_23
REMARK    5  A    between atoms: C_23  and  C_25
REMARK                            x       y       z     vdW  Elec       q    Type
REMARK                         _______ _______ _______ _____ _____    ______ ____
ROOT
ATOM      1  N   UNL     1      32.791 -11.548 -22.432  0.00  0.00    -0.307 N 
ATOM      2  N   UNL     1      33.626 -15.173 -21.546  0.00  0.00    +0.387 N 
ATOM      3  N   UNL     1      32.836  -8.791 -21.675  0.00  0.00    -0.303 N 
ATOM      4  C   UNL     1      32.153 -12.860 -22.602  0.00  0.00    +0.073 C 
ATOM      5  C   UNL     1      31.921 -13.402 -21.153  0.00  0.00    +0.021 C 
ATOM      6  C   UNL     1      32.960 -13.811 -23.479  0.00  0.00    -0.003 C 
ATOM      7  C   UNL     1      33.109 -14.194 -20.584  0.00  0.00    -0.071 C 
ATOM      8  C   UNL     1      31.768 -12.105 -20.412  0.00  0.00    -0.008 C 
ATOM      9  C   UNL     1      32.302 -11.078 -21.197  0.00  0.00    +0.057 C 
ATOM     10  C   UNL     1      34.118 -14.483 -22.747  0.00  0.00    -0.076 C 
ATOM     11  C   UNL     1      32.890 -10.530 -23.457  0.00  0.00    +0.112 C 
ATOM     12  C   UNL     1      32.329  -9.743 -20.799  0.00  0.00    +0.061 C 
ATOM     13  C   UNL     1      33.553  -9.275 -22.865  0.00  0.00    +0.112 C 
ATOM     14  C   UNL     1      31.245 -11.837 -19.165  0.00  0.00    -0.003 C 
ATOM     15  C   UNL     1      31.787  -9.479 -19.534  0.00  0.00    +0.016 C 
ATOM     16  C   UNL     1      31.257 -10.511 -18.729  0.00  0.00    +0.001 C 
ATOM     17  C   UNL     1      33.010  -7.409 -21.267  0.00  0.00    +0.112 C 
ATOM     18  H   UNL     1      32.871 -15.805 -21.814  0.00  0.00    -0.080 HD
ENDROOT
BRANCH   2  19
ATOM     19  C   UNL     1      34.699 -15.962 -20.940  0.00  0.00    -0.077 C 
BRANCH  19  20
ATOM     20  C   UNL     1      35.199 -17.021 -21.926  0.00  0.00    -0.015 C 
BRANCH  20  21
ATOM     21  C   UNL     1      35.754 -18.260 -21.217  0.00  0.00    +0.067 C 
BRANCH  21  23
ATOM     22  O   UNL     1      34.552 -19.765 -22.671  0.00  0.00    -0.291 OA
ATOM     23  C   UNL     1      34.993 -19.536 -21.547  0.00  0.00    +0.173 C 
BRANCH  23  25
ATOM     24  F   UNL     1      34.260 -23.351 -17.486  0.00  0.00    -0.204 F 
ATOM     25  C   UNL     1      34.799 -20.549 -20.470  0.00  0.00    +0.035 C 
ATOM     26  C   UNL     1      35.905 -21.149 -19.870  0.00  0.00    +0.005 C 
ATOM     27  C   UNL     1      33.511 -20.895 -20.062  0.00  0.00    +0.005 C 
ATOM     28  C   UNL     1      35.724 -22.096 -18.862  0.00  0.00    +0.030 C 
ATOM     29  C   UNL     1      33.328 -21.842 -19.055  0.00  0.00    +0.030 C 
ATOM     30  C   UNL     1      34.435 -22.442 -18.454  0.00  0.00    +0.140 C 
ENDBRANCH  23  25
ENDBRANCH  21  23
ENDBRANCH  20  21
ENDBRANCH  19  20
ENDBRANCH   2  19
TORSDOF 5
ENDMDL
MODEL 2
REMARK VINA RESULT:     -10.3      2.945      5.876
REMARK  Name = 21302490
REMARK  5 active torsions:
REMARK  status: ('A' for Active; 'I' for Inactive)
REMARK    1  A    between atoms: N_2  and  C_19
REMARK    2  A    between atoms: C_19  and  C_20
REMARK    3  A    between atoms: C_20  and  C_21
REMARK    4  A    between atoms: C_21  and  C_23
REMARK    5  A    between atoms: C_23  and  C_25
REMARK                            x       y       z     vdW  Elec       q    Type
REMARK                         _______ _______ _______ _____ _____    ______ ____
ROOT
ATOM      1  N   UNL     1      31.944  -6.535 -21.835  0.00  0.00    -0.307 N 
ATOM      2  N   UNL     1      32.917 -10.223 -22.104  0.00  0.00    +0.387 N 
ATOM      3  N   UNL     1      30.990  -4.174 -23.136  0.00  0.00    -0.303 N 
ATOM      4  C   UNL     1      32.986  -7.405 -21.276  0.00  0.00    +0.073 C 
ATOM      5  C   UNL     1      33.796  -7.929 -22.507  0.00  0.00    +0.021 C 
ATOM      6  C   UNL     1      32.431  -8.522 -20.399  0.00  0.00    -0.003 C 
ATOM      7  C   UNL     1      33.230  -9.218 -23.125  0.00  0.00    -0.071 C 
ATOM      8  C   UNL     1      33.604  -6.779 -23.453  0.00  0.00    -0.008 C 
ATOM      9  C   UNL     1      32.512  -6.023 -23.018  0.00  0.00    +0.057 C 
ATOM     10  C   UNL     1      31.887  -9.707 -21.192  0.00  0.00    -0.076 C 
ATOM     11  C   UNL     1      31.170  -5.570 -21.082  0.00  0.00    +0.112 C 
ATOM     12  C   UNL     1      32.054  -4.884 -23.679  0.00  0.00    +0.061 C 
ATOM     13  C   UNL     1      30.241  -4.805 -22.038  0.00  0.00    +0.112 C 
ATOM     14  C   UNL     1      34.286  -6.433 -24.600  0.00  0.00    -0.003 C 
ATOM     15  C   UNL     1      32.760  -4.535 -24.838  0.00  0.00    +0.016 C 
ATOM     16  C   UNL     1      33.856  -5.300 -25.293  0.00  0.00    +0.001 C 
ATOM     17  C   UNL     1      30.388  -3.060 -23.846  0.00  0.00    +0.112 C 
ATOM     18  H   UNL     1      33.761 -10.425 -21.568  0.00  0.00    -0.080 HD
ENDROOT
BRANCH   2  19
ATOM     19  C   UNL     1      32.460 -11.462 -22.735  0.00  0.00    -0.077 C 
BRANCH  19  20
ATOM     20  C   UNL     1      33.606 -12.112 -23.514  0.00  0.00    -0.015 C 
BRANCH  20  21
ATOM     21  C   UNL     1      34.188 -13.328 -22.786  0.00  0.00    +0.067 C 
BRANCH  21  23
ATOM     22  O   UNL     1      33.498 -14.674 -24.667  0.00  0.00    -0.291 OA
ATOM     23  C   UNL     1      34.008 -14.632 -23.550  0.00  0.00    +0.173 C 
BRANCH  23  25
ATOM     24  F   UNL     1      35.829 -19.397 -21.192  0.00  0.00    -0.204 F 
ATOM     25  C   UNL     1      34.490 -15.897 -22.924  0.00  0.00    +0.035 C 
ATOM     26  C   UNL     1      34.870 -16.972 -23.728  0.00  0.00    +0.005 C 
ATOM     27  C   UNL     1      34.563 -16.005 -21.536  0.00  0.00    +0.005 C 
ATOM     28  C   UNL     1      35.322 -18.155 -23.143  0.00  0.00    +0.030 C 
ATOM     29  C   UNL     1      35.015 -17.187 -20.950  0.00  0.00    +0.030 C 
ATOM     30  C   UNL     1      35.395 -18.262 -21.754  0.00  0.00    +0.140 C 
ENDBRANCH  23  25
ENDBRANCH  21  23
ENDBRANCH  20  21
ENDBRANCH  19  20
ENDBRANCH   2  19
TORSDOF 5
ENDMDL
MODEL 3
REMARK VINA RESULT:     -10.1      5.578     10.950
REMARK  Name = 21302490
REMARK  5 active torsions:
REMARK  status: ('A' for Active; 'I' for Inactive)
REMARK    1  A    between atoms: N_2  and  C_19
REMARK    2  A    between atoms: C_19  and  C_20
REMARK    3  A    between atoms: C_20  and  C_21
REMARK    4  A    between atoms: C_21  and  C_23
REMARK    5  A    between atoms: C_23  and  C_25
REMARK                            x       y       z     vdW  Elec       q    Type
REMARK                         _______ _______ _______ _____ _____    ______ ____
ROOT
ATOM      1  N   UNL     1      32.255 -13.051 -20.671  0.00  0.00    -0.307 N 
ATOM      2  N   UNL     1      31.826  -9.295 -20.106  0.00  0.00    +0.387 N 
ATOM      3  N   UNL     1      33.930 -15.201 -21.538  0.00  0.00    -0.303 N 
ATOM      4  C   UNL     1      31.180 -12.065 -20.838  0.00  0.00    +0.073 C 
ATOM      5  C   UNL     1      31.719 -11.034 -21.883  0.00  0.00    +0.021 C 
ATOM      6  C   UNL     1      30.745 -11.423 -19.525  0.00  0.00    -0.003 C 
ATOM      7  C   UNL     1      32.514  -9.874 -21.264  0.00  0.00    -0.071 C 
ATOM      8  C   UNL     1      32.637 -11.922 -22.674  0.00  0.00    -0.008 C 
ATOM      9  C   UNL     1      32.920 -13.060 -21.913  0.00  0.00    +0.057 C 
ATOM     10  C   UNL     1      31.675 -10.309 -19.054  0.00  0.00    -0.076 C 
ATOM     11  C   UNL     1      32.101 -14.361 -20.072  0.00  0.00    +0.112 C 
ATOM     12  C   UNL     1      33.753 -14.088 -22.350  0.00  0.00    +0.061 C 
ATOM     13  C   UNL     1      33.436 -15.120 -20.155  0.00  0.00    +0.112 C 
ATOM     14  C   UNL     1      33.202 -11.750 -23.920  0.00  0.00    -0.003 C 
ATOM     15  C   UNL     1      34.316 -13.909 -23.621  0.00  0.00    +0.016 C 
ATOM     16  C   UNL     1      34.047 -12.757 -24.392  0.00  0.00    +0.001 C 
ATOM     17  C   UNL     1      34.885 -16.239 -21.880  0.00  0.00    +0.112 C 
ATOM     18  H   UNL     1      30.901  -8.978 -20.395  0.00  0.00    -0.080 HD
ENDROOT
BRANCH   2  19
ATOM     19  C   UNL     1      32.572  -8.143 -19.596  0.00  0.00    -0.077 C 
BRANCH  19  20
ATOM     20  C   UNL     1      33.216  -7.375 -20.753  0.00  0.00    -0.015 C 
BRANCH  20  21
ATOM     21  C   UNL     1      32.388  -6.158 -21.176  0.00  0.00    +0.067 C 
BRANCH  21  23
ATOM     22  O   UNL     1      30.714  -6.886 -22.754  0.00  0.00    -0.291 OA
ATOM     23  C   UNL     1      31.774  -6.297 -22.561  0.00  0.00    +0.173 C 
BRANCH  23  25
ATOM     24  F   UNL     1      34.434  -3.951 -26.921  0.00  0.00    -0.204 F 
ATOM     25  C   UNL     1      32.479  -5.675 -23.720  0.00  0.00    +0.035 C 
ATOM     26  C   UNL     1      32.002  -4.486 -24.269  0.00  0.00    +0.005 C 
ATOM     27  C   UNL     1      33.617  -6.281 -24.251  0.00  0.00    +0.005 C 
ATOM     28  C   UNL     1      32.662  -3.903 -25.351  0.00  0.00    +0.030 C 
ATOM     29  C   UNL     1      34.278  -5.700 -25.333  0.00  0.00    +0.030 C 
ATOM     30  C   UNL     1      33.800  -4.510 -25.882  0.00  0.00    +0.140 C 
ENDBRANCH  23  25
ENDBRANCH  21  23
ENDBRANCH  20  21
ENDBRANCH  19  20
ENDBRANCH   2  19
TORSDOF 5
ENDMDL
MODEL 4
REMARK VINA RESULT:     -10.0      4.200      7.691
REMARK  Name = 21302490
REMARK  5 active torsions:
REMARK  status: ('A' for Active; 'I' for Inactive)
REMARK    1  A    between atoms: N_2  and  C_19
REMARK    2  A    between atoms: C_19  and  C_20
REMARK    3  A    between atoms: C_20  and  C_21
REMARK    4  A    between atoms: C_21  and  C_23
REMARK    5  A    between atoms: C_23  and  C_25
REMARK                            x       y       z     vdW  Elec       q    Type
REMARK                         _______ _______ _______ _____ _____    ______ ____
ROOT
ATOM      1  N   UNL     1      31.807  -4.805 -23.248  0.00  0.00    -0.307 N 
ATOM      2  N   UNL     1      32.408  -8.422 -22.165  0.00  0.00    +0.387 N 
ATOM      3  N   UNL     1      31.305  -2.958 -25.371  0.00  0.00    -0.303 N 
ATOM      4  C   UNL     1      32.661  -5.498 -22.275  0.00  0.00    +0.073 C 
ATOM      5  C   UNL     1      33.576  -6.443 -23.121  0.00  0.00    +0.021 C 
ATOM      6  C   UNL     1      31.872  -6.230 -21.195  0.00  0.00    -0.003 C 
ATOM      7  C   UNL     1      32.968  -7.830 -23.384  0.00  0.00    -0.071 C 
ATOM      8  C   UNL     1      33.643  -5.661 -24.402  0.00  0.00    -0.008 C 
ATOM      9  C   UNL     1      32.587  -4.744 -24.419  0.00  0.00    +0.057 C 
ATOM     10  C   UNL     1      31.321  -7.578 -21.651  0.00  0.00    -0.076 C 
ATOM     11  C   UNL     1      31.043  -3.604 -22.981  0.00  0.00    +0.112 C 
ATOM     12  C   UNL     1      32.352  -3.865 -25.474  0.00  0.00    +0.061 C 
ATOM     13  C   UNL     1      30.345  -3.147 -24.273  0.00  0.00    +0.112 C 
ATOM     14  C   UNL     1      34.513  -5.752 -25.468  0.00  0.00    -0.003 C 
ATOM     15  C   UNL     1      33.247  -3.958 -26.549  0.00  0.00    +0.016 C 
ATOM     16  C   UNL     1      34.308  -4.889 -26.546  0.00  0.00    +0.001 C 
ATOM     17  C   UNL     1      30.931  -2.109 -26.488  0.00  0.00    +0.112 C 
ATOM     18  H   UNL     1      33.142  -8.482 -21.459  0.00  0.00    -0.080 HD
ENDROOT
BRANCH   2  19
ATOM     19  C   UNL     1      31.915  -9.773 -22.438  0.00  0.00    -0.077 C 
BRANCH  19  20
ATOM     20  C   UNL     1      31.606 -10.498 -21.126  0.00  0.00    -0.015 C 
BRANCH  20  21
ATOM     21  C   UNL     1      31.178 -11.951 -21.352  0.00  0.00    +0.067 C 
BRANCH  21  23
ATOM     22  O   UNL     1      31.842 -13.016 -19.290  0.00  0.00    -0.291 OA
ATOM     23  C   UNL     1      31.961 -12.949 -20.511  0.00  0.00    +0.173 C 
BRANCH  23  25
ATOM     24  F   UNL     1      35.448 -16.505 -23.115  0.00  0.00    -0.204 F 
ATOM     25  C   UNL     1      32.888 -13.892 -21.202  0.00  0.00    +0.035 C 
ATOM     26  C   UNL     1      33.601 -14.835 -20.463  0.00  0.00    +0.005 C 
ATOM     27  C   UNL     1      33.038 -13.833 -22.587  0.00  0.00    +0.005 C 
ATOM     28  C   UNL     1      34.467 -15.718 -21.109  0.00  0.00    +0.030 C 
ATOM     29  C   UNL     1      33.903 -14.715 -23.234  0.00  0.00    +0.030 C 
ATOM     30  C   UNL     1      34.617 -15.657 -22.495  0.00  0.00    +0.140 C 
ENDBRANCH  23  25
ENDBRANCH  21  23
ENDBRANCH  20  21
ENDBRANCH  19  20
ENDBRANCH   2  19
TORSDOF 5
ENDMDL
MODEL 5
REMARK VINA RESULT:      -9.6      7.439     12.784
REMARK  Name = 21302490
REMARK  5 active torsions:
REMARK  status: ('A' for Active; 'I' for Inactive)
REMARK    1  A    between atoms: N_2  and  C_19
REMARK    2  A    between atoms: C_19  and  C_20
REMARK    3  A    between atoms: C_20  and  C_21
REMARK    4  A    between atoms: C_21  and  C_23
REMARK    5  A    between atoms: C_23  and  C_25
REMARK                            x       y       z     vdW  Elec       q    Type
REMARK                         _______ _______ _______ _____ _____    ______ ____
ROOT
ATOM      1  N   UNL     1      38.065 -24.013 -15.006  0.00  0.00    -0.307 N 
ATOM      2  N   UNL     1      34.512 -23.133 -16.110  0.00  0.00    +0.387 N 
ATOM      3  N   UNL     1      39.882 -25.987 -14.018  0.00  0.00    -0.303 N 
ATOM      4  C   UNL     1      37.160 -22.864 -14.868  0.00  0.00    +0.073 C 
ATOM      5  C   UNL     1      35.923 -23.401 -14.077  0.00  0.00    +0.021 C 
ATOM      6  C   UNL     1      36.793 -22.225 -16.203  0.00  0.00    -0.003 C 
ATOM      7  C   UNL     1      34.822 -23.999 -14.968  0.00  0.00    -0.071 C 
ATOM      8  C   UNL     1      36.579 -24.487 -13.273  0.00  0.00    -0.008 C 
ATOM      9  C   UNL     1      37.803 -24.804 -13.870  0.00  0.00    +0.057 C 
ATOM     10  C   UNL     1      35.701 -22.977 -16.959  0.00  0.00    -0.076 C 
ATOM     11  C   UNL     1      39.466 -23.933 -15.363  0.00  0.00    +0.112 C 
ATOM     12  C   UNL     1      38.665 -25.783 -13.380  0.00  0.00    +0.061 C 
ATOM     13  C   UNL     1      40.082 -25.341 -15.325  0.00  0.00    +0.112 C 
ATOM     14  C   UNL     1      36.148 -25.162 -12.151  0.00  0.00    -0.003 C 
ATOM     15  C   UNL     1      38.223 -26.457 -12.234  0.00  0.00    +0.016 C 
ATOM     16  C   UNL     1      36.983 -26.153 -11.631  0.00  0.00    +0.001 C 
ATOM     17  C   UNL     1      40.760 -27.078 -13.635  0.00  0.00    +0.112 C 
ATOM     18  H   UNL     1      34.231 -22.216 -15.763  0.00  0.00    -0.080 HD
ENDROOT
BRANCH   2  19
ATOM     19  C   UNL     1      33.405 -23.695 -16.886  0.00  0.00    -0.077 C 
BRANCH  19  20
ATOM     20  C   UNL     1      32.820 -22.632 -17.819  0.00  0.00    -0.015 C 
BRANCH  20  21
ATOM     21  C   UNL     1      33.584 -22.536 -19.143  0.00  0.00    +0.067 C 
BRANCH  21  23
ATOM     22  O   UNL     1      32.337 -20.639 -19.961  0.00  0.00    -0.291 OA
ATOM     23  C   UNL     1      33.428 -21.189 -19.834  0.00  0.00    +0.173 C 
BRANCH  23  25
ATOM     24  F   UNL     1      38.027 -18.618 -21.789  0.00  0.00    -0.204 F 
ATOM     25  C   UNL     1      34.648 -20.508 -20.354  0.00  0.00    +0.035 C 
ATOM     26  C   UNL     1      34.530 -19.496 -21.306  0.00  0.00    +0.005 C 
ATOM     27  C   UNL     1      35.908 -20.881 -19.886  0.00  0.00    +0.005 C 
ATOM     28  C   UNL     1      35.671 -18.857 -21.792  0.00  0.00    +0.030 C 
ATOM     29  C   UNL     1      37.050 -20.243 -20.371  0.00  0.00    +0.030 C 
ATOM     30  C   UNL     1      36.931 -19.231 -21.323  0.00  0.00    +0.140 C 
ENDBRANCH  23  25
ENDBRANCH  21  23
ENDBRANCH  20  21
ENDBRANCH  19  20
ENDBRANCH   2  19
TORSDOF 5
ENDMDL
MODEL 6
REMARK VINA RESULT:      -9.6      5.379     11.988
REMARK  Name = 21302490
REMARK  5 active torsions:
REMARK  status: ('A' for Active; 'I' for Inactive)
REMARK    1  A    between atoms: N_2  and  C_19
REMARK    2  A    between atoms: C_19  and  C_20
REMARK    3  A    between atoms: C_20  and  C_21
REMARK    4  A    between atoms: C_21  and  C_23
REMARK    5  A    between atoms: C_23  and  C_25
REMARK                            x       y       z     vdW  Elec       q    Type
REMARK                         _______ _______ _______ _____ _____    ______ ____
ROOT
ATOM      1  N   UNL     1      37.111 -23.609 -15.442  0.00  0.00    -0.307 N 
ATOM      2  N   UNL     1      35.627 -21.678 -18.388  0.00  0.00    +0.387 N 
ATOM      3  N   UNL     1      37.115 -25.984 -13.850  0.00  0.00    -0.303 N 
ATOM      4  C   UNL     1      36.757 -22.214 -15.730  0.00  0.00    +0.073 C 
ATOM      5  C   UNL     1      35.215 -22.221 -15.994  0.00  0.00    +0.021 C 
ATOM      6  C   UNL     1      37.562 -21.614 -16.877  0.00  0.00    -0.003 C 
ATOM      7  C   UNL     1      34.833 -22.488 -17.459  0.00  0.00    -0.071 C 
ATOM      8  C   UNL     1      34.811 -23.387 -15.138  0.00  0.00    -0.008 C 
ATOM      9  C   UNL     1      35.947 -24.156 -14.867  0.00  0.00    +0.057 C 
ATOM     10  C   UNL     1      37.051 -22.015 -18.257  0.00  0.00    -0.076 C 
ATOM     11  C   UNL     1      38.342 -24.045 -14.815  0.00  0.00    +0.112 C 
ATOM     12  C   UNL     1      35.921 -25.320 -14.102  0.00  0.00    +0.061 C 
ATOM     13  C   UNL     1      38.300 -25.569 -14.615  0.00  0.00    +0.112 C 
ATOM     14  C   UNL     1      33.574 -23.768 -14.662  0.00  0.00    -0.003 C 
ATOM     15  C   UNL     1      34.662 -25.695 -13.615  0.00  0.00    +0.016 C 
ATOM     16  C   UNL     1      33.507 -24.932 -13.894  0.00  0.00    +0.001 C 
ATOM     17  C   UNL     1      37.134 -27.268 -13.173  0.00  0.00    +0.112 C 
ATOM     18  H   UNL     1      35.498 -20.691 -18.160  0.00  0.00    -0.080 HD
ENDROOT
BRANCH   2  19
ATOM     19  C   UNL     1      35.178 -21.897 -19.764  0.00  0.00    -0.077 C 
BRANCH  19  20
ATOM     20  C   UNL     1      34.307 -20.728 -20.230  0.00  0.00    -0.015 C 
BRANCH  20  21
ATOM     21  C   UNL     1      34.875 -20.040 -21.474  0.00  0.00    +0.067 C 
BRANCH  21  23
ATOM     22  O   UNL     1      36.687 -18.805 -20.467  0.00  0.00    -0.291 OA
ATOM     23  C   UNL     1      35.672 -18.782 -21.157  0.00  0.00    +0.173 C 
BRANCH  23  25
ATOM     24  F   UNL     1      33.939 -13.886 -23.305  0.00  0.00    -0.204 F 
ATOM     25  C   UNL     1      35.210 -17.483 -21.727  0.00  0.00    +0.035 C 
ATOM     26  C   UNL     1      34.696 -16.496 -20.887  0.00  0.00    +0.005 C 
ATOM     27  C   UNL     1      35.296 -17.255 -23.101  0.00  0.00    +0.005 C 
ATOM     28  C   UNL     1      34.267 -15.281 -21.419  0.00  0.00    +0.030 C 
ATOM     29  C   UNL     1      34.866 -16.040 -23.634  0.00  0.00    +0.030 C 
ATOM     30  C   UNL     1      34.352 -15.053 -22.793  0.00  0.00    +0.140 C 
ENDBRANCH  23  25
ENDBRANCH  21  23
ENDBRANCH  20  21
ENDBRANCH  19  20
ENDBRANCH   2  19
TORSDOF 5
ENDMDL
MODEL 7
REMARK VINA RESULT:      -9.5      5.008      7.247
REMARK  Name = 21302490
REMARK  5 active torsions:
REMARK  status: ('A' for Active; 'I' for Inactive)
REMARK    1  A    between atoms: N_2  and  C_19
REMARK    2  A    between atoms: C_19  and  C_20
REMARK    3  A    between atoms: C_20  and  C_21
REMARK    4  A    between atoms: C_21  and  C_23
REMARK    5  A    between atoms: C_23  and  C_25
REMARK                            x       y       z     vdW  Elec       q    Type
REMARK                         _______ _______ _______ _____ _____    ______ ____
ROOT
ATOM      1  N   UNL     1      31.647  -6.481 -21.322  0.00  0.00    -0.307 N 
ATOM      2  N   UNL     1      32.284 -10.241 -21.050  0.00  0.00    +0.387 N 
ATOM      3  N   UNL     1      30.856  -4.263 -22.945  0.00  0.00    -0.303 N 
ATOM      4  C   UNL     1      32.630  -7.349 -20.662  0.00  0.00    +0.073 C 
ATOM      5  C   UNL     1      33.345  -8.124 -21.818  0.00  0.00    +0.021 C 
ATOM      6  C   UNL     1      32.012  -8.267 -19.613  0.00  0.00    -0.003 C 
ATOM      7  C   UNL     1      32.646  -9.433 -22.219  0.00  0.00    -0.071 C 
ATOM      8  C   UNL     1      33.218  -7.115 -22.923  0.00  0.00    -0.008 C 
ATOM      9  C   UNL     1      32.213  -6.205 -22.583  0.00  0.00    +0.057 C 
ATOM     10  C   UNL     1      31.338  -9.502 -20.204  0.00  0.00    -0.076 C 
ATOM     11  C   UNL     1      30.989  -5.347 -20.707  0.00  0.00    +0.112 C 
ATOM     12  C   UNL     1      31.832  -5.141 -23.398  0.00  0.00    +0.061 C 
ATOM     13  C   UNL     1      30.095  -4.651 -21.747  0.00  0.00    +0.112 C 
ATOM     14  C   UNL     1      33.885  -7.008 -24.125  0.00  0.00    -0.003 C 
ATOM     15  C   UNL     1      32.522  -5.036 -24.614  0.00  0.00    +0.016 C 
ATOM     16  C   UNL     1      33.530  -5.957 -24.972  0.00  0.00    +0.001 C 
ATOM     17  C   UNL     1      30.327  -3.217 -23.802  0.00  0.00    +0.112 C 
ATOM     18  H   UNL     1      33.127 -10.437 -20.510  0.00  0.00    -0.080 HD
ENDROOT
BRANCH   2  19
ATOM     19  C   UNL     1      31.699 -11.513 -21.474  0.00  0.00    -0.077 C 
BRANCH  19  20
ATOM     20  C   UNL     1      32.058 -12.619 -20.480  0.00  0.00    -0.015 C 
BRANCH  20  21
ATOM     21  C   UNL     1      32.232 -13.980 -21.161  0.00  0.00    +0.067 C 
BRANCH  21  23
ATOM     22  O   UNL     1      34.604 -14.412 -21.270  0.00  0.00    -0.291 OA
ATOM     23  C   UNL     1      33.569 -14.133 -21.871  0.00  0.00    +0.173 C 
BRANCH  23  25
ATOM     24  F   UNL     1      33.746 -13.481 -27.450  0.00  0.00    -0.204 F 
ATOM     25  C   UNL     1      33.615 -13.960 -23.352  0.00  0.00    +0.035 C 
ATOM     26  C   UNL     1      33.868 -12.702 -23.899  0.00  0.00    +0.005 C 
ATOM     27  C   UNL     1      33.406 -15.055 -24.189  0.00  0.00    +0.005 C 
ATOM     28  C   UNL     1      33.912 -12.540 -25.284  0.00  0.00    +0.030 C 
ATOM     29  C   UNL     1      33.450 -14.894 -25.574  0.00  0.00    +0.030 C 
ATOM     30  C   UNL     1      33.704 -13.637 -26.121  0.00  0.00    +0.140 C 
ENDBRANCH  23  25
ENDBRANCH  21  23
ENDBRANCH  20  21
ENDBRANCH  19  20
ENDBRANCH   2  19
TORSDOF 5
ENDMDL
MODEL 8
REMARK VINA RESULT:      -9.5      4.555      7.541
REMARK  Name = 21302490
REMARK  5 active torsions:
REMARK  status: ('A' for Active; 'I' for Inactive)
REMARK    1  A    between atoms: N_2  and  C_19
REMARK    2  A    between atoms: C_19  and  C_20
REMARK    3  A    between atoms: C_20  and  C_21
REMARK    4  A    between atoms: C_21  and  C_23
REMARK    5  A    between atoms: C_23  and  C_25
REMARK                            x       y       z     vdW  Elec       q    Type
REMARK                         _______ _______ _______ _____ _____    ______ ____
ROOT
ATOM      1  N   UNL     1      32.280  -6.273 -24.171  0.00  0.00    -0.307 N 
ATOM      2  N   UNL     1      31.811  -8.391 -21.024  0.00  0.00    +0.387 N 
ATOM      3  N   UNL     1      33.049  -3.770 -25.322  0.00  0.00    -0.303 N 
ATOM      4  C   UNL     1      31.307  -7.259 -23.687  0.00  0.00    +0.073 C 
ATOM      5  C   UNL     1      30.693  -6.637 -22.390  0.00  0.00    +0.021 C 
ATOM      6  C   UNL     1      31.911  -8.641 -23.466  0.00  0.00    -0.003 C 
ATOM      7  C   UNL     1      31.474  -6.967 -21.108  0.00  0.00    -0.071 C 
ATOM      8  C   UNL     1      30.829  -5.177 -22.713  0.00  0.00    -0.008 C 
ATOM      9  C   UNL     1      31.770  -5.033 -23.737  0.00  0.00    +0.057 C 
ATOM     10  C   UNL     1      32.675  -8.770 -22.151  0.00  0.00    -0.076 C 
ATOM     11  C   UNL     1      32.849  -6.246 -25.503  0.00  0.00    +0.112 C 
ATOM     12  C   UNL     1      32.142  -3.801 -24.271  0.00  0.00    +0.061 C 
ATOM     13  C   UNL     1      33.763  -5.017 -25.642  0.00  0.00    +0.112 C 
ATOM     14  C   UNL     1      30.223  -4.071 -22.155  0.00  0.00    -0.003 C 
ATOM     15  C   UNL     1      31.513  -2.684 -23.704  0.00  0.00    +0.016 C 
ATOM     16  C   UNL     1      30.572  -2.817 -22.661  0.00  0.00    +0.001 C 
ATOM     17  C   UNL     1      33.572  -2.515 -25.829  0.00  0.00    +0.112 C 
ATOM     18  H   UNL     1      30.951  -8.939 -21.068  0.00  0.00    -0.080 HD
ENDROOT
BRANCH   2  19
ATOM     19  C   UNL     1      32.480  -8.680 -19.754  0.00  0.00    -0.077 C 
BRANCH  19  20
ATOM     20  C   UNL     1      31.591  -9.565 -18.877  0.00  0.00    -0.015 C 
BRANCH  20  21
ATOM     21  C   UNL     1      32.000 -11.040 -18.936  0.00  0.00    +0.067 C 
BRANCH  21  23
ATOM     22  O   UNL     1      30.096 -11.614 -20.303  0.00  0.00    -0.291 OA
ATOM     23  C   UNL     1      31.272 -11.826 -20.017  0.00  0.00    +0.173 C 
BRANCH  23  25
ATOM     24  F   UNL     1      34.111 -15.770 -22.840  0.00  0.00    -0.204 F 
ATOM     25  C   UNL     1      32.024 -12.873 -20.766  0.00  0.00    +0.035 C 
ATOM     26  C   UNL     1      32.409 -12.644 -22.087  0.00  0.00    +0.005 C 
ATOM     27  C   UNL     1      32.345 -14.080 -20.146  0.00  0.00    +0.005 C 
ATOM     28  C   UNL     1      33.114 -13.622 -22.788  0.00  0.00    +0.030 C 
ATOM     29  C   UNL     1      33.049 -15.059 -20.846  0.00  0.00    +0.030 C 
ATOM     30  C   UNL     1      33.434 -14.830 -22.167  0.00  0.00    +0.140 C 
ENDBRANCH  23  25
ENDBRANCH  21  23
ENDBRANCH  20  21
ENDBRANCH  19  20
ENDBRANCH   2  19
TORSDOF 5
ENDMDL
MODEL 9
REMARK VINA RESULT:      -9.4      4.656      9.914
REMARK  Name = 21302490
REMARK  5 active torsions:
REMARK  status: ('A' for Active; 'I' for Inactive)
REMARK    1  A    between atoms: N_2  and  C_19
REMARK    2  A    between atoms: C_19  and  C_20
REMARK    3  A    between atoms: C_20  and  C_21
REMARK    4  A    between atoms: C_21  and  C_23
REMARK    5  A    between atoms: C_23  and  C_25
REMARK                            x       y       z     vdW  Elec       q    Type
REMARK                         _______ _______ _______ _____ _____    ______ ____
ROOT
ATOM      1  N   UNL     1      34.124 -15.624 -23.607  0.00  0.00    -0.307 N 
ATOM      2  N   UNL     1      32.768 -13.208 -20.971  0.00  0.00    +0.387 N 
ATOM      3  N   UNL     1      34.359 -18.316 -24.541  0.00  0.00    -0.303 N 
ATOM      4  C   UNL     1      34.604 -14.418 -22.920  0.00  0.00    +0.073 C 
ATOM      5  C   UNL     1      34.641 -14.790 -21.401  0.00  0.00    +0.021 C 
ATOM      6  C   UNL     1      33.762 -13.182 -23.217  0.00  0.00    -0.003 C 
ATOM      7  C   UNL     1      33.319 -14.531 -20.661  0.00  0.00    -0.071 C 
ATOM      8  C   UNL     1      34.892 -16.267 -21.502  0.00  0.00    -0.008 C 
ATOM      9  C   UNL     1      34.560 -16.688 -22.793  0.00  0.00    +0.057 C 
ATOM     10  C   UNL     1      32.471 -13.113 -22.407  0.00  0.00    -0.076 C 
ATOM     11  C   UNL     1      34.241 -15.877 -25.028  0.00  0.00    +0.112 C 
ATOM     12  C   UNL     1      34.667 -18.010 -23.221  0.00  0.00    +0.061 C 
ATOM     13  C   UNL     1      33.692 -17.278 -25.342  0.00  0.00    +0.112 C 
ATOM     14  C   UNL     1      35.335 -17.171 -20.560  0.00  0.00    -0.003 C 
ATOM     15  C   UNL     1      35.127 -18.920 -22.260  0.00  0.00    +0.016 C 
ATOM     16  C   UNL     1      35.452 -18.507 -20.950  0.00  0.00    +0.001 C 
ATOM     17  C   UNL     1      34.325 -19.690 -25.007  0.00  0.00    +0.112 C 
ATOM     18  H   UNL     1      33.458 -12.497 -20.728  0.00  0.00    -0.080 HD
ENDROOT
BRANCH   2  19
ATOM     19  C   UNL     1      31.556 -12.966 -20.186  0.00  0.00    -0.077 C 
BRANCH  19  20
ATOM     20  C   UNL     1      31.629 -11.596 -19.510  0.00  0.00    -0.015 C 
BRANCH  20  21
ATOM     21  C   UNL     1      31.215 -10.460 -20.450  0.00  0.00    +0.067 C 
BRANCH  21  23
ATOM     22  O   UNL     1      32.706  -8.947 -19.306  0.00  0.00    -0.291 OA
ATOM     23  C   UNL     1      32.103  -9.229 -20.337  0.00  0.00    +0.173 C 
BRANCH  23  25
ATOM     24  F   UNL     1      32.696  -5.926 -24.845  0.00  0.00    -0.204 F 
ATOM     25  C   UNL     1      32.260  -8.351 -21.533  0.00  0.00    +0.035 C 
ATOM     26  C   UNL     1      33.419  -7.593 -21.694  0.00  0.00    +0.005 C 
ATOM     27  C   UNL     1      31.248  -8.291 -22.492  0.00  0.00    +0.005 C 
ATOM     28  C   UNL     1      33.567  -6.773 -22.813  0.00  0.00    +0.030 C 
ATOM     29  C   UNL     1      31.395  -7.471 -23.610  0.00  0.00    +0.030 C 
ATOM     30  C   UNL     1      32.554  -6.713 -23.771  0.00  0.00    +0.140 C 
ENDBRANCH  23  25
ENDBRANCH  21  23
ENDBRANCH  20  21
ENDBRANCH  19  20
ENDBRANCH   2  19
TORSDOF 5
ENDMDL
