MODEL 1
REMARK VINA RESULT:     -12.7      0.000      0.000
REMARK  Name = 51049992
REMARK  10 active torsions:
REMARK  status: ('A' for Active; 'I' for Inactive)
REMARK    1  A    between atoms: C_1  and  C_7
REMARK    2  A    between atoms: C_6  and  C_23
REMARK    3  A    between atoms: C_7  and  N_8
REMARK    4  A    between atoms: C_23  and  O_24
REMARK    5  A    between atoms: O_24  and  C_25
REMARK    6  A    between atoms: C_26  and  C_31
REMARK    7  A    between atoms: C_31  and  C_32
REMARK    8  A    between atoms: C_31  and  C_35
REMARK    9  A    between atoms: C_35  and  C_37
REMARK   10  A    between atoms: C_37  and  O_38
REMARK                            x       y       z     vdW  Elec       q    Type
REMARK                         _______ _______ _______ _____ _____    ______ ____
ROOT
ATOM      1  C   UNL     1      33.850 -13.910 -23.295  0.00  0.00    -0.043 C 
ATOM      2  C   UNL     1      32.884 -14.110 -22.307  0.00  0.00    -0.007 C 
ATOM      3  C   UNL     1      34.088 -12.626 -23.786  0.00  0.00    -0.007 C 
ATOM      4  C   UNL     1      32.159 -13.027 -21.812  0.00  0.00    -0.001 C 
ATOM      5  C   UNL     1      33.362 -11.543 -23.290  0.00  0.00    -0.001 C 
ATOM      6  C   UNL     1      32.398 -11.744 -22.303  0.00  0.00    +0.021 C 
ENDROOT
BRANCH   1   7
ATOM      7  C   UNL     1      34.632 -15.079 -23.829  0.00  0.00    -0.050 C 
BRANCH   7   8
ATOM      8  N   UNL     1      34.407 -16.291 -23.041  0.00  0.00    +0.390 N 
ATOM      9  C   UNL     1      35.191 -18.662 -21.475  0.00  0.00    +0.033 C 
ATOM     10  C   UNL     1      34.666 -17.369 -20.827  0.00  0.00    -0.015 C 
ATOM     11  C   UNL     1      34.712 -18.747 -22.936  0.00  0.00    -0.015 C 
ATOM     12  C   UNL     1      34.993 -17.458 -23.716  0.00  0.00    -0.076 C 
ATOM     13  C   UNL     1      34.949 -16.131 -21.686  0.00  0.00    -0.076 C 
ATOM     14  C   UNL     1      34.796 -19.890 -20.682  0.00  0.00    -0.019 C 
ATOM     15  C   UNL     1      36.713 -18.764 -21.377  0.00  0.00    -0.023 C 
ATOM     16  C   UNL     1      35.947 -20.550 -20.227  0.00  0.00    -0.004 C 
ATOM     17  C   UNL     1      37.124 -19.830 -20.672  0.00  0.00    -0.005 C 
ATOM     18  C   UNL     1      33.534 -20.381 -20.386  0.00  0.00    -0.004 C 
ATOM     19  C   UNL     1      35.863 -21.708 -19.472  0.00  0.00    -0.000 C 
ATOM     20  C   UNL     1      33.438 -21.549 -19.625  0.00  0.00    -0.000 C 
ATOM     21  C   UNL     1      34.593 -22.207 -19.172  0.00  0.00    -0.000 C 
ATOM     22  H   UNL     1      33.403 -16.448 -22.961  0.00  0.00    -0.079 HD
ENDBRANCH   7   8
ENDBRANCH   1   7
BRANCH   6  23
ATOM     23  C   UNL     1      31.624 -10.586 -21.771  0.00  0.00    +0.232 C 
BRANCH  23  24
ATOM     24  O   UNL     1      32.525  -9.602 -21.277  0.00  0.00    -0.471 OA
BRANCH  24  25
ATOM     25  C   UNL     1      32.468  -8.364 -21.860  0.00  0.00    +0.139 C 
ATOM     26  C   UNL     1      32.352  -5.843 -23.051  0.00  0.00    -0.010 C 
ATOM     27  C   UNL     1      31.263  -7.663 -21.894  0.00  0.00    +0.037 C 
ATOM     28  C   UNL     1      33.616  -7.804 -22.422  0.00  0.00    +0.037 C 
ATOM     29  C   UNL     1      31.204  -6.403 -22.489  0.00  0.00    -0.000 C 
ATOM     30  C   UNL     1      33.557  -6.544 -23.018  0.00  0.00    -0.000 C 
BRANCH  26  31
ATOM     31  C   UNL     1      32.290  -4.496 -23.687  0.00  0.00    +0.097 C 
BRANCH  31  32
ATOM     32  C   UNL     1      32.822  -4.520 -25.078  0.00  0.00    -0.087 C 
ATOM     33  C   UNL     1      33.251  -4.522 -26.200  0.00  0.00    -0.090 C 
ATOM     34  C   UNL     1      33.772  -4.524 -27.566  0.00  0.00    +0.090 C 
ENDBRANCH  31  32
BRANCH  31  35
ATOM     35  C   UNL     1      30.855  -3.903 -23.677  0.00  0.00    +0.127 C 
BRANCH  35  37
ATOM     36  O   UNL     1      29.629  -2.452 -22.146  0.00  0.00    -0.250 OA
ATOM     37  C   UNL     1      30.669  -2.743 -22.718  0.00  0.00    +0.315 C 
BRANCH  37  38
ATOM     38  O   UNL     1      31.827  -2.052 -22.550  0.00  0.00    -0.480 OA
ATOM     39  H   UNL     1      32.095  -1.789 -21.692  0.00  0.00    +0.295 HD
ENDBRANCH  37  38
ENDBRANCH  35  37
ENDBRANCH  31  35
ENDBRANCH  26  31
ENDBRANCH  24  25
ENDBRANCH  23  24
ENDBRANCH   6  23
TORSDOF 10
ENDMDL
MODEL 2
REMARK VINA RESULT:     -12.2      1.477      2.199
REMARK  Name = 51049992
REMARK  10 active torsions:
REMARK  status: ('A' for Active; 'I' for Inactive)
REMARK    1  A    between atoms: C_1  and  C_7
REMARK    2  A    between atoms: C_6  and  C_23
REMARK    3  A    between atoms: C_7  and  N_8
REMARK    4  A    between atoms: C_23  and  O_24
REMARK    5  A    between atoms: O_24  and  C_25
REMARK    6  A    between atoms: C_26  and  C_31
REMARK    7  A    between atoms: C_31  and  C_32
REMARK    8  A    between atoms: C_31  and  C_35
REMARK    9  A    between atoms: C_35  and  C_37
REMARK   10  A    between atoms: C_37  and  O_38
REMARK                            x       y       z     vdW  Elec       q    Type
REMARK                         _______ _______ _______ _____ _____    ______ ____
ROOT
ATOM      1  C   UNL     1      33.769 -13.952 -23.149  0.00  0.00    -0.043 C 
ATOM      2  C   UNL     1      32.933 -14.150 -22.049  0.00  0.00    -0.007 C 
ATOM      3  C   UNL     1      33.848 -12.694 -23.747  0.00  0.00    -0.007 C 
ATOM      4  C   UNL     1      32.176 -13.090 -21.549  0.00  0.00    -0.001 C 
ATOM      5  C   UNL     1      33.091 -11.635 -23.246  0.00  0.00    -0.001 C 
ATOM      6  C   UNL     1      32.256 -11.833 -22.148  0.00  0.00    +0.021 C 
ENDROOT
BRANCH   1   7
ATOM      7  C   UNL     1      34.585 -15.095 -23.688  0.00  0.00    -0.050 C 
BRANCH   7   8
ATOM      8  N   UNL     1      34.371 -16.325 -22.925  0.00  0.00    +0.390 N 
ATOM      9  C   UNL     1      35.176 -18.712 -21.394  0.00  0.00    +0.033 C 
ATOM     10  C   UNL     1      34.624 -17.439 -20.727  0.00  0.00    -0.015 C 
ATOM     11  C   UNL     1      34.713 -18.777 -22.861  0.00  0.00    -0.015 C 
ATOM     12  C   UNL     1      34.982 -17.470 -23.614  0.00  0.00    -0.076 C 
ATOM     13  C   UNL     1      34.897 -16.182 -21.561  0.00  0.00    -0.076 C 
ATOM     14  C   UNL     1      34.791 -19.960 -20.627  0.00  0.00    -0.019 C 
ATOM     15  C   UNL     1      36.697 -18.792 -21.281  0.00  0.00    -0.023 C 
ATOM     16  C   UNL     1      35.948 -20.611 -20.172  0.00  0.00    -0.004 C 
ATOM     17  C   UNL     1      37.118 -19.864 -20.592  0.00  0.00    -0.005 C 
ATOM     18  C   UNL     1      33.534 -20.477 -20.354  0.00  0.00    -0.004 C 
ATOM     19  C   UNL     1      35.874 -21.784 -19.439  0.00  0.00    -0.000 C 
ATOM     20  C   UNL     1      33.449 -21.660 -19.616  0.00  0.00    -0.000 C 
ATOM     21  C   UNL     1      34.608 -22.308 -19.162  0.00  0.00    -0.000 C 
ATOM     22  H   UNL     1      33.369 -16.499 -22.857  0.00  0.00    -0.079 HD
ENDBRANCH   7   8
ENDBRANCH   1   7
BRANCH   6  23
ATOM     23  C   UNL     1      31.449 -10.699 -21.611  0.00  0.00    +0.232 C 
BRANCH  23  24
ATOM     24  O   UNL     1      32.316  -9.628 -21.256  0.00  0.00    -0.471 OA
BRANCH  24  25
ATOM     25  C   UNL     1      32.409  -8.589 -22.143  0.00  0.00    +0.139 C 
ATOM     26  C   UNL     1      32.598  -6.475 -23.953  0.00  0.00    -0.010 C 
ATOM     27  C   UNL     1      31.262  -8.101 -22.769  0.00  0.00    +0.037 C 
ATOM     28  C   UNL     1      33.651  -8.020 -22.424  0.00  0.00    +0.037 C 
ATOM     29  C   UNL     1      31.356  -7.043 -23.673  0.00  0.00    -0.000 C 
ATOM     30  C   UNL     1      33.746  -6.964 -23.329  0.00  0.00    -0.000 C 
BRANCH  26  31
ATOM     31  C   UNL     1      32.701  -5.344 -24.921  0.00  0.00    +0.097 C 
BRANCH  31  32
ATOM     32  C   UNL     1      32.204  -4.070 -24.332  0.00  0.00    -0.087 C 
ATOM     33  C   UNL     1      31.791  -3.051 -23.847  0.00  0.00    -0.090 C 
ATOM     34  C   UNL     1      31.287  -1.812 -23.259  0.00  0.00    +0.090 C 
ENDBRANCH  31  32
BRANCH  31  35
ATOM     35  C   UNL     1      34.146  -5.154 -25.455  0.00  0.00    +0.127 C 
BRANCH  35  37
ATOM     36  O   UNL     1      34.641  -2.992 -26.473  0.00  0.00    -0.250 OA
ATOM     37  C   UNL     1      34.263  -4.149 -26.585  0.00  0.00    +0.315 C 
BRANCH  37  38
ATOM     38  O   UNL     1      33.903  -4.700 -27.774  0.00  0.00    -0.480 OA
ATOM     39  H   UNL     1      33.069  -5.116 -27.864  0.00  0.00    +0.295 HD
ENDBRANCH  37  38
ENDBRANCH  35  37
ENDBRANCH  31  35
ENDBRANCH  26  31
ENDBRANCH  24  25
ENDBRANCH  23  24
ENDBRANCH   6  23
TORSDOF 10
ENDMDL
MODEL 3
REMARK VINA RESULT:     -12.2      4.963      9.296
REMARK  Name = 51049992
REMARK  10 active torsions:
REMARK  status: ('A' for Active; 'I' for Inactive)
REMARK    1  A    between atoms: C_1  and  C_7
REMARK    2  A    between atoms: C_6  and  C_23
REMARK    3  A    between atoms: C_7  and  N_8
REMARK    4  A    between atoms: C_23  and  O_24
REMARK    5  A    between atoms: O_24  and  C_25
REMARK    6  A    between atoms: C_26  and  C_31
REMARK    7  A    between atoms: C_31  and  C_32
REMARK    8  A    between atoms: C_31  and  C_35
REMARK    9  A    between atoms: C_35  and  C_37
REMARK   10  A    between atoms: C_37  and  O_38
REMARK                            x       y       z     vdW  Elec       q    Type
REMARK                         _______ _______ _______ _____ _____    ______ ____
ROOT
ATOM      1  C   UNL     1      33.648 -22.034 -18.832  0.00  0.00    -0.043 C 
ATOM      2  C   UNL     1      32.780 -21.162 -19.490  0.00  0.00    -0.007 C 
ATOM      3  C   UNL     1      35.018 -21.983 -19.096  0.00  0.00    -0.007 C 
ATOM      4  C   UNL     1      33.280 -20.241 -20.410  0.00  0.00    -0.001 C 
ATOM      5  C   UNL     1      35.518 -21.062 -20.015  0.00  0.00    -0.001 C 
ATOM      6  C   UNL     1      34.649 -20.191 -20.672  0.00  0.00    +0.021 C 
ENDROOT
BRANCH   1   7
ATOM      7  C   UNL     1      33.108 -23.028 -17.840  0.00  0.00    -0.050 C 
BRANCH   7   8
ATOM      8  N   UNL     1      33.935 -23.099 -16.635  0.00  0.00    +0.390 N 
ATOM      9  C   UNL     1      35.706 -24.391 -14.664  0.00  0.00    +0.033 C 
ATOM     10  C   UNL     1      36.222 -23.418 -15.740  0.00  0.00    -0.015 C 
ATOM     11  C   UNL     1      34.210 -24.137 -14.403  0.00  0.00    -0.015 C 
ATOM     12  C   UNL     1      33.393 -24.093 -15.699  0.00  0.00    -0.076 C 
ATOM     13  C   UNL     1      35.329 -23.401 -16.986  0.00  0.00    -0.076 C 
ATOM     14  C   UNL     1      36.522 -24.305 -13.391  0.00  0.00    -0.019 C 
ATOM     15  C   UNL     1      35.970 -25.846 -15.049  0.00  0.00    -0.023 C 
ATOM     16  C   UNL     1      37.131 -25.543 -13.137  0.00  0.00    -0.004 C 
ATOM     17  C   UNL     1      36.772 -26.482 -14.181  0.00  0.00    -0.005 C 
ATOM     18  C   UNL     1      36.710 -23.233 -12.533  0.00  0.00    -0.004 C 
ATOM     19  C   UNL     1      37.938 -25.734 -12.026  0.00  0.00    -0.000 C 
ATOM     20  C   UNL     1      37.521 -23.415 -11.411  0.00  0.00    -0.000 C 
ATOM     21  C   UNL     1      38.130 -24.655 -11.159  0.00  0.00    -0.000 C 
ATOM     22  H   UNL     1      33.918 -22.192 -16.171  0.00  0.00    -0.079 HD
ENDBRANCH   7   8
ENDBRANCH   1   7
BRANCH   6  23
ATOM     23  C   UNL     1      35.184 -19.203 -21.653  0.00  0.00    +0.232 C 
BRANCH  23  24
ATOM     24  O   UNL     1      35.534 -18.003 -20.974  0.00  0.00    -0.471 OA
BRANCH  24  25
ATOM     25  C   UNL     1      34.941 -16.850 -21.414  0.00  0.00    +0.139 C 
ATOM     26  C   UNL     1      33.736 -14.499 -22.311  0.00  0.00    -0.010 C 
ATOM     27  C   UNL     1      35.074 -16.461 -22.748  0.00  0.00    +0.037 C 
ATOM     28  C   UNL     1      34.205 -16.061 -20.529  0.00  0.00    +0.037 C 
ATOM     29  C   UNL     1      34.471 -15.286 -23.196  0.00  0.00    -0.000 C 
ATOM     30  C   UNL     1      33.603 -14.885 -20.978  0.00  0.00    -0.000 C 
BRANCH  26  31
ATOM     31  C   UNL     1      33.091 -13.241 -22.790  0.00  0.00    +0.097 C 
BRANCH  31  32
ATOM     32  C   UNL     1      32.197 -12.654 -21.755  0.00  0.00    -0.087 C 
ATOM     33  C   UNL     1      31.475 -12.164 -20.928  0.00  0.00    -0.090 C 
ATOM     34  C   UNL     1      30.600 -11.567 -19.921  0.00  0.00    +0.090 C 
ENDBRANCH  31  32
BRANCH  31  35
ATOM     35  C   UNL     1      34.130 -12.186 -23.256  0.00  0.00    +0.127 C 
BRANCH  35  37
ATOM     36  O   UNL     1      33.593 -12.675 -25.586  0.00  0.00    -0.250 OA
ATOM     37  C   UNL     1      34.216 -12.022 -24.761  0.00  0.00    +0.315 C 
BRANCH  37  38
ATOM     38  O   UNL     1      35.078 -11.027 -25.101  0.00  0.00    -0.480 OA
ATOM     39  H   UNL     1      34.790 -10.324 -25.647  0.00  0.00    +0.295 HD
ENDBRANCH  37  38
ENDBRANCH  35  37
ENDBRANCH  31  35
ENDBRANCH  26  31
ENDBRANCH  24  25
ENDBRANCH  23  24
ENDBRANCH   6  23
TORSDOF 10
ENDMDL
MODEL 4
REMARK VINA RESULT:     -12.0      4.037     13.869
REMARK  Name = 51049992
REMARK  10 active torsions:
REMARK  status: ('A' for Active; 'I' for Inactive)
REMARK    1  A    between atoms: C_1  and  C_7
REMARK    2  A    between atoms: C_6  and  C_23
REMARK    3  A    between atoms: C_7  and  N_8
REMARK    4  A    between atoms: C_23  and  O_24
REMARK    5  A    between atoms: O_24  and  C_25
REMARK    6  A    between atoms: C_26  and  C_31
REMARK    7  A    between atoms: C_31  and  C_32
REMARK    8  A    between atoms: C_31  and  C_35
REMARK    9  A    between atoms: C_35  and  C_37
REMARK   10  A    between atoms: C_37  and  O_38
REMARK                            x       y       z     vdW  Elec       q    Type
REMARK                         _______ _______ _______ _____ _____    ______ ____
ROOT
ATOM      1  C   UNL     1      32.525 -12.703 -21.417  0.00  0.00    -0.043 C 
ATOM      2  C   UNL     1      33.058 -12.700 -22.707  0.00  0.00    -0.007 C 
ATOM      3  C   UNL     1      32.637 -13.843 -20.620  0.00  0.00    -0.007 C 
ATOM      4  C   UNL     1      33.703 -13.835 -23.198  0.00  0.00    -0.001 C 
ATOM      5  C   UNL     1      33.282 -14.977 -21.111  0.00  0.00    -0.001 C 
ATOM      6  C   UNL     1      33.815 -14.973 -22.400  0.00  0.00    +0.021 C 
ENDROOT
BRANCH   1   7
ATOM      7  C   UNL     1      31.829 -11.478 -20.888  0.00  0.00    -0.050 C 
BRANCH   7   8
ATOM      8  N   UNL     1      32.127 -10.292 -21.692  0.00  0.00    +0.390 N 
ATOM      9  C   UNL     1      31.893  -7.468 -22.504  0.00  0.00    +0.033 C 
ATOM     10  C   UNL     1      33.085  -8.009 -21.692  0.00  0.00    -0.015 C 
ATOM     11  C   UNL     1      31.223  -8.619 -23.277  0.00  0.00    -0.015 C 
ATOM     12  C   UNL     1      30.917  -9.822 -22.380  0.00  0.00    -0.076 C 
ATOM     13  C   UNL     1      32.708  -9.236 -20.854  0.00  0.00    -0.076 C 
ATOM     14  C   UNL     1      32.306  -6.337 -23.423  0.00  0.00    -0.019 C 
ATOM     15  C   UNL     1      30.893  -6.733 -21.613  0.00  0.00    -0.023 C 
ATOM     16  C   UNL     1      31.619  -5.166 -23.069  0.00  0.00    -0.004 C 
ATOM     17  C   UNL     1      30.748  -5.440 -21.942  0.00  0.00    -0.005 C 
ATOM     18  C   UNL     1      33.206  -6.340 -24.476  0.00  0.00    -0.004 C 
ATOM     19  C   UNL     1      31.816  -3.980 -23.756  0.00  0.00    -0.000 C 
ATOM     20  C   UNL     1      33.412  -5.148 -25.176  0.00  0.00    -0.000 C 
ATOM     21  C   UNL     1      32.723  -3.978 -24.819  0.00  0.00    -0.000 C 
ATOM     22  H   UNL     1      32.814 -10.542 -22.402  0.00  0.00    -0.079 HD
ENDBRANCH   7   8
ENDBRANCH   1   7
BRANCH   6  23
ATOM     23  C   UNL     1      34.507 -16.186 -22.924  0.00  0.00    +0.232 C 
BRANCH  23  24
ATOM     24  O   UNL     1      35.546 -16.562 -22.027  0.00  0.00    -0.471 OA
BRANCH  24  25
ATOM     25  C   UNL     1      35.468 -17.816 -21.483  0.00  0.00    +0.139 C 
ATOM     26  C   UNL     1      35.308 -20.373 -20.378  0.00  0.00    -0.010 C 
ATOM     27  C   UNL     1      36.633 -18.521 -21.182  0.00  0.00    +0.037 C 
ATOM     28  C   UNL     1      34.222 -18.391 -21.232  0.00  0.00    +0.037 C 
ATOM     29  C   UNL     1      36.553 -19.799 -20.629  0.00  0.00    -0.000 C 
ATOM     30  C   UNL     1      34.142 -19.670 -20.680  0.00  0.00    -0.000 C 
BRANCH  26  31
ATOM     31  C   UNL     1      35.221 -21.740 -19.787  0.00  0.00    +0.097 C 
BRANCH  31  32
ATOM     32  C   UNL     1      36.118 -21.886 -18.608  0.00  0.00    -0.087 C 
ATOM     33  C   UNL     1      36.831 -22.016 -17.649  0.00  0.00    -0.090 C 
ATOM     34  C   UNL     1      37.697 -22.173 -16.482  0.00  0.00    +0.090 C 
ENDBRANCH  31  32
BRANCH  31  35
ATOM     35  C   UNL     1      33.767 -22.124 -19.399  0.00  0.00    +0.127 C 
BRANCH  35  37
ATOM     36  O   UNL     1      33.348 -23.359 -17.336  0.00  0.00    -0.250 OA
ATOM     37  C   UNL     1      33.664 -23.353 -18.517  0.00  0.00    +0.315 C 
BRANCH  37  38
ATOM     38  O   UNL     1      33.958 -24.484 -19.211  0.00  0.00    -0.480 OA
ATOM     39  H   UNL     1      34.594 -25.085 -18.880  0.00  0.00    +0.295 HD
ENDBRANCH  37  38
ENDBRANCH  35  37
ENDBRANCH  31  35
ENDBRANCH  26  31
ENDBRANCH  24  25
ENDBRANCH  23  24
ENDBRANCH   6  23
TORSDOF 10
ENDMDL
MODEL 5
REMARK VINA RESULT:     -11.8      6.062     14.492
REMARK  Name = 51049992
REMARK  10 active torsions:
REMARK  status: ('A' for Active; 'I' for Inactive)
REMARK    1  A    between atoms: C_1  and  C_7
REMARK    2  A    between atoms: C_6  and  C_23
REMARK    3  A    between atoms: C_7  and  N_8
REMARK    4  A    between atoms: C_23  and  O_24
REMARK    5  A    between atoms: O_24  and  C_25
REMARK    6  A    between atoms: C_26  and  C_31
REMARK    7  A    between atoms: C_31  and  C_32
REMARK    8  A    between atoms: C_31  and  C_35
REMARK    9  A    between atoms: C_35  and  C_37
REMARK   10  A    between atoms: C_37  and  O_38
REMARK                            x       y       z     vdW  Elec       q    Type
REMARK                         _______ _______ _______ _____ _____    ______ ____
ROOT
ATOM      1  C   UNL     1      35.353 -18.362 -22.760  0.00  0.00    -0.043 C 
ATOM      2  C   UNL     1      34.391 -19.257 -22.291  0.00  0.00    -0.007 C 
ATOM      3  C   UNL     1      36.634 -18.364 -22.207  0.00  0.00    -0.007 C 
ATOM      4  C   UNL     1      34.709 -20.152 -21.271  0.00  0.00    -0.001 C 
ATOM      5  C   UNL     1      36.952 -19.259 -21.186  0.00  0.00    -0.001 C 
ATOM      6  C   UNL     1      35.990 -20.153 -20.718  0.00  0.00    +0.021 C 
ENDROOT
BRANCH   1   7
ATOM      7  C   UNL     1      35.009 -17.396 -23.862  0.00  0.00    -0.050 C 
BRANCH   7   8
ATOM      8  N   UNL     1      34.264 -16.241 -23.360  0.00  0.00    +0.390 N 
ATOM      9  C   UNL     1      33.553 -13.389 -23.146  0.00  0.00    +0.033 C 
ATOM     10  C   UNL     1      32.708 -14.403 -23.938  0.00  0.00    -0.015 C 
ATOM     11  C   UNL     1      34.393 -14.123 -22.084  0.00  0.00    -0.015 C 
ATOM     12  C   UNL     1      35.166 -15.307 -22.672  0.00  0.00    -0.076 C 
ATOM     13  C   UNL     1      33.545 -15.578 -24.456  0.00  0.00    -0.076 C 
ATOM     14  C   UNL     1      32.696 -12.301 -22.532  0.00  0.00    -0.019 C 
ATOM     15  C   UNL     1      34.429 -12.544 -24.069  0.00  0.00    -0.023 C 
ATOM     16  C   UNL     1      33.068 -11.054 -23.057  0.00  0.00    -0.004 C 
ATOM     17  C   UNL     1      34.146 -11.233 -24.010  0.00  0.00    -0.005 C 
ATOM     18  C   UNL     1      31.680 -12.400 -21.595  0.00  0.00    -0.004 C 
ATOM     19  C   UNL     1      32.436  -9.887 -22.659  0.00  0.00    -0.000 C 
ATOM     20  C   UNL     1      31.036 -11.230 -21.187  0.00  0.00    -0.000 C 
ATOM     21  C   UNL     1      31.411  -9.983 -21.715  0.00  0.00    -0.000 C 
ATOM     22  H   UNL     1      33.573 -16.565 -22.684  0.00  0.00    -0.079 HD
ENDBRANCH   7   8
ENDBRANCH   1   7
BRANCH   6  23
ATOM     23  C   UNL     1      36.331 -21.113 -19.629  0.00  0.00    +0.232 C 
BRANCH  23  24
ATOM     24  O   UNL     1      35.386 -22.176 -19.622  0.00  0.00    -0.471 OA
BRANCH  24  25
ATOM     25  C   UNL     1      34.905 -22.567 -18.401  0.00  0.00    +0.139 C 
ATOM     26  C   UNL     1      33.927 -23.366 -15.913  0.00  0.00    -0.010 C 
ATOM     27  C   UNL     1      35.771 -22.677 -17.312  0.00  0.00    +0.037 C 
ATOM     28  C   UNL     1      33.550 -22.857 -18.244  0.00  0.00    +0.037 C 
ATOM     29  C   UNL     1      35.282 -23.076 -16.068  0.00  0.00    -0.000 C 
ATOM     30  C   UNL     1      33.060 -23.257 -17.001  0.00  0.00    -0.000 C 
BRANCH  26  31
ATOM     31  C   UNL     1      33.402 -23.793 -14.583  0.00  0.00    +0.097 C 
BRANCH  31  32
ATOM     32  C   UNL     1      31.965 -24.173 -14.656  0.00  0.00    -0.087 C 
ATOM     33  C   UNL     1      30.808 -24.496 -14.707  0.00  0.00    -0.090 C 
ATOM     34  C   UNL     1      29.403 -24.891 -14.771  0.00  0.00    +0.090 C 
ENDBRANCH  31  32
BRANCH  31  35
ATOM     35  C   UNL     1      34.229 -24.954 -13.968  0.00  0.00    +0.127 C 
BRANCH  35  37
ATOM     36  O   UNL     1      35.825 -23.693 -12.619  0.00  0.00    -0.250 OA
ATOM     37  C   UNL     1      34.986 -24.578 -12.709  0.00  0.00    +0.315 C 
BRANCH  37  38
ATOM     38  O   UNL     1      34.605 -25.348 -11.656  0.00  0.00    -0.480 OA
ATOM     39  H   UNL     1      35.244 -25.836 -11.177  0.00  0.00    +0.295 HD
ENDBRANCH  37  38
ENDBRANCH  35  37
ENDBRANCH  31  35
ENDBRANCH  26  31
ENDBRANCH  24  25
ENDBRANCH  23  24
ENDBRANCH   6  23
TORSDOF 10
ENDMDL
MODEL 6
REMARK VINA RESULT:     -11.7      4.796      9.305
REMARK  Name = 51049992
REMARK  10 active torsions:
REMARK  status: ('A' for Active; 'I' for Inactive)
REMARK    1  A    between atoms: C_1  and  C_7
REMARK    2  A    between atoms: C_6  and  C_23
REMARK    3  A    between atoms: C_7  and  N_8
REMARK    4  A    between atoms: C_23  and  O_24
REMARK    5  A    between atoms: O_24  and  C_25
REMARK    6  A    between atoms: C_26  and  C_31
REMARK    7  A    between atoms: C_31  and  C_32
REMARK    8  A    between atoms: C_31  and  C_35
REMARK    9  A    between atoms: C_35  and  C_37
REMARK   10  A    between atoms: C_37  and  O_38
REMARK                            x       y       z     vdW  Elec       q    Type
REMARK                         _______ _______ _______ _____ _____    ______ ____
ROOT
ATOM      1  C   UNL     1      33.578 -22.149 -18.666  0.00  0.00    -0.043 C 
ATOM      2  C   UNL     1      32.771 -21.248 -19.361  0.00  0.00    -0.007 C 
ATOM      3  C   UNL     1      34.944 -22.218 -18.943  0.00  0.00    -0.007 C 
ATOM      4  C   UNL     1      33.329 -20.417 -20.332  0.00  0.00    -0.001 C 
ATOM      5  C   UNL     1      35.502 -21.386 -19.914  0.00  0.00    -0.001 C 
ATOM      6  C   UNL     1      34.694 -20.486 -20.608  0.00  0.00    +0.021 C 
ENDROOT
BRANCH   1   7
ATOM      7  C   UNL     1      32.975 -23.046 -17.619  0.00  0.00    -0.050 C 
BRANCH   7   8
ATOM      8  N   UNL     1      33.821 -23.139 -16.429  0.00  0.00    +0.390 N 
ATOM      9  C   UNL     1      35.655 -24.453 -14.532  0.00  0.00    +0.033 C 
ATOM     10  C   UNL     1      36.129 -23.428 -15.577  0.00  0.00    -0.015 C 
ATOM     11  C   UNL     1      34.157 -24.250 -14.241  0.00  0.00    -0.015 C 
ATOM     12  C   UNL     1      33.320 -24.181 -15.523  0.00  0.00    -0.076 C 
ATOM     13  C   UNL     1      35.217 -23.391 -16.809  0.00  0.00    -0.076 C 
ATOM     14  C   UNL     1      36.486 -24.392 -13.267  0.00  0.00    -0.019 C 
ATOM     15  C   UNL     1      35.952 -25.886 -14.973  0.00  0.00    -0.023 C 
ATOM     16  C   UNL     1      37.133 -25.622 -13.067  0.00  0.00    -0.004 C 
ATOM     17  C   UNL     1      36.783 -26.531 -14.141  0.00  0.00    -0.005 C 
ATOM     18  C   UNL     1      36.659 -23.348 -12.373  0.00  0.00    -0.004 C 
ATOM     19  C   UNL     1      37.960 -25.831 -11.976  0.00  0.00    -0.000 C 
ATOM     20  C   UNL     1      37.491 -23.549 -11.269  0.00  0.00    -0.000 C 
ATOM     21  C   UNL     1      38.136 -24.780 -11.072  0.00  0.00    -0.000 C 
ATOM     22  H   UNL     1      33.788 -22.250 -15.932  0.00  0.00    -0.079 HD
ENDBRANCH   7   8
ENDBRANCH   1   7
BRANCH   6  23
ATOM     23  C   UNL     1      35.292 -19.594 -21.643  0.00  0.00    +0.232 C 
BRANCH  23  24
ATOM     24  O   UNL     1      35.800 -18.420 -21.021  0.00  0.00    -0.471 OA
BRANCH  24  25
ATOM     25  C   UNL     1      35.251 -17.227 -21.411  0.00  0.00    +0.139 C 
ATOM     26  C   UNL     1      34.131 -14.800 -22.208  0.00  0.00    -0.010 C 
ATOM     27  C   UNL     1      34.605 -16.417 -20.478  0.00  0.00    +0.037 C 
ATOM     28  C   UNL     1      35.337 -16.823 -22.744  0.00  0.00    +0.037 C 
ATOM     29  C   UNL     1      34.045 -15.203 -20.876  0.00  0.00    -0.000 C 
ATOM     30  C   UNL     1      34.776 -15.610 -23.142  0.00  0.00    -0.000 C 
BRANCH  26  31
ATOM     31  C   UNL     1      33.532 -13.502 -22.635  0.00  0.00    +0.097 C 
BRANCH  31  32
ATOM     32  C   UNL     1      33.477 -13.383 -24.118  0.00  0.00    -0.087 C 
ATOM     33  C   UNL     1      33.435 -13.305 -25.316  0.00  0.00    -0.090 C 
ATOM     34  C   UNL     1      33.386 -13.210 -26.774  0.00  0.00    +0.090 C 
ENDBRANCH  31  32
BRANCH  31  35
ATOM     35  C   UNL     1      32.120 -13.276 -22.030  0.00  0.00    +0.127 C 
BRANCH  35  37
ATOM     36  O   UNL     1      32.448 -10.860 -22.149  0.00  0.00    -0.250 OA
ATOM     37  C   UNL     1      31.757 -11.818 -21.829  0.00  0.00    +0.315 C 
BRANCH  37  38
ATOM     38  O   UNL     1      30.535 -11.689 -21.247  0.00  0.00    -0.480 OA
ATOM     39  H   UNL     1      30.465 -11.364 -20.372  0.00  0.00    +0.295 HD
ENDBRANCH  37  38
ENDBRANCH  35  37
ENDBRANCH  31  35
ENDBRANCH  26  31
ENDBRANCH  24  25
ENDBRANCH  23  24
ENDBRANCH   6  23
TORSDOF 10
ENDMDL
MODEL 7
REMARK VINA RESULT:     -11.6      4.906     13.840
REMARK  Name = 51049992
REMARK  10 active torsions:
REMARK  status: ('A' for Active; 'I' for Inactive)
REMARK    1  A    between atoms: C_1  and  C_7
REMARK    2  A    between atoms: C_6  and  C_23
REMARK    3  A    between atoms: C_7  and  N_8
REMARK    4  A    between atoms: C_23  and  O_24
REMARK    5  A    between atoms: O_24  and  C_25
REMARK    6  A    between atoms: C_26  and  C_31
REMARK    7  A    between atoms: C_31  and  C_32
REMARK    8  A    between atoms: C_31  and  C_35
REMARK    9  A    between atoms: C_35  and  C_37
REMARK   10  A    between atoms: C_37  and  O_38
REMARK                            x       y       z     vdW  Elec       q    Type
REMARK                         _______ _______ _______ _____ _____    ______ ____
ROOT
ATOM      1  C   UNL     1      34.087 -14.701 -23.270  0.00  0.00    -0.043 C 
ATOM      2  C   UNL     1      34.131 -14.641 -21.876  0.00  0.00    -0.007 C 
ATOM      3  C   UNL     1      34.510 -15.854 -23.931  0.00  0.00    -0.007 C 
ATOM      4  C   UNL     1      34.597 -15.733 -21.145  0.00  0.00    -0.001 C 
ATOM      5  C   UNL     1      34.976 -16.947 -23.200  0.00  0.00    -0.001 C 
ATOM      6  C   UNL     1      35.020 -16.886 -21.807  0.00  0.00    +0.021 C 
ENDROOT
BRANCH   1   7
ATOM      7  C   UNL     1      33.584 -13.522 -24.058  0.00  0.00    -0.050 C 
BRANCH   7   8
ATOM      8  N   UNL     1      33.472 -12.321 -23.229  0.00  0.00    +0.390 N 
ATOM      9  C   UNL     1      32.455  -9.657 -22.482  0.00  0.00    +0.033 C 
ATOM     10  C   UNL     1      31.983 -10.953 -21.799  0.00  0.00    -0.015 C 
ATOM     11  C   UNL     1      33.841  -9.874 -23.116  0.00  0.00    -0.015 C 
ATOM     12  C   UNL     1      33.890 -11.134 -23.988  0.00  0.00    -0.076 C 
ATOM     13  C   UNL     1      32.103 -12.173 -22.720  0.00  0.00    -0.076 C 
ATOM     14  C   UNL     1      32.452  -8.484 -21.524  0.00  0.00    -0.019 C 
ATOM     15  C   UNL     1      31.439  -9.160 -23.509  0.00  0.00    -0.023 C 
ATOM     16  C   UNL     1      31.560  -7.502 -21.981  0.00  0.00    -0.004 C 
ATOM     17  C   UNL     1      30.944  -7.948 -23.216  0.00  0.00    -0.005 C 
ATOM     18  C   UNL     1      33.172  -8.297 -20.354  0.00  0.00    -0.004 C 
ATOM     19  C   UNL     1      31.368  -6.321 -21.283  0.00  0.00    -0.000 C 
ATOM     20  C   UNL     1      32.986  -7.109 -19.643  0.00  0.00    -0.000 C 
ATOM     21  C   UNL     1      32.092  -6.130 -20.103  0.00  0.00    -0.000 C 
ATOM     22  H   UNL     1      34.096 -12.415 -22.428  0.00  0.00    -0.079 HD
ENDBRANCH   7   8
ENDBRANCH   1   7
BRANCH   6  23
ATOM     23  C   UNL     1      35.515 -18.055 -21.026  0.00  0.00    +0.232 C 
BRANCH  23  24
ATOM     24  O   UNL     1      34.924 -19.247 -21.531  0.00  0.00    -0.471 OA
BRANCH  24  25
ATOM     25  C   UNL     1      34.547 -20.188 -20.610  0.00  0.00    +0.139 C 
ATOM     26  C   UNL     1      33.780 -22.102 -18.731  0.00  0.00    -0.010 C 
ATOM     27  C   UNL     1      33.199 -20.351 -20.290  0.00  0.00    +0.037 C 
ATOM     28  C   UNL     1      35.512 -20.982 -19.990  0.00  0.00    +0.037 C 
ATOM     29  C   UNL     1      32.816 -21.308 -19.351  0.00  0.00    -0.000 C 
ATOM     30  C   UNL     1      35.128 -21.939 -19.050  0.00  0.00    -0.000 C 
BRANCH  26  31
ATOM     31  C   UNL     1      33.370 -23.126 -17.727  0.00  0.00    +0.097 C 
BRANCH  31  32
ATOM     32  C   UNL     1      34.398 -23.293 -16.662  0.00  0.00    -0.087 C 
ATOM     33  C   UNL     1      35.232 -23.412 -15.805  0.00  0.00    -0.090 C 
ATOM     34  C   UNL     1      36.248 -23.555 -14.765  0.00  0.00    +0.090 C 
ENDBRANCH  31  32
BRANCH  31  35
ATOM     35  C   UNL     1      31.991 -22.808 -17.088  0.00  0.00    +0.127 C 
BRANCH  35  37
ATOM     36  O   UNL     1      31.375 -24.755 -15.752  0.00  0.00    -0.250 OA
ATOM     37  C   UNL     1      31.704 -23.579 -15.814  0.00  0.00    +0.315 C 
BRANCH  37  38
ATOM     38  O   UNL     1      31.873 -22.797 -14.716  0.00  0.00    -0.480 OA
ATOM     39  H   UNL     1      32.665 -22.849 -14.220  0.00  0.00    +0.295 HD
ENDBRANCH  37  38
ENDBRANCH  35  37
ENDBRANCH  31  35
ENDBRANCH  26  31
ENDBRANCH  24  25
ENDBRANCH  23  24
ENDBRANCH   6  23
TORSDOF 10
ENDMDL
MODEL 8
REMARK VINA RESULT:     -11.6      5.975     15.082
REMARK  Name = 51049992
REMARK  10 active torsions:
REMARK  status: ('A' for Active; 'I' for Inactive)
REMARK    1  A    between atoms: C_1  and  C_7
REMARK    2  A    between atoms: C_6  and  C_23
REMARK    3  A    between atoms: C_7  and  N_8
REMARK    4  A    between atoms: C_23  and  O_24
REMARK    5  A    between atoms: O_24  and  C_25
REMARK    6  A    between atoms: C_26  and  C_31
REMARK    7  A    between atoms: C_31  and  C_32
REMARK    8  A    between atoms: C_31  and  C_35
REMARK    9  A    between atoms: C_35  and  C_37
REMARK   10  A    between atoms: C_37  and  O_38
REMARK                            x       y       z     vdW  Elec       q    Type
REMARK                         _______ _______ _______ _____ _____    ______ ____
ROOT
ATOM      1  C   UNL     1      35.298 -18.479 -22.490  0.00  0.00    -0.043 C 
ATOM      2  C   UNL     1      34.171 -19.244 -22.189  0.00  0.00    -0.007 C 
ATOM      3  C   UNL     1      36.503 -18.724 -21.831  0.00  0.00    -0.007 C 
ATOM      4  C   UNL     1      34.250 -20.254 -21.230  0.00  0.00    -0.001 C 
ATOM      5  C   UNL     1      36.582 -19.734 -20.873  0.00  0.00    -0.001 C 
ATOM      6  C   UNL     1      35.455 -20.499 -20.572  0.00  0.00    +0.021 C 
ENDROOT
BRANCH   1   7
ATOM      7  C   UNL     1      35.213 -17.389 -23.525  0.00  0.00    -0.050 C 
BRANCH   7   8
ATOM      8  N   UNL     1      34.402 -16.262 -23.063  0.00  0.00    +0.390 N 
ATOM      9  C   UNL     1      33.557 -13.442 -22.916  0.00  0.00    +0.033 C 
ATOM     10  C   UNL     1      32.781 -14.506 -23.713  0.00  0.00    -0.015 C 
ATOM     11  C   UNL     1      34.401 -14.120 -21.821  0.00  0.00    -0.015 C 
ATOM     12  C   UNL     1      35.242 -15.277 -22.368  0.00  0.00    -0.076 C 
ATOM     13  C   UNL     1      33.685 -15.650 -24.188  0.00  0.00    -0.076 C 
ATOM     14  C   UNL     1      32.636 -12.385 -22.344  0.00  0.00    -0.019 C 
ATOM     15  C   UNL     1      34.420 -12.573 -23.831  0.00  0.00    -0.023 C 
ATOM     16  C   UNL     1      32.965 -11.131 -22.881  0.00  0.00    -0.004 C 
ATOM     17  C   UNL     1      34.076 -11.276 -23.801  0.00  0.00    -0.005 C 
ATOM     18  C   UNL     1      31.600 -12.516 -21.433  0.00  0.00    -0.004 C 
ATOM     19  C   UNL     1      32.270  -9.988 -22.520  0.00  0.00    -0.000 C 
ATOM     20  C   UNL     1      30.893 -11.369 -21.062  0.00  0.00    -0.000 C 
ATOM     21  C   UNL     1      31.225 -10.116 -21.601  0.00  0.00    -0.000 C 
ATOM     22  H   UNL     1      33.709 -16.606 -22.399  0.00  0.00    -0.079 HD
ENDBRANCH   7   8
ENDBRANCH   1   7
BRANCH   6  23
ATOM     23  C   UNL     1      35.540 -21.580 -19.549  0.00  0.00    +0.232 C 
BRANCH  23  24
ATOM     24  O   UNL     1      36.457 -21.197 -18.530  0.00  0.00    -0.471 OA
BRANCH  24  25
ATOM     25  C   UNL     1      36.536 -22.013 -17.433  0.00  0.00    +0.139 C 
ATOM     26  C   UNL     1      36.698 -23.676 -15.199  0.00  0.00    -0.010 C 
ATOM     27  C   UNL     1      37.735 -22.120 -16.728  0.00  0.00    +0.037 C 
ATOM     28  C   UNL     1      35.418 -22.737 -17.020  0.00  0.00    +0.037 C 
ATOM     29  C   UNL     1      37.816 -22.952 -15.611  0.00  0.00    -0.000 C 
ATOM     30  C   UNL     1      35.499 -23.569 -15.903  0.00  0.00    -0.000 C 
BRANCH  26  31
ATOM     31  C   UNL     1      36.783 -24.565 -14.004  0.00  0.00    +0.097 C 
BRANCH  31  32
ATOM     32  C   UNL     1      38.105 -25.246 -13.919  0.00  0.00    -0.087 C 
ATOM     33  C   UNL     1      39.178 -25.785 -13.863  0.00  0.00    -0.090 C 
ATOM     34  C   UNL     1      40.481 -26.441 -13.797  0.00  0.00    +0.090 C 
ENDBRANCH  31  32
BRANCH  31  35
ATOM     35  C   UNL     1      36.490 -23.806 -12.682  0.00  0.00    +0.127 C 
BRANCH  35  37
ATOM     36  O   UNL     1      37.257 -24.554 -10.489  0.00  0.00    -0.250 OA
ATOM     37  C   UNL     1      36.507 -24.685 -11.446  0.00  0.00    +0.315 C 
BRANCH  37  38
ATOM     38  O   UNL     1      35.557 -25.654 -11.516  0.00  0.00    -0.480 OA
ATOM     39  H   UNL     1      34.693 -25.443 -11.809  0.00  0.00    +0.295 HD
ENDBRANCH  37  38
ENDBRANCH  35  37
ENDBRANCH  31  35
ENDBRANCH  26  31
ENDBRANCH  24  25
ENDBRANCH  23  24
ENDBRANCH   6  23
TORSDOF 10
ENDMDL
MODEL 9
REMARK VINA RESULT:     -11.4      5.948     14.456
REMARK  Name = 51049992
REMARK  10 active torsions:
REMARK  status: ('A' for Active; 'I' for Inactive)
REMARK    1  A    between atoms: C_1  and  C_7
REMARK    2  A    between atoms: C_6  and  C_23
REMARK    3  A    between atoms: C_7  and  N_8
REMARK    4  A    between atoms: C_23  and  O_24
REMARK    5  A    between atoms: O_24  and  C_25
REMARK    6  A    between atoms: C_26  and  C_31
REMARK    7  A    between atoms: C_31  and  C_32
REMARK    8  A    between atoms: C_31  and  C_35
REMARK    9  A    between atoms: C_35  and  C_37
REMARK   10  A    between atoms: C_37  and  O_38
REMARK                            x       y       z     vdW  Elec       q    Type
REMARK                         _______ _______ _______ _____ _____    ______ ____
ROOT
ATOM      1  C   UNL     1      35.241 -18.233 -22.911  0.00  0.00    -0.043 C 
ATOM      2  C   UNL     1      34.324 -19.249 -22.639  0.00  0.00    -0.007 C 
ATOM      3  C   UNL     1      36.426 -18.150 -22.178  0.00  0.00    -0.007 C 
ATOM      4  C   UNL     1      34.592 -20.180 -21.635  0.00  0.00    -0.001 C 
ATOM      5  C   UNL     1      36.693 -19.081 -21.175  0.00  0.00    -0.001 C 
ATOM      6  C   UNL     1      35.776 -20.096 -20.904  0.00  0.00    +0.021 C 
ENDROOT
BRANCH   1   7
ATOM      7  C   UNL     1      34.952 -17.229 -23.993  0.00  0.00    -0.050 C 
BRANCH   7   8
ATOM      8  N   UNL     1      34.232 -16.064 -23.477  0.00  0.00    +0.390 N 
ATOM      9  C   UNL     1      33.587 -13.198 -23.226  0.00  0.00    +0.033 C 
ATOM     10  C   UNL     1      32.720 -14.183 -24.031  0.00  0.00    -0.015 C 
ATOM     11  C   UNL     1      34.408 -13.965 -22.173  0.00  0.00    -0.015 C 
ATOM     12  C   UNL     1      35.155 -15.160 -22.776  0.00  0.00    -0.076 C 
ATOM     13  C   UNL     1      33.530 -15.370 -24.564  0.00  0.00    -0.076 C 
ATOM     14  C   UNL     1      32.755 -12.099 -22.598  0.00  0.00    -0.019 C 
ATOM     15  C   UNL     1      34.483 -12.362 -24.137  0.00  0.00    -0.023 C 
ATOM     16  C   UNL     1      33.156 -10.855 -23.107  0.00  0.00    -0.004 C 
ATOM     17  C   UNL     1      34.230 -11.046 -24.061  0.00  0.00    -0.005 C 
ATOM     18  C   UNL     1      31.735 -12.188 -21.664  0.00  0.00    -0.004 C 
ATOM     19  C   UNL     1      32.550  -9.679 -22.694  0.00  0.00    -0.000 C 
ATOM     20  C   UNL     1      31.118 -11.008 -21.241  0.00  0.00    -0.000 C 
ATOM     21  C   UNL     1      31.522  -9.764 -21.752  0.00  0.00    -0.000 C 
ATOM     22  H   UNL     1      33.534 -16.380 -22.805  0.00  0.00    -0.079 HD
ENDBRANCH   7   8
ENDBRANCH   1   7
BRANCH   6  23
ATOM     23  C   UNL     1      36.064 -21.093 -19.833  0.00  0.00    +0.232 C 
BRANCH  23  24
ATOM     24  O   UNL     1      34.954 -21.974 -19.696  0.00  0.00    -0.471 OA
BRANCH  24  25
ATOM     25  C   UNL     1      34.743 -22.512 -18.455  0.00  0.00    +0.139 C 
ATOM     26  C   UNL     1      34.311 -23.605 -15.925  0.00  0.00    -0.010 C 
ATOM     27  C   UNL     1      33.523 -23.119 -18.156  0.00  0.00    +0.037 C 
ATOM     28  C   UNL     1      35.746 -22.451 -17.488  0.00  0.00    +0.037 C 
ATOM     29  C   UNL     1      33.307 -23.667 -16.891  0.00  0.00    -0.000 C 
ATOM     30  C   UNL     1      35.530 -22.997 -16.223  0.00  0.00    -0.000 C 
BRANCH  26  31
ATOM     31  C   UNL     1      34.081 -24.190 -14.572  0.00  0.00    +0.097 C 
BRANCH  31  32
ATOM     32  C   UNL     1      35.231 -23.935 -13.661  0.00  0.00    -0.087 C 
ATOM     33  C   UNL     1      36.161 -23.714 -12.933  0.00  0.00    -0.090 C 
ATOM     34  C   UNL     1      37.295 -23.446 -12.050  0.00  0.00    +0.090 C 
ENDBRANCH  31  32
BRANCH  31  35
ATOM     35  C   UNL     1      32.766 -23.679 -13.924  0.00  0.00    +0.127 C 
BRANCH  35  37
ATOM     36  O   UNL     1      30.543 -24.615 -13.554  0.00  0.00    -0.250 OA
ATOM     37  C   UNL     1      31.753 -24.769 -13.632  0.00  0.00    +0.315 C 
BRANCH  37  38
ATOM     38  O   UNL     1      32.359 -25.976 -13.476  0.00  0.00    -0.480 OA
ATOM     39  H   UNL     1      32.579 -26.282 -12.619  0.00  0.00    +0.295 HD
ENDBRANCH  37  38
ENDBRANCH  35  37
ENDBRANCH  31  35
ENDBRANCH  26  31
ENDBRANCH  24  25
ENDBRANCH  23  24
ENDBRANCH   6  23
TORSDOF 10
ENDMDL
