MODEL 1
REMARK VINA RESULT:     -11.4      0.000      0.000
REMARK  Name = 10274777
REMARK  10 active torsions:
REMARK  status: ('A' for Active; 'I' for Inactive)
REMARK    1  A    between atoms: C_2  and  C_25
REMARK    2  A    between atoms: C_5  and  O_10
REMARK    3  A    between atoms: O_10  and  C_11
REMARK    4  A    between atoms: C_11  and  C_12
REMARK    5  A    between atoms: C_12  and  C_15
REMARK    6  A    between atoms: C_17  and  C_19
REMARK    7  A    between atoms: C_25  and  C_26
REMARK    8  A    between atoms: C_26  and  O_27
REMARK    9  A    between atoms: C_26  and  C_30
REMARK   10  A    between atoms: C_30  and  O_31
REMARK                            x       y       z     vdW  Elec       q    Type
REMARK                         _______ _______ _______ _____ _____    ______ ____
ROOT
ATOM      1  S   UNL     1      32.217 -24.383 -13.898  0.00  0.00    -0.087 S 
ATOM      2  C   UNL     1      35.006 -24.114 -13.701  0.00  0.00    -0.013 C 
ATOM      3  C   UNL     1      33.810 -23.997 -14.435  0.00  0.00    +0.029 C 
ATOM      4  C   UNL     1      33.803 -23.528 -15.752  0.00  0.00    +0.040 C 
ATOM      5  C   UNL     1      35.039 -23.168 -16.340  0.00  0.00    +0.139 C 
ATOM      6  C   UNL     1      36.209 -23.750 -14.309  0.00  0.00    -0.001 C 
ATOM      7  C   UNL     1      36.228 -23.282 -15.615  0.00  0.00    +0.037 C 
ATOM      8  C   UNL     1      32.471 -23.500 -16.286  0.00  0.00    +0.010 C 
ATOM      9  C   UNL     1      31.524 -23.936 -15.389  0.00  0.00    +0.036 C 
ENDROOT
BRANCH   5  10
ATOM     10  O   UNL     1      35.098 -22.700 -17.630  0.00  0.00    -0.475 OA
BRANCH  10  11
ATOM     11  C   UNL     1      36.298 -22.041 -18.014  0.00  0.00    +0.213 C 
BRANCH  11  12
ATOM     12  C   UNL     1      36.366 -21.942 -19.535  0.00  0.00    +0.105 C 
BRANCH  12  15
ATOM     13  O   UNL     1      33.805 -19.612 -20.692  0.00  0.00    -0.449 OA
ATOM     14  N   UNL     1      36.062 -19.770 -20.677  0.00  0.00    -0.373 NA
ATOM     15  C   UNL     1      35.495 -20.850 -20.088  0.00  0.00    +0.134 C 
ATOM     16  C   UNL     1      34.144 -20.782 -20.082  0.00  0.00    +0.216 C 
ATOM     17  C   UNL     1      35.008 -19.063 -21.019  0.00  0.00    +0.277 C 
ATOM     18  C   UNL     1      33.045 -21.626 -19.602  0.00  0.00    +0.055 C 
BRANCH  17  19
ATOM     19  C   UNL     1      34.939 -17.794 -21.689  0.00  0.00    +0.066 C 
ATOM     20  C   UNL     1      34.641 -16.634 -20.968  0.00  0.00    +0.006 C 
ATOM     21  C   UNL     1      35.168 -17.712 -23.065  0.00  0.00    +0.006 C 
ATOM     22  C   UNL     1      34.573 -15.402 -21.617  0.00  0.00    +0.000 C 
ATOM     23  C   UNL     1      35.101 -16.479 -23.715  0.00  0.00    +0.000 C 
ATOM     24  C   UNL     1      34.803 -15.324 -22.992  0.00  0.00    +0.000 C 
ENDBRANCH  17  19
ENDBRANCH  12  15
ENDBRANCH  11  12
ENDBRANCH  10  11
ENDBRANCH   5  10
BRANCH   2  25
ATOM     25  C   UNL     1      35.044 -24.611 -12.290  0.00  0.00    +0.068 C 
BRANCH  25  26
ATOM     26  C   UNL     1      36.476 -24.746 -11.754  0.00  0.00    +0.218 C 
BRANCH  26  27
ATOM     27  O   UNL     1      36.697 -26.104 -11.388  0.00  0.00    -0.342 OA
ATOM     28  C   UNL     1      37.376 -26.815 -12.414  0.00  0.00    +0.175 C 
ENDBRANCH  26  27
BRANCH  26  30
ATOM     29  O   UNL     1      36.382 -24.245  -9.376  0.00  0.00    -0.248 OA
ATOM     30  C   UNL     1      36.679 -23.901 -10.512  0.00  0.00    +0.342 C 
BRANCH  30  31
ATOM     31  O   UNL     1      37.255 -22.704 -10.796  0.00  0.00    -0.479 OA
ATOM     32  H   UNL     1      37.931 -22.367 -10.241  0.00  0.00    +0.295 HD
ENDBRANCH  30  31
ENDBRANCH  26  30
ENDBRANCH  25  26
ENDBRANCH   2  25
TORSDOF 10
ENDMDL
MODEL 2
REMARK VINA RESULT:     -10.6      7.486     11.699
REMARK  Name = 10274777
REMARK  10 active torsions:
REMARK  status: ('A' for Active; 'I' for Inactive)
REMARK    1  A    between atoms: C_2  and  C_25
REMARK    2  A    between atoms: C_5  and  O_10
REMARK    3  A    between atoms: O_10  and  C_11
REMARK    4  A    between atoms: C_11  and  C_12
REMARK    5  A    between atoms: C_12  and  C_15
REMARK    6  A    between atoms: C_17  and  C_19
REMARK    7  A    between atoms: C_25  and  C_26
REMARK    8  A    between atoms: C_26  and  O_27
REMARK    9  A    between atoms: C_26  and  C_30
REMARK   10  A    between atoms: C_30  and  O_31
REMARK                            x       y       z     vdW  Elec       q    Type
REMARK                         _______ _______ _______ _____ _____    ______ ____
ROOT
ATOM      1  S   UNL     1      34.438 -16.447 -25.090  0.00  0.00    -0.087 S 
ATOM      2  C   UNL     1      34.801 -16.334 -22.308  0.00  0.00    -0.013 C 
ATOM      3  C   UNL     1      34.284 -15.794 -23.501  0.00  0.00    +0.029 C 
ATOM      4  C   UNL     1      33.552 -14.603 -23.509  0.00  0.00    +0.040 C 
ATOM      5  C   UNL     1      33.337 -13.942 -22.276  0.00  0.00    +0.139 C 
ATOM      6  C   UNL     1      34.572 -15.658 -21.107  0.00  0.00    -0.001 C 
ATOM      7  C   UNL     1      33.848 -14.474 -21.089  0.00  0.00    +0.037 C 
ATOM      8  C   UNL     1      33.135 -14.259 -24.839  0.00  0.00    +0.010 C 
ATOM      9  C   UNL     1      33.547 -15.169 -25.782  0.00  0.00    +0.036 C 
ENDROOT
BRANCH   5  10
ATOM     10  O   UNL     1      32.626 -12.769 -22.217  0.00  0.00    -0.475 OA
BRANCH  10  11
ATOM     11  C   UNL     1      31.881 -12.535 -21.029  0.00  0.00    +0.213 C 
BRANCH  11  12
ATOM     12  C   UNL     1      30.830 -11.458 -21.285  0.00  0.00    +0.105 C 
BRANCH  12  15
ATOM     13  O   UNL     1      32.355  -8.171 -20.839  0.00  0.00    -0.449 OA
ATOM     14  N   UNL     1      31.421  -9.388 -22.502  0.00  0.00    -0.373 NA
ATOM     15  C   UNL     1      31.413 -10.075 -21.333  0.00  0.00    +0.134 C 
ATOM     16  C   UNL     1      31.967  -9.370 -20.320  0.00  0.00    +0.216 C 
ATOM     17  C   UNL     1      31.994  -8.259 -22.149  0.00  0.00    +0.277 C 
ATOM     18  C   UNL     1      32.221  -9.593 -18.894  0.00  0.00    +0.055 C 
BRANCH  17  19
ATOM     19  C   UNL     1      32.296  -7.102 -22.945  0.00  0.00    +0.066 C 
ATOM     20  C   UNL     1      33.479  -7.050 -23.689  0.00  0.00    +0.006 C 
ATOM     21  C   UNL     1      31.411  -6.021 -22.980  0.00  0.00    +0.006 C 
ATOM     22  C   UNL     1      33.773  -5.927 -24.462  0.00  0.00    +0.000 C 
ATOM     23  C   UNL     1      31.705  -4.898 -23.754  0.00  0.00    +0.000 C 
ATOM     24  C   UNL     1      32.886  -4.850 -24.494  0.00  0.00    +0.000 C 
ENDBRANCH  17  19
ENDBRANCH  12  15
ENDBRANCH  11  12
ENDBRANCH  10  11
ENDBRANCH   5  10
BRANCH   2  25
ATOM     25  C   UNL     1      35.586 -17.606 -22.268  0.00  0.00    +0.068 C 
BRANCH  25  26
ATOM     26  C   UNL     1      35.280 -18.448 -21.021  0.00  0.00    +0.218 C 
BRANCH  26  27
ATOM     27  O   UNL     1      36.511 -18.845 -20.428  0.00  0.00    -0.342 OA
ATOM     28  C   UNL     1      37.533 -18.995 -21.403  0.00  0.00    +0.175 C 
ENDBRANCH  26  27
BRANCH  26  30
ATOM     29  O   UNL     1      33.955 -20.439 -20.581  0.00  0.00    -0.248 OA
ATOM     30  C   UNL     1      34.520 -19.708 -21.383  0.00  0.00    +0.342 C 
BRANCH  30  31
ATOM     31  O   UNL     1      34.517 -19.938 -22.721  0.00  0.00    -0.479 OA
ATOM     32  H   UNL     1      34.008 -19.392 -23.289  0.00  0.00    +0.295 HD
ENDBRANCH  30  31
ENDBRANCH  26  30
ENDBRANCH  25  26
ENDBRANCH   2  25
TORSDOF 10
ENDMDL
MODEL 3
REMARK VINA RESULT:     -10.6      2.939      4.630
REMARK  Name = 10274777
REMARK  10 active torsions:
REMARK  status: ('A' for Active; 'I' for Inactive)
REMARK    1  A    between atoms: C_2  and  C_25
REMARK    2  A    between atoms: C_5  and  O_10
REMARK    3  A    between atoms: O_10  and  C_11
REMARK    4  A    between atoms: C_11  and  C_12
REMARK    5  A    between atoms: C_12  and  C_15
REMARK    6  A    between atoms: C_17  and  C_19
REMARK    7  A    between atoms: C_25  and  C_26
REMARK    8  A    between atoms: C_26  and  O_27
REMARK    9  A    between atoms: C_26  and  C_30
REMARK   10  A    between atoms: C_30  and  O_31
REMARK                            x       y       z     vdW  Elec       q    Type
REMARK                         _______ _______ _______ _____ _____    ______ ____
ROOT
ATOM      1  S   UNL     1      35.750 -23.659 -14.888  0.00  0.00    -0.087 S 
ATOM      2  C   UNL     1      33.644 -23.381 -16.725  0.00  0.00    -0.013 C 
ATOM      3  C   UNL     1      34.988 -23.177 -16.358  0.00  0.00    +0.029 C 
ATOM      4  C   UNL     1      35.887 -22.522 -17.205  0.00  0.00    +0.040 C 
ATOM      5  C   UNL     1      35.411 -22.062 -18.457  0.00  0.00    +0.139 C 
ATOM      6  C   UNL     1      33.206 -22.916 -17.967  0.00  0.00    -0.001 C 
ATOM      7  C   UNL     1      34.079 -22.263 -18.826  0.00  0.00    +0.037 C 
ATOM      8  C   UNL     1      37.191 -22.435 -16.613  0.00  0.00    +0.010 C 
ATOM      9  C   UNL     1      37.251 -23.009 -15.365  0.00  0.00    +0.036 C 
ENDROOT
BRANCH   5  10
ATOM     10  O   UNL     1      36.244 -21.412 -19.334  0.00  0.00    -0.475 OA
BRANCH  10  11
ATOM     11  C   UNL     1      35.620 -20.674 -20.377  0.00  0.00    +0.213 C 
BRANCH  11  12
ATOM     12  C   UNL     1      36.412 -19.398 -20.649  0.00  0.00    +0.105 C 
BRANCH  12  15
ATOM     13  O   UNL     1      34.537 -17.297 -22.972  0.00  0.00    -0.449 OA
ATOM     14  N   UNL     1      35.251 -17.222 -20.827  0.00  0.00    -0.373 NA
ATOM     15  C   UNL     1      35.626 -18.379 -21.424  0.00  0.00    +0.134 C 
ATOM     16  C   UNL     1      35.212 -18.451 -22.710  0.00  0.00    +0.216 C 
ATOM     17  C   UNL     1      34.604 -16.614 -21.796  0.00  0.00    +0.277 C 
ATOM     18  C   UNL     1      35.322 -19.423 -23.802  0.00  0.00    +0.055 C 
BRANCH  17  19
ATOM     19  C   UNL     1      33.956 -15.332 -21.796  0.00  0.00    +0.066 C 
ATOM     20  C   UNL     1      33.117 -14.969 -20.738  0.00  0.00    +0.006 C 
ATOM     21  C   UNL     1      34.160 -14.440 -22.853  0.00  0.00    +0.006 C 
ATOM     22  C   UNL     1      32.487 -13.725 -20.737  0.00  0.00    +0.000 C 
ATOM     23  C   UNL     1      33.529 -13.195 -22.851  0.00  0.00    +0.000 C 
ATOM     24  C   UNL     1      32.693 -12.837 -21.794  0.00  0.00    +0.000 C 
ENDBRANCH  17  19
ENDBRANCH  12  15
ENDBRANCH  11  12
ENDBRANCH  10  11
ENDBRANCH   5  10
BRANCH   2  25
ATOM     25  C   UNL     1      32.661 -24.079 -15.840  0.00  0.00    +0.068 C 
BRANCH  25  26
ATOM     26  C   UNL     1      31.617 -23.121 -15.250  0.00  0.00    +0.218 C 
BRANCH  26  27
ATOM     27  O   UNL     1      31.628 -23.254 -13.834  0.00  0.00    -0.342 OA
ATOM     28  C   UNL     1      32.418 -24.360 -13.421  0.00  0.00    +0.175 C 
ENDBRANCH  26  27
BRANCH  26  30
ATOM     29  O   UNL     1      29.499 -24.317 -15.224  0.00  0.00    -0.248 OA
ATOM     30  C   UNL     1      30.221 -23.468 -15.729  0.00  0.00    +0.342 C 
BRANCH  30  31
ATOM     31  O   UNL     1      29.840 -22.709 -16.790  0.00  0.00    -0.479 OA
ATOM     32  H   UNL     1      29.351 -21.922 -16.650  0.00  0.00    +0.295 HD
ENDBRANCH  30  31
ENDBRANCH  26  30
ENDBRANCH  25  26
ENDBRANCH   2  25
TORSDOF 10
ENDMDL
MODEL 4
REMARK VINA RESULT:     -10.4      6.051     12.255
REMARK  Name = 10274777
REMARK  10 active torsions:
REMARK  status: ('A' for Active; 'I' for Inactive)
REMARK    1  A    between atoms: C_2  and  C_25
REMARK    2  A    between atoms: C_5  and  O_10
REMARK    3  A    between atoms: O_10  and  C_11
REMARK    4  A    between atoms: C_11  and  C_12
REMARK    5  A    between atoms: C_12  and  C_15
REMARK    6  A    between atoms: C_17  and  C_19
REMARK    7  A    between atoms: C_25  and  C_26
REMARK    8  A    between atoms: C_26  and  O_27
REMARK    9  A    between atoms: C_26  and  C_30
REMARK   10  A    between atoms: C_30  and  O_31
REMARK                            x       y       z     vdW  Elec       q    Type
REMARK                         _______ _______ _______ _____ _____    ______ ____
ROOT
ATOM      1  S   UNL     1      33.304 -10.403 -23.519  0.00  0.00    -0.087 S 
ATOM      2  C   UNL     1      31.982 -11.529 -21.313  0.00  0.00    -0.013 C 
ATOM      3  C   UNL     1      32.807 -11.658 -22.447  0.00  0.00    +0.029 C 
ATOM      4  C   UNL     1      33.333 -12.894 -22.832  0.00  0.00    +0.040 C 
ATOM      5  C   UNL     1      33.015 -14.030 -22.049  0.00  0.00    +0.139 C 
ATOM      6  C   UNL     1      31.687 -12.668 -20.561  0.00  0.00    -0.001 C 
ATOM      7  C   UNL     1      32.196 -13.907 -20.923  0.00  0.00    +0.037 C 
ATOM      8  C   UNL     1      34.138 -12.771 -24.014  0.00  0.00    +0.010 C 
ATOM      9  C   UNL     1      34.204 -11.481 -24.484  0.00  0.00    +0.036 C 
ENDROOT
BRANCH   5  10
ATOM     10  O   UNL     1      33.500 -15.272 -22.375  0.00  0.00    -0.475 OA
BRANCH  10  11
ATOM     11  C   UNL     1      34.710 -15.669 -21.744  0.00  0.00    +0.213 C 
BRANCH  11  12
ATOM     12  C   UNL     1      35.439 -16.685 -22.620  0.00  0.00    +0.105 C 
BRANCH  12  15
ATOM     13  O   UNL     1      34.465 -20.193 -22.352  0.00  0.00    -0.449 OA
ATOM     14  N   UNL     1      35.216 -18.541 -21.002  0.00  0.00    -0.373 NA
ATOM     15  C   UNL     1      35.090 -18.105 -22.279  0.00  0.00    +0.134 C 
ATOM     16  C   UNL     1      34.642 -19.074 -23.110  0.00  0.00    +0.216 C 
ATOM     17  C   UNL     1      34.830 -19.793 -21.103  0.00  0.00    +0.277 C 
ATOM     18  C   UNL     1      34.327 -19.178 -24.538  0.00  0.00    +0.055 C 
BRANCH  17  19
ATOM     19  C   UNL     1      34.736 -20.803 -20.086  0.00  0.00    +0.066 C 
ATOM     20  C   UNL     1      33.486 -21.293 -19.695  0.00  0.00    +0.006 C 
ATOM     21  C   UNL     1      35.893 -21.302 -19.481  0.00  0.00    +0.006 C 
ATOM     22  C   UNL     1      33.394 -22.273 -18.708  0.00  0.00    +0.000 C 
ATOM     23  C   UNL     1      35.800 -22.283 -18.493  0.00  0.00    +0.000 C 
ATOM     24  C   UNL     1      34.552 -22.769 -18.106  0.00  0.00    +0.000 C 
ENDBRANCH  17  19
ENDBRANCH  12  15
ENDBRANCH  11  12
ENDBRANCH  10  11
ENDBRANCH   5  10
BRANCH   2  25
ATOM     25  C   UNL     1      31.406 -10.219 -20.875  0.00  0.00    +0.068 C 
BRANCH  25  26
ATOM     26  C   UNL     1      32.272  -9.522 -19.816  0.00  0.00    +0.218 C 
BRANCH  26  27
ATOM     27  O   UNL     1      31.545  -9.478 -18.594  0.00  0.00    -0.342 OA
ATOM     28  C   UNL     1      31.513 -10.750 -17.961  0.00  0.00    +0.175 C 
ENDBRANCH  26  27
BRANCH  26  30
ATOM     29  O   UNL     1      32.085  -7.510 -21.171  0.00  0.00    -0.248 OA
ATOM     30  C   UNL     1      32.580  -8.092 -20.215  0.00  0.00    +0.342 C 
BRANCH  30  31
ATOM     31  O   UNL     1      33.468  -7.506 -19.371  0.00  0.00    -0.479 OA
ATOM     32  H   UNL     1      34.267  -7.148 -19.708  0.00  0.00    +0.295 HD
ENDBRANCH  30  31
ENDBRANCH  26  30
ENDBRANCH  25  26
ENDBRANCH   2  25
TORSDOF 10
ENDMDL
MODEL 5
REMARK VINA RESULT:     -10.4      6.875     13.688
REMARK  Name = 10274777
REMARK  10 active torsions:
REMARK  status: ('A' for Active; 'I' for Inactive)
REMARK    1  A    between atoms: C_2  and  C_25
REMARK    2  A    between atoms: C_5  and  O_10
REMARK    3  A    between atoms: O_10  and  C_11
REMARK    4  A    between atoms: C_11  and  C_12
REMARK    5  A    between atoms: C_12  and  C_15
REMARK    6  A    between atoms: C_17  and  C_19
REMARK    7  A    between atoms: C_25  and  C_26
REMARK    8  A    between atoms: C_26  and  O_27
REMARK    9  A    between atoms: C_26  and  C_30
REMARK   10  A    between atoms: C_30  and  O_31
REMARK                            x       y       z     vdW  Elec       q    Type
REMARK                         _______ _______ _______ _____ _____    ______ ____
ROOT
ATOM      1  S   UNL     1      31.567  -9.570 -19.134  0.00  0.00    -0.087 S 
ATOM      2  C   UNL     1      32.465  -9.429 -21.791  0.00  0.00    -0.013 C 
ATOM      3  C   UNL     1      32.046 -10.178 -20.675  0.00  0.00    +0.029 C 
ATOM      4  C   UNL     1      31.976 -11.574 -20.715  0.00  0.00    +0.040 C 
ATOM      5  C   UNL     1      32.339 -12.227 -21.917  0.00  0.00    +0.139 C 
ATOM      6  C   UNL     1      32.816 -10.103 -22.962  0.00  0.00    -0.001 C 
ATOM      7  C   UNL     1      32.755 -11.488 -23.027  0.00  0.00    +0.037 C 
ATOM      8  C   UNL     1      31.525 -12.107 -19.461  0.00  0.00    +0.010 C 
ATOM      9  C   UNL     1      31.270 -11.134 -18.525  0.00  0.00    +0.036 C 
ENDROOT
BRANCH   5  10
ATOM     10  O   UNL     1      32.291 -13.595 -22.020  0.00  0.00    -0.475 OA
BRANCH  10  11
ATOM     11  C   UNL     1      33.160 -14.193 -22.973  0.00  0.00    +0.213 C 
BRANCH  11  12
ATOM     12  C   UNL     1      34.458 -14.618 -22.292  0.00  0.00    +0.105 C 
BRANCH  12  15
ATOM     13  O   UNL     1      35.038 -18.145 -23.033  0.00  0.00    -0.449 OA
ATOM     14  N   UNL     1      34.784 -16.820 -21.217  0.00  0.00    -0.373 NA
ATOM     15  C   UNL     1      34.695 -16.099 -22.361  0.00  0.00    +0.134 C 
ATOM     16  C   UNL     1      34.845 -16.867 -23.464  0.00  0.00    +0.216 C 
ATOM     17  C   UNL     1      34.988 -18.035 -21.677  0.00  0.00    +0.277 C 
ATOM     18  C   UNL     1      34.843 -16.644 -24.914  0.00  0.00    +0.055 C 
BRANCH  17  19
ATOM     19  C   UNL     1      35.168 -19.264 -20.957  0.00  0.00    +0.066 C 
ATOM     20  C   UNL     1      34.057 -20.023 -20.573  0.00  0.00    +0.006 C 
ATOM     21  C   UNL     1      36.452 -19.710 -20.634  0.00  0.00    +0.006 C 
ATOM     22  C   UNL     1      34.229 -21.216 -19.874  0.00  0.00    +0.000 C 
ATOM     23  C   UNL     1      36.625 -20.905 -19.934  0.00  0.00    +0.000 C 
ATOM     24  C   UNL     1      35.514 -21.658 -19.554  0.00  0.00    +0.000 C 
ENDBRANCH  17  19
ENDBRANCH  12  15
ENDBRANCH  11  12
ENDBRANCH  10  11
ENDBRANCH   5  10
BRANCH   2  25
ATOM     25  C   UNL     1      32.549  -7.935 -21.778  0.00  0.00    +0.068 C 
BRANCH  25  26
ATOM     26  C   UNL     1      31.210  -7.269 -22.124  0.00  0.00    +0.218 C 
BRANCH  26  27
ATOM     27  O   UNL     1      31.207  -6.950 -23.511  0.00  0.00    -0.342 OA
ATOM     28  C   UNL     1      32.439  -6.369 -23.914  0.00  0.00    +0.175 C 
ENDBRANCH  26  27
BRANCH  26  30
ATOM     29  O   UNL     1      30.016  -5.285 -21.379  0.00  0.00    -0.248 OA
ATOM     30  C   UNL     1      31.028  -5.974 -21.359  0.00  0.00    +0.342 C 
BRANCH  30  31
ATOM     31  O   UNL     1      32.121  -5.659 -20.617  0.00  0.00    -0.479 OA
ATOM     32  H   UNL     1      32.063  -5.643 -19.681  0.00  0.00    +0.295 HD
ENDBRANCH  30  31
ENDBRANCH  26  30
ENDBRANCH  25  26
ENDBRANCH   2  25
TORSDOF 10
ENDMDL
MODEL 6
REMARK VINA RESULT:     -10.0      5.898     12.936
REMARK  Name = 10274777
REMARK  10 active torsions:
REMARK  status: ('A' for Active; 'I' for Inactive)
REMARK    1  A    between atoms: C_2  and  C_25
REMARK    2  A    between atoms: C_5  and  O_10
REMARK    3  A    between atoms: O_10  and  C_11
REMARK    4  A    between atoms: C_11  and  C_12
REMARK    5  A    between atoms: C_12  and  C_15
REMARK    6  A    between atoms: C_17  and  C_19
REMARK    7  A    between atoms: C_25  and  C_26
REMARK    8  A    between atoms: C_26  and  O_27
REMARK    9  A    between atoms: C_26  and  C_30
REMARK   10  A    between atoms: C_30  and  O_31
REMARK                            x       y       z     vdW  Elec       q    Type
REMARK                         _______ _______ _______ _____ _____    ______ ____
ROOT
ATOM      1  S   UNL     1      31.531 -12.301 -20.282  0.00  0.00    -0.087 S 
ATOM      2  C   UNL     1      32.575 -10.928 -22.498  0.00  0.00    -0.013 C 
ATOM      3  C   UNL     1      32.458 -12.097 -21.722  0.00  0.00    +0.029 C 
ATOM      4  C   UNL     1      33.126 -13.275 -22.068  0.00  0.00    +0.040 C 
ATOM      5  C   UNL     1      33.932 -13.269 -23.231  0.00  0.00    +0.139 C 
ATOM      6  C   UNL     1      33.378 -10.955 -23.640  0.00  0.00    -0.001 C 
ATOM      7  C   UNL     1      34.051 -12.112 -24.005  0.00  0.00    +0.037 C 
ATOM      8  C   UNL     1      32.852 -14.324 -21.126  0.00  0.00    +0.010 C 
ATOM      9  C   UNL     1      32.007 -13.929 -20.116  0.00  0.00    +0.036 C 
ENDROOT
BRANCH   5  10
ATOM     10  O   UNL     1      34.614 -14.395 -23.625  0.00  0.00    -0.475 OA
BRANCH  10  11
ATOM     11  C   UNL     1      34.187 -15.628 -23.060  0.00  0.00    +0.213 C 
BRANCH  11  12
ATOM     12  C   UNL     1      35.402 -16.439 -22.617  0.00  0.00    +0.105 C 
BRANCH  12  15
ATOM     13  O   UNL     1      34.486 -19.970 -22.483  0.00  0.00    -0.449 OA
ATOM     14  N   UNL     1      35.171 -18.347 -21.063  0.00  0.00    -0.373 NA
ATOM     15  C   UNL     1      35.071 -17.875 -22.329  0.00  0.00    +0.134 C 
ATOM     16  C   UNL     1      34.663 -18.825 -23.200  0.00  0.00    +0.216 C 
ATOM     17  C   UNL     1      34.810 -19.602 -21.212  0.00  0.00    +0.277 C 
ATOM     18  C   UNL     1      34.387 -18.891 -24.639  0.00  0.00    +0.055 C 
BRANCH  17  19
ATOM     19  C   UNL     1      34.708 -20.645 -20.229  0.00  0.00    +0.066 C 
ATOM     20  C   UNL     1      33.452 -21.088 -19.803  0.00  0.00    +0.006 C 
ATOM     21  C   UNL     1      35.862 -21.222 -19.693  0.00  0.00    +0.006 C 
ATOM     22  C   UNL     1      33.352 -22.100 -18.848  0.00  0.00    +0.000 C 
ATOM     23  C   UNL     1      35.762 -22.235 -18.738  0.00  0.00    +0.000 C 
ATOM     24  C   UNL     1      34.507 -22.673 -18.315  0.00  0.00    +0.000 C 
ENDBRANCH  17  19
ENDBRANCH  12  15
ENDBRANCH  11  12
ENDBRANCH  10  11
ENDBRANCH   5  10
BRANCH   2  25
ATOM     25  C   UNL     1      31.871  -9.654 -22.154  0.00  0.00    +0.068 C 
BRANCH  25  26
ATOM     26  C   UNL     1      32.681  -8.411 -22.547  0.00  0.00    +0.218 C 
BRANCH  26  27
ATOM     27  O   UNL     1      33.286  -7.875 -21.376  0.00  0.00    -0.342 OA
ATOM     28  C   UNL     1      32.462  -8.058 -20.233  0.00  0.00    +0.175 C 
ENDBRANCH  26  27
BRANCH  26  30
ATOM     29  O   UNL     1      32.166  -6.230 -23.493  0.00  0.00    -0.248 OA
ATOM     30  C   UNL     1      31.786  -7.335 -23.130  0.00  0.00    +0.342 C 
BRANCH  30  31
ATOM     31  O   UNL     1      30.494  -7.741 -23.227  0.00  0.00    -0.479 OA
ATOM     32  H   UNL     1      29.895  -7.271 -23.775  0.00  0.00    +0.295 HD
ENDBRANCH  30  31
ENDBRANCH  26  30
ENDBRANCH  25  26
ENDBRANCH   2  25
TORSDOF 10
ENDMDL
MODEL 7
REMARK VINA RESULT:     -10.0      2.773      9.466
REMARK  Name = 10274777
REMARK  10 active torsions:
REMARK  status: ('A' for Active; 'I' for Inactive)
REMARK    1  A    between atoms: C_2  and  C_25
REMARK    2  A    between atoms: C_5  and  O_10
REMARK    3  A    between atoms: O_10  and  C_11
REMARK    4  A    between atoms: C_11  and  C_12
REMARK    5  A    between atoms: C_12  and  C_15
REMARK    6  A    between atoms: C_17  and  C_19
REMARK    7  A    between atoms: C_25  and  C_26
REMARK    8  A    between atoms: C_26  and  O_27
REMARK    9  A    between atoms: C_26  and  C_30
REMARK   10  A    between atoms: C_30  and  O_31
REMARK                            x       y       z     vdW  Elec       q    Type
REMARK                         _______ _______ _______ _____ _____    ______ ____
ROOT
ATOM      1  S   UNL     1      32.841 -20.500 -20.613  0.00  0.00    -0.087 S 
ATOM      2  C   UNL     1      35.393 -19.476 -21.186  0.00  0.00    -0.013 C 
ATOM      3  C   UNL     1      34.553 -20.355 -20.473  0.00  0.00    +0.029 C 
ATOM      4  C   UNL     1      35.063 -21.247 -19.526  0.00  0.00    +0.040 C 
ATOM      5  C   UNL     1      36.460 -21.250 -19.294  0.00  0.00    +0.139 C 
ATOM      6  C   UNL     1      36.766 -19.504 -20.934  0.00  0.00    -0.001 C 
ATOM      7  C   UNL     1      37.296 -20.381 -19.999  0.00  0.00    +0.037 C 
ATOM      8  C   UNL     1      34.017 -22.033 -18.936  0.00  0.00    +0.010 C 
ATOM      9  C   UNL     1      32.773 -21.728 -19.434  0.00  0.00    +0.036 C 
ENDROOT
BRANCH   5  10
ATOM     10  O   UNL     1      37.022 -22.103 -18.377  0.00  0.00    -0.475 OA
BRANCH  10  11
ATOM     11  C   UNL     1      37.234 -21.584 -17.070  0.00  0.00    +0.213 C 
BRANCH  11  12
ATOM     12  C   UNL     1      37.568 -22.723 -16.111  0.00  0.00    +0.105 C 
BRANCH  12  15
ATOM     13  O   UNL     1      34.960 -24.782 -14.599  0.00  0.00    -0.449 OA
ATOM     14  N   UNL     1      35.129 -22.826 -15.722  0.00  0.00    -0.373 NA
ATOM     15  C   UNL     1      36.345 -23.401 -15.564  0.00  0.00    +0.134 C 
ATOM     16  C   UNL     1      36.274 -24.574 -14.894  0.00  0.00    +0.216 C 
ATOM     17  C   UNL     1      34.338 -23.691 -15.128  0.00  0.00    +0.277 C 
ATOM     18  C   UNL     1      37.227 -25.596 -14.449  0.00  0.00    +0.055 C 
BRANCH  17  19
ATOM     19  C   UNL     1      32.913 -23.656 -14.954  0.00  0.00    +0.066 C 
ATOM     20  C   UNL     1      32.354 -23.878 -13.692  0.00  0.00    +0.006 C 
ATOM     21  C   UNL     1      32.077 -23.400 -16.044  0.00  0.00    +0.006 C 
ATOM     22  C   UNL     1      30.970 -23.844 -13.521  0.00  0.00    +0.000 C 
ATOM     23  C   UNL     1      30.693 -23.366 -15.873  0.00  0.00    +0.000 C 
ATOM     24  C   UNL     1      30.139 -23.589 -14.613  0.00  0.00    +0.000 C 
ENDBRANCH  17  19
ENDBRANCH  12  15
ENDBRANCH  11  12
ENDBRANCH  10  11
ENDBRANCH   5  10
BRANCH   2  25
ATOM     25  C   UNL     1      34.876 -18.512 -22.206  0.00  0.00    +0.068 C 
BRANCH  25  26
ATOM     26  C   UNL     1      35.112 -17.050 -21.805  0.00  0.00    +0.218 C 
BRANCH  26  27
ATOM     27  O   UNL     1      34.022 -16.619 -20.998  0.00  0.00    -0.342 OA
ATOM     28  C   UNL     1      34.376 -15.499 -20.199  0.00  0.00    +0.175 C 
ENDBRANCH  26  27
BRANCH  26  30
ATOM     29  O   UNL     1      34.990 -14.936 -23.003  0.00  0.00    -0.248 OA
ATOM     30  C   UNL     1      35.161 -16.148 -23.022  0.00  0.00    +0.342 C 
BRANCH  30  31
ATOM     31  O   UNL     1      35.440 -16.837 -24.159  0.00  0.00    -0.479 OA
ATOM     32  H   UNL     1      35.553 -16.378 -24.969  0.00  0.00    +0.295 HD
ENDBRANCH  30  31
ENDBRANCH  26  30
ENDBRANCH  25  26
ENDBRANCH   2  25
TORSDOF 10
ENDMDL
MODEL 8
REMARK VINA RESULT:      -9.9      2.941      4.425
REMARK  Name = 10274777
REMARK  10 active torsions:
REMARK  status: ('A' for Active; 'I' for Inactive)
REMARK    1  A    between atoms: C_2  and  C_25
REMARK    2  A    between atoms: C_5  and  O_10
REMARK    3  A    between atoms: O_10  and  C_11
REMARK    4  A    between atoms: C_11  and  C_12
REMARK    5  A    between atoms: C_12  and  C_15
REMARK    6  A    between atoms: C_17  and  C_19
REMARK    7  A    between atoms: C_25  and  C_26
REMARK    8  A    between atoms: C_26  and  O_27
REMARK    9  A    between atoms: C_26  and  C_30
REMARK   10  A    between atoms: C_30  and  O_31
REMARK                            x       y       z     vdW  Elec       q    Type
REMARK                         _______ _______ _______ _____ _____    ______ ____
ROOT
ATOM      1  S   UNL     1      35.826 -23.321 -14.322  0.00  0.00    -0.087 S 
ATOM      2  C   UNL     1      33.395 -23.471 -15.721  0.00  0.00    -0.013 C 
ATOM      3  C   UNL     1      34.786 -23.247 -15.696  0.00  0.00    +0.029 C 
ATOM      4  C   UNL     1      35.496 -22.923 -16.855  0.00  0.00    +0.040 C 
ATOM      5  C   UNL     1      34.780 -22.824 -18.072  0.00  0.00    +0.139 C 
ATOM      6  C   UNL     1      32.718 -23.365 -16.938  0.00  0.00    -0.001 C 
ATOM      7  C   UNL     1      33.401 -23.045 -18.102  0.00  0.00    +0.037 C 
ATOM      8  C   UNL     1      36.892 -22.743 -16.576  0.00  0.00    +0.010 C 
ATOM      9  C   UNL     1      37.201 -22.929 -15.249  0.00  0.00    +0.036 C 
ENDROOT
BRANCH   5  10
ATOM     10  O   UNL     1      35.420 -22.510 -19.245  0.00  0.00    -0.475 OA
BRANCH  10  11
ATOM     11  C   UNL     1      35.671 -21.131 -19.485  0.00  0.00    +0.213 C 
BRANCH  11  12
ATOM     12  C   UNL     1      34.784 -20.637 -20.625  0.00  0.00    +0.105 C 
BRANCH  12  15
ATOM     13  O   UNL     1      35.917 -17.306 -21.596  0.00  0.00    -0.449 OA
ATOM     14  N   UNL     1      34.026 -18.295 -20.848  0.00  0.00    -0.373 NA
ATOM     15  C   UNL     1      35.029 -19.197 -20.972  0.00  0.00    +0.134 C 
ATOM     16  C   UNL     1      36.174 -18.632 -21.419  0.00  0.00    +0.216 C 
ATOM     17  C   UNL     1      34.611 -17.183 -21.233  0.00  0.00    +0.277 C 
ATOM     18  C   UNL     1      37.529 -19.097 -21.730  0.00  0.00    +0.055 C 
BRANCH  17  19
ATOM     19  C   UNL     1      34.072 -15.854 -21.327  0.00  0.00    +0.066 C 
ATOM     20  C   UNL     1      33.192 -15.382 -20.349  0.00  0.00    +0.006 C 
ATOM     21  C   UNL     1      34.424 -15.027 -22.397  0.00  0.00    +0.006 C 
ATOM     22  C   UNL     1      32.668 -14.093 -20.440  0.00  0.00    +0.000 C 
ATOM     23  C   UNL     1      33.900 -13.737 -22.488  0.00  0.00    +0.000 C 
ATOM     24  C   UNL     1      33.023 -13.270 -21.510  0.00  0.00    +0.000 C 
ENDBRANCH  17  19
ENDBRANCH  12  15
ENDBRANCH  11  12
ENDBRANCH  10  11
ENDBRANCH   5  10
BRANCH   2  25
ATOM     25  C   UNL     1      32.609 -23.820 -14.497  0.00  0.00    +0.068 C 
BRANCH  25  26
ATOM     26  C   UNL     1      31.158 -24.203 -14.821  0.00  0.00    +0.218 C 
BRANCH  26  27
ATOM     27  O   UNL     1      30.314 -23.108 -14.484  0.00  0.00    -0.342 OA
ATOM     28  C   UNL     1      29.355 -22.858 -15.502  0.00  0.00    +0.175 C 
ENDBRANCH  26  27
BRANCH  26  30
ATOM     29  O   UNL     1      30.246 -26.429 -14.460  0.00  0.00    -0.248 OA
ATOM     30  C   UNL     1      30.709 -25.395 -13.998  0.00  0.00    +0.342 C 
BRANCH  30  31
ATOM     31  O   UNL     1      30.895 -25.197 -12.667  0.00  0.00    -0.479 OA
ATOM     32  H   UNL     1      31.033 -24.331 -12.337  0.00  0.00    +0.295 HD
ENDBRANCH  30  31
ENDBRANCH  26  30
ENDBRANCH  25  26
ENDBRANCH   2  25
TORSDOF 10
ENDMDL
MODEL 9
REMARK VINA RESULT:      -9.7      6.944     11.883
REMARK  Name = 10274777
REMARK  10 active torsions:
REMARK  status: ('A' for Active; 'I' for Inactive)
REMARK    1  A    between atoms: C_2  and  C_25
REMARK    2  A    between atoms: C_5  and  O_10
REMARK    3  A    between atoms: O_10  and  C_11
REMARK    4  A    between atoms: C_11  and  C_12
REMARK    5  A    between atoms: C_12  and  C_15
REMARK    6  A    between atoms: C_17  and  C_19
REMARK    7  A    between atoms: C_25  and  C_26
REMARK    8  A    between atoms: C_26  and  O_27
REMARK    9  A    between atoms: C_26  and  C_30
REMARK   10  A    between atoms: C_30  and  O_31
REMARK                            x       y       z     vdW  Elec       q    Type
REMARK                         _______ _______ _______ _____ _____    ______ ____
ROOT
ATOM      1  S   UNL     1      34.785 -16.087 -23.997  0.00  0.00    -0.087 S 
ATOM      2  C   UNL     1      34.425 -16.229 -21.216  0.00  0.00    -0.013 C 
ATOM      3  C   UNL     1      34.129 -15.649 -22.464  0.00  0.00    +0.029 C 
ATOM      4  C   UNL     1      33.217 -14.596 -22.584  0.00  0.00    +0.040 C 
ATOM      5  C   UNL     1      32.589 -14.119 -21.408  0.00  0.00    +0.139 C 
ATOM      6  C   UNL     1      33.788 -15.736 -20.075  0.00  0.00    -0.001 C 
ATOM      7  C   UNL     1      32.880 -14.692 -20.168  0.00  0.00    +0.037 C 
ATOM      8  C   UNL     1      33.085 -14.176 -23.950  0.00  0.00    +0.010 C 
ATOM      9  C   UNL     1      33.875 -14.898 -24.811  0.00  0.00    +0.036 C 
ENDROOT
BRANCH   5  10
ATOM     10  O   UNL     1      31.684 -13.087 -21.459  0.00  0.00    -0.475 OA
BRANCH  10  11
ATOM     11  C   UNL     1      32.174 -11.793 -21.136  0.00  0.00    +0.213 C 
BRANCH  11  12
ATOM     12  C   UNL     1      31.179 -10.734 -21.602  0.00  0.00    +0.105 C 
BRANCH  12  15
ATOM     13  O   UNL     1      33.165  -8.405 -23.592  0.00  0.00    -0.449 OA
ATOM     14  N   UNL     1      31.270  -8.381 -22.356  0.00  0.00    -0.373 NA
ATOM     15  C   UNL     1      31.832  -9.614 -22.360  0.00  0.00    +0.134 C 
ATOM     16  C   UNL     1      32.968  -9.658 -23.093  0.00  0.00    +0.216 C 
ATOM     17  C   UNL     1      32.106  -7.699 -23.107  0.00  0.00    +0.277 C 
ATOM     18  C   UNL     1      33.961 -10.678 -23.442  0.00  0.00    +0.055 C 
BRANCH  17  19
ATOM     19  C   UNL     1      32.067  -6.315 -23.490  0.00  0.00    +0.066 C 
ATOM     20  C   UNL     1      31.318  -5.400 -22.743  0.00  0.00    +0.006 C 
ATOM     21  C   UNL     1      32.775  -5.875 -24.611  0.00  0.00    +0.006 C 
ATOM     22  C   UNL     1      31.279  -4.057 -23.114  0.00  0.00    +0.000 C 
ATOM     23  C   UNL     1      32.736  -4.530 -24.982  0.00  0.00    +0.000 C 
ATOM     24  C   UNL     1      31.988  -3.621 -24.234  0.00  0.00    +0.000 C 
ENDBRANCH  17  19
ENDBRANCH  12  15
ENDBRANCH  11  12
ENDBRANCH  10  11
ENDBRANCH   5  10
BRANCH   2  25
ATOM     25  C   UNL     1      35.395 -17.357 -21.057  0.00  0.00    +0.068 C 
BRANCH  25  26
ATOM     26  C   UNL     1      34.799 -18.707 -21.480  0.00  0.00    +0.218 C 
BRANCH  26  27
ATOM     27  O   UNL     1      34.940 -19.623 -20.401  0.00  0.00    -0.342 OA
ATOM     28  C   UNL     1      33.822 -20.495 -20.308  0.00  0.00    +0.175 C 
ENDBRANCH  26  27
BRANCH  26  30
ATOM     29  O   UNL     1      35.036 -19.988 -23.535  0.00  0.00    -0.248 OA
ATOM     30  C   UNL     1      35.541 -19.286 -22.669  0.00  0.00    +0.342 C 
BRANCH  30  31
ATOM     31  O   UNL     1      36.849 -18.922 -22.682  0.00  0.00    -0.479 OA
ATOM     32  H   UNL     1      37.160 -18.315 -23.326  0.00  0.00    +0.295 HD
ENDBRANCH  30  31
ENDBRANCH  26  30
ENDBRANCH  25  26
ENDBRANCH   2  25
TORSDOF 10
ENDMDL
