MODEL 1
REMARK VINA RESULT:     -11.0      0.000      0.000
REMARK  Name = 2929
REMARK  5 active torsions:
REMARK  status: ('A' for Active; 'I' for Inactive)
REMARK    1  A    between atoms: N_1  and  C_22
REMARK    2  A    between atoms: C_4  and  C_11
REMARK    3  A    between atoms: C_11  and  C_14
REMARK    4  A    between atoms: N_13  and  C_17
REMARK    5  A    between atoms: C_22  and  C_24
REMARK                            x       y       z     vdW  Elec       q    Type
REMARK                         _______ _______ _______ _____ _____    ______ ____
ROOT
ATOM      1  N   UNL     1      34.011 -23.745 -14.751  0.00  0.00    -0.281 N 
ATOM      2  C   UNL     1      32.642 -23.600 -14.784  0.00  0.00    +0.052 C 
ATOM      3  C   UNL     1      32.279 -23.433 -16.122  0.00  0.00    +0.018 C 
ATOM      4  C   UNL     1      33.476 -23.481 -16.889  0.00  0.00    +0.060 C 
ATOM      5  C   UNL     1      34.524 -23.674 -16.018  0.00  0.00    +0.069 C 
ATOM      6  C   UNL     1      31.709 -23.606 -13.742  0.00  0.00    +0.015 C 
ATOM      7  C   UNL     1      30.917 -23.261 -16.437  0.00  0.00    +0.001 C 
ATOM      8  C   UNL     1      30.363 -23.434 -14.079  0.00  0.00    +0.001 C 
ATOM      9  C   UNL     1      29.971 -23.265 -15.406  0.00  0.00    +0.000 C 
ENDROOT
BRANCH   4  11
ATOM     10  O   UNL     1      33.689 -24.315 -19.103  0.00  0.00    -0.282 OA
ATOM     11  C   UNL     1      33.623 -23.359 -18.312  0.00  0.00    +0.250 C 
BRANCH  11  14
ATOM     12  O   UNL     1      32.726 -21.320 -19.008  0.00  0.00    -0.266 OA
ATOM     13  N   UNL     1      34.981 -21.816 -19.537  0.00  0.00    -0.278 N 
ATOM     14  C   UNL     1      33.725 -22.018 -19.006  0.00  0.00    +0.289 C 
ATOM     15  H   UNL     1      35.637 -22.539 -19.406  0.00  0.00    +0.155 HD
BRANCH  13  17
ATOM     16  N   UNL     1      36.312 -18.449 -21.647  0.00  0.00    -0.242 NA
ATOM     17  C   UNL     1      35.430 -20.679 -20.248  0.00  0.00    +0.054 C 
ATOM     18  C   UNL     1      36.753 -20.295 -20.150  0.00  0.00    +0.035 C 
ATOM     19  C   UNL     1      34.539 -19.972 -21.031  0.00  0.00    +0.035 C 
ATOM     20  C   UNL     1      37.143 -19.175 -20.867  0.00  0.00    +0.100 C 
ATOM     21  C   UNL     1      35.028 -18.867 -21.708  0.00  0.00    +0.100 C 
ENDBRANCH  13  17
ENDBRANCH  11  14
ENDBRANCH   4  11
BRANCH   1  22
ATOM     22  C   UNL     1      34.809 -23.942 -13.559  0.00  0.00    +0.122 C 
BRANCH  22  24
ATOM     23 CL   UNL     1      40.225 -26.159 -14.888  0.00  0.00    -0.082 Cl
ATOM     24  C   UNL     1      36.167 -24.499 -13.893  0.00  0.00    -0.002 C 
ATOM     25  C   UNL     1      36.400 -25.861 -13.759  0.00  0.00    -0.002 C 
ATOM     26  C   UNL     1      37.168 -23.642 -14.330  0.00  0.00    -0.002 C 
ATOM     27  C   UNL     1      37.659 -26.375 -14.069  0.00  0.00    +0.011 C 
ATOM     28  C   UNL     1      38.427 -24.157 -14.638  0.00  0.00    +0.011 C 
ATOM     29  C   UNL     1      38.672 -25.524 -14.508  0.00  0.00    +0.058 C 
ENDBRANCH  22  24
ENDBRANCH   1  22
TORSDOF 5
ENDMDL
MODEL 2
REMARK VINA RESULT:     -10.4      3.436      6.787
REMARK  Name = 2929
REMARK  5 active torsions:
REMARK  status: ('A' for Active; 'I' for Inactive)
REMARK    1  A    between atoms: N_1  and  C_22
REMARK    2  A    between atoms: C_4  and  C_11
REMARK    3  A    between atoms: C_11  and  C_14
REMARK    4  A    between atoms: N_13  and  C_17
REMARK    5  A    between atoms: C_22  and  C_24
REMARK                            x       y       z     vdW  Elec       q    Type
REMARK                         _______ _______ _______ _____ _____    ______ ____
ROOT
ATOM      1  N   UNL     1      33.521 -23.980 -16.731  0.00  0.00    -0.281 N 
ATOM      2  C   UNL     1      32.361 -23.614 -16.088  0.00  0.00    +0.052 C 
ATOM      3  C   UNL     1      32.650 -23.552 -14.723  0.00  0.00    +0.018 C 
ATOM      4  C   UNL     1      34.022 -23.893 -14.571  0.00  0.00    +0.060 C 
ATOM      5  C   UNL     1      34.531 -24.151 -15.823  0.00  0.00    +0.069 C 
ATOM      6  C   UNL     1      31.091 -23.336 -16.605  0.00  0.00    +0.015 C 
ATOM      7  C   UNL     1      31.620 -23.197 -13.829  0.00  0.00    +0.001 C 
ATOM      8  C   UNL     1      30.086 -22.985 -15.699  0.00  0.00    +0.001 C 
ATOM      9  C   UNL     1      30.345 -22.915 -14.332  0.00  0.00    +0.000 C 
ENDROOT
BRANCH   4  11
ATOM     10  O   UNL     1      34.302 -24.080 -12.219  0.00  0.00    -0.282 OA
ATOM     11  C   UNL     1      34.787 -23.969 -13.358  0.00  0.00    +0.250 C 
BRANCH  11  14
ATOM     12  O   UNL     1      36.807 -22.911 -12.861  0.00  0.00    -0.266 OA
ATOM     13  N   UNL     1      36.858 -25.033 -13.914  0.00  0.00    -0.278 N 
ATOM     14  C   UNL     1      36.299 -23.907 -13.347  0.00  0.00    +0.289 C 
ATOM     15  H   UNL     1      36.232 -25.716 -14.245  0.00  0.00    +0.155 HD
BRANCH  13  17
ATOM     16  N   UNL     1      40.940 -25.861 -14.374  0.00  0.00    -0.242 NA
ATOM     17  C   UNL     1      38.236 -25.311 -14.068  0.00  0.00    +0.054 C 
ATOM     18  C   UNL     1      38.849 -26.200 -13.208  0.00  0.00    +0.035 C 
ATOM     19  C   UNL     1      38.944 -24.692 -15.079  0.00  0.00    +0.035 C 
ATOM     20  C   UNL     1      40.200 -26.441 -13.402  0.00  0.00    +0.100 C 
ATOM     21  C   UNL     1      40.291 -24.999 -15.189  0.00  0.00    +0.100 C 
ENDBRANCH  13  17
ENDBRANCH  11  14
ENDBRANCH   4  11
BRANCH   1  22
ATOM     22  C   UNL     1      33.671 -24.163 -18.160  0.00  0.00    +0.122 C 
BRANCH  22  24
ATOM     23 CL   UNL     1      35.048 -19.002 -20.897  0.00  0.00    -0.082 Cl
ATOM     24  C   UNL     1      34.016 -22.868 -18.845  0.00  0.00    -0.002 C 
ATOM     25  C   UNL     1      32.997 -22.040 -19.297  0.00  0.00    -0.002 C 
ATOM     26  C   UNL     1      35.349 -22.520 -19.018  0.00  0.00    -0.002 C 
ATOM     27  C   UNL     1      33.317 -20.841 -19.933  0.00  0.00    +0.011 C 
ATOM     28  C   UNL     1      35.669 -21.321 -19.655  0.00  0.00    +0.011 C 
ATOM     29  C   UNL     1      34.653 -20.481 -20.112  0.00  0.00    +0.058 C 
ENDBRANCH  22  24
ENDBRANCH   1  22
TORSDOF 5
ENDMDL
MODEL 3
REMARK VINA RESULT:     -10.2      3.019      5.439
REMARK  Name = 2929
REMARK  5 active torsions:
REMARK  status: ('A' for Active; 'I' for Inactive)
REMARK    1  A    between atoms: N_1  and  C_22
REMARK    2  A    between atoms: C_4  and  C_11
REMARK    3  A    between atoms: C_11  and  C_14
REMARK    4  A    between atoms: N_13  and  C_17
REMARK    5  A    between atoms: C_22  and  C_24
REMARK                            x       y       z     vdW  Elec       q    Type
REMARK                         _______ _______ _______ _____ _____    ______ ____
ROOT
ATOM      1  N   UNL     1      32.711 -24.118 -15.321  0.00  0.00    -0.281 N 
ATOM      2  C   UNL     1      34.020 -23.810 -15.025  0.00  0.00    +0.052 C 
ATOM      3  C   UNL     1      34.642 -23.460 -16.225  0.00  0.00    +0.018 C 
ATOM      4  C   UNL     1      33.662 -23.570 -17.250  0.00  0.00    +0.060 C 
ATOM      5  C   UNL     1      32.485 -23.976 -16.664  0.00  0.00    +0.069 C 
ATOM      6  C   UNL     1      34.692 -23.814 -13.798  0.00  0.00    +0.015 C 
ATOM      7  C   UNL     1      36.003 -23.098 -16.202  0.00  0.00    +0.001 C 
ATOM      8  C   UNL     1      36.042 -23.449 -13.799  0.00  0.00    +0.001 C 
ATOM      9  C   UNL     1      36.689 -23.096 -14.982  0.00  0.00    +0.000 C 
ENDROOT
BRANCH   4  11
ATOM     10  O   UNL     1      33.921 -24.193 -19.528  0.00  0.00    -0.282 OA
ATOM     11  C   UNL     1      33.817 -23.315 -18.655  0.00  0.00    +0.250 C 
BRANCH  11  14
ATOM     12  O   UNL     1      32.902 -21.206 -19.059  0.00  0.00    -0.266 OA
ATOM     13  N   UNL     1      35.083 -21.677 -19.856  0.00  0.00    -0.278 N 
ATOM     14  C   UNL     1      33.881 -21.914 -19.224  0.00  0.00    +0.289 C 
ATOM     15  H   UNL     1      35.731 -22.418 -19.862  0.00  0.00    +0.155 HD
BRANCH  13  17
ATOM     16  N   UNL     1      36.274 -18.134 -21.751  0.00  0.00    -0.242 NA
ATOM     17  C   UNL     1      35.485 -20.482 -20.496  0.00  0.00    +0.054 C 
ATOM     18  C   UNL     1      34.562 -19.756 -21.222  0.00  0.00    +0.035 C 
ATOM     19  C   UNL     1      36.795 -20.059 -20.384  0.00  0.00    +0.035 C 
ATOM     20  C   UNL     1      35.005 -18.592 -21.829  0.00  0.00    +0.100 C 
ATOM     21  C   UNL     1      37.139 -18.882 -21.028  0.00  0.00    +0.100 C 
ENDBRANCH  13  17
ENDBRANCH  11  14
ENDBRANCH   4  11
BRANCH   1  22
ATOM     22  C   UNL     1      31.707 -24.534 -14.365  0.00  0.00    +0.122 C 
BRANCH  22  24
ATOM     23 CL   UNL     1      26.270 -22.496 -15.884  0.00  0.00    -0.082 Cl
ATOM     24  C   UNL     1      30.343 -24.024 -14.745  0.00  0.00    -0.002 C 
ATOM     25  C   UNL     1      29.477 -24.847 -15.453  0.00  0.00    -0.002 C 
ATOM     26  C   UNL     1      29.970 -22.737 -14.384  0.00  0.00    -0.002 C 
ATOM     27  C   UNL     1      28.214 -24.373 -15.806  0.00  0.00    +0.011 C 
ATOM     28  C   UNL     1      28.707 -22.263 -14.738  0.00  0.00    +0.011 C 
ATOM     29  C   UNL     1      27.828 -23.081 -15.448  0.00  0.00    +0.058 C 
ENDBRANCH  22  24
ENDBRANCH   1  22
TORSDOF 5
ENDMDL
MODEL 4
REMARK VINA RESULT:     -10.2      3.202      5.436
REMARK  Name = 2929
REMARK  5 active torsions:
REMARK  status: ('A' for Active; 'I' for Inactive)
REMARK    1  A    between atoms: N_1  and  C_22
REMARK    2  A    between atoms: C_4  and  C_11
REMARK    3  A    between atoms: C_11  and  C_14
REMARK    4  A    between atoms: N_13  and  C_17
REMARK    5  A    between atoms: C_22  and  C_24
REMARK                            x       y       z     vdW  Elec       q    Type
REMARK                         _______ _______ _______ _____ _____    ______ ____
ROOT
ATOM      1  N   UNL     1      34.828 -24.943 -13.903  0.00  0.00    -0.281 N 
ATOM      2  C   UNL     1      35.535 -24.473 -12.819  0.00  0.00    +0.052 C 
ATOM      3  C   UNL     1      36.607 -23.731 -13.318  0.00  0.00    +0.018 C 
ATOM      4  C   UNL     1      36.520 -23.771 -14.737  0.00  0.00    +0.060 C 
ATOM      5  C   UNL     1      35.416 -24.524 -15.067  0.00  0.00    +0.069 C 
ATOM      6  C   UNL     1      35.308 -24.648 -11.450  0.00  0.00    +0.015 C 
ATOM      7  C   UNL     1      37.499 -23.133 -12.405  0.00  0.00    +0.001 C 
ATOM      8  C   UNL     1      36.205 -24.045 -10.564  0.00  0.00    +0.001 C 
ATOM      9  C   UNL     1      37.284 -23.298 -11.032  0.00  0.00    +0.000 C 
ENDROOT
BRANCH   4  11
ATOM     10  O   UNL     1      38.606 -23.404 -15.812  0.00  0.00    -0.282 OA
ATOM     11  C   UNL     1      37.393 -23.158 -15.696  0.00  0.00    +0.250 C 
BRANCH  11  14
ATOM     12  O   UNL     1      37.372 -20.990 -16.561  0.00  0.00    -0.266 OA
ATOM     13  N   UNL     1      36.001 -22.636 -17.573  0.00  0.00    -0.278 N 
ATOM     14  C   UNL     1      36.913 -22.113 -16.681  0.00  0.00    +0.289 C 
ATOM     15  H   UNL     1      35.781 -23.590 -17.469  0.00  0.00    +0.155 HD
BRANCH  13  17
ATOM     16  N   UNL     1      34.074 -20.600 -20.687  0.00  0.00    -0.242 NA
ATOM     17  C   UNL     1      35.351 -21.950 -18.625  0.00  0.00    +0.054 C 
ATOM     18  C   UNL     1      33.974 -21.986 -18.709  0.00  0.00    +0.035 C 
ATOM     19  C   UNL     1      36.105 -21.253 -19.548  0.00  0.00    +0.035 C 
ATOM     20  C   UNL     1      33.384 -21.296 -19.757  0.00  0.00    +0.100 C 
ATOM     21  C   UNL     1      35.421 -20.597 -20.559  0.00  0.00    +0.100 C 
ENDBRANCH  13  17
ENDBRANCH  11  14
ENDBRANCH   4  11
BRANCH   1  22
ATOM     22  C   UNL     1      33.636 -25.762 -13.842  0.00  0.00    +0.122 C 
BRANCH  22  24
ATOM     23 CL   UNL     1      28.697 -22.523 -14.906  0.00  0.00    -0.082 Cl
ATOM     24  C   UNL     1      32.398 -24.949 -14.108  0.00  0.00    -0.002 C 
ATOM     25  C   UNL     1      31.213 -25.278 -13.464  0.00  0.00    -0.002 C 
ATOM     26  C   UNL     1      32.457 -23.883 -14.994  0.00  0.00    -0.002 C 
ATOM     27  C   UNL     1      30.065 -24.525 -13.712  0.00  0.00    +0.011 C 
ATOM     28  C   UNL     1      31.309 -23.131 -15.242  0.00  0.00    +0.011 C 
ATOM     29  C   UNL     1      30.113 -23.451 -14.600  0.00  0.00    +0.058 C 
ENDBRANCH  22  24
ENDBRANCH   1  22
TORSDOF 5
ENDMDL
MODEL 5
REMARK VINA RESULT:     -10.1      9.853     14.715
REMARK  Name = 2929
REMARK  5 active torsions:
REMARK  status: ('A' for Active; 'I' for Inactive)
REMARK    1  A    between atoms: N_1  and  C_22
REMARK    2  A    between atoms: C_4  and  C_11
REMARK    3  A    between atoms: C_11  and  C_14
REMARK    4  A    between atoms: N_13  and  C_17
REMARK    5  A    between atoms: C_22  and  C_24
REMARK                            x       y       z     vdW  Elec       q    Type
REMARK                         _______ _______ _______ _____ _____    ______ ____
ROOT
ATOM      1  N   UNL     1      32.273  -9.525 -21.895  0.00  0.00    -0.281 N 
ATOM      2  C   UNL     1      32.003 -10.559 -21.027  0.00  0.00    +0.052 C 
ATOM      3  C   UNL     1      32.471 -11.730 -21.624  0.00  0.00    +0.018 C 
ATOM      4  C   UNL     1      33.030 -11.365 -22.879  0.00  0.00    +0.060 C 
ATOM      5  C   UNL     1      32.894 -10.002 -23.018  0.00  0.00    +0.069 C 
ATOM      6  C   UNL     1      31.386 -10.544 -19.771  0.00  0.00    +0.015 C 
ATOM      7  C   UNL     1      32.315 -12.950 -20.936  0.00  0.00    +0.001 C 
ATOM      8  C   UNL     1      31.243 -11.766 -19.106  0.00  0.00    +0.001 C 
ATOM      9  C   UNL     1      31.701 -12.951 -19.678  0.00  0.00    +0.000 C 
ENDROOT
BRANCH   4  11
ATOM     10  O   UNL     1      34.262 -11.818 -24.859  0.00  0.00    -0.282 OA
ATOM     11  C   UNL     1      33.639 -12.218 -23.860  0.00  0.00    +0.250 C 
BRANCH  11  14
ATOM     12  O   UNL     1      32.722 -14.279 -24.458  0.00  0.00    -0.266 OA
ATOM     13  N   UNL     1      34.518 -14.233 -22.913  0.00  0.00    -0.278 N 
ATOM     14  C   UNL     1      33.571 -13.728 -23.779  0.00  0.00    +0.289 C 
ATOM     15  H   UNL     1      35.103 -13.577 -22.469  0.00  0.00    +0.155 HD
BRANCH  13  17
ATOM     16  N   UNL     1      35.173 -18.264 -21.976  0.00  0.00    -0.242 NA
ATOM     17  C   UNL     1      34.740 -15.593 -22.597  0.00  0.00    +0.054 C 
ATOM     18  C   UNL     1      34.659 -16.006 -21.282  0.00  0.00    +0.035 C 
ATOM     19  C   UNL     1      35.033 -16.486 -23.608  0.00  0.00    +0.035 C 
ATOM     20  C   UNL     1      34.883 -17.349 -21.024  0.00  0.00    +0.100 C 
ATOM     21  C   UNL     1      35.241 -17.807 -23.247  0.00  0.00    +0.100 C 
ENDBRANCH  13  17
ENDBRANCH  11  14
ENDBRANCH   4  11
BRANCH   1  22
ATOM     22  C   UNL     1      31.954  -8.131 -21.671  0.00  0.00    +0.122 C 
BRANCH  22  24
ATOM     23 CL   UNL     1      33.965  -4.682 -26.152  0.00  0.00    -0.082 Cl
ATOM     24  C   UNL     1      32.458  -7.265 -22.794  0.00  0.00    -0.002 C 
ATOM     25  C   UNL     1      31.556  -6.734 -23.705  0.00  0.00    -0.002 C 
ATOM     26  C   UNL     1      33.818  -7.011 -22.903  0.00  0.00    -0.002 C 
ATOM     27  C   UNL     1      32.024  -5.932 -24.747  0.00  0.00    +0.011 C 
ATOM     28  C   UNL     1      34.286  -6.210 -23.945  0.00  0.00    +0.011 C 
ATOM     29  C   UNL     1      33.388  -5.670 -24.867  0.00  0.00    +0.058 C 
ENDBRANCH  22  24
ENDBRANCH   1  22
TORSDOF 5
ENDMDL
MODEL 6
REMARK VINA RESULT:      -9.9      3.444      7.088
REMARK  Name = 2929
REMARK  5 active torsions:
REMARK  status: ('A' for Active; 'I' for Inactive)
REMARK    1  A    between atoms: N_1  and  C_22
REMARK    2  A    between atoms: C_4  and  C_11
REMARK    3  A    between atoms: C_11  and  C_14
REMARK    4  A    between atoms: N_13  and  C_17
REMARK    5  A    between atoms: C_22  and  C_24
REMARK                            x       y       z     vdW  Elec       q    Type
REMARK                         _______ _______ _______ _____ _____    ______ ____
ROOT
ATOM      1  N   UNL     1      36.989 -23.475 -15.231  0.00  0.00    -0.281 N 
ATOM      2  C   UNL     1      37.669 -24.437 -14.520  0.00  0.00    +0.052 C 
ATOM      3  C   UNL     1      36.808 -24.896 -13.521  0.00  0.00    +0.018 C 
ATOM      4  C   UNL     1      35.589 -24.176 -13.658  0.00  0.00    +0.060 C 
ATOM      5  C   UNL     1      35.730 -23.310 -14.718  0.00  0.00    +0.069 C 
ATOM      6  C   UNL     1      38.968 -24.931 -14.684  0.00  0.00    +0.015 C 
ATOM      7  C   UNL     1      37.264 -25.897 -12.641  0.00  0.00    +0.001 C 
ATOM      8  C   UNL     1      39.398 -25.924 -13.799  0.00  0.00    +0.001 C 
ATOM      9  C   UNL     1      38.560 -26.401 -12.793  0.00  0.00    +0.000 C 
ENDROOT
BRANCH   4  11
ATOM     10  O   UNL     1      34.364 -24.246 -11.624  0.00  0.00    -0.282 OA
ATOM     11  C   UNL     1      34.397 -24.292 -12.866  0.00  0.00    +0.250 C 
BRANCH  11  14
ATOM     12  O   UNL     1      32.560 -25.621 -13.418  0.00  0.00    -0.266 OA
ATOM     13  N   UNL     1      32.537 -23.332 -14.028  0.00  0.00    -0.278 N 
ATOM     14  C   UNL     1      33.029 -24.498 -13.480  0.00  0.00    +0.289 C 
ATOM     15  H   UNL     1      33.111 -22.535 -13.956  0.00  0.00    +0.155 HD
BRANCH  13  17
ATOM     16  N   UNL     1      28.855 -22.812 -15.960  0.00  0.00    -0.242 NA
ATOM     17  C   UNL     1      31.295 -23.158 -14.680  0.00  0.00    +0.054 C 
ATOM     18  C   UNL     1      30.166 -22.895 -13.930  0.00  0.00    +0.035 C 
ATOM     19  C   UNL     1      31.231 -23.252 -16.056  0.00  0.00    +0.035 C 
ATOM     20  C   UNL     1      28.973 -22.730 -14.616  0.00  0.00    +0.100 C 
ATOM     21  C   UNL     1      29.991 -23.072 -16.647  0.00  0.00    +0.100 C 
ENDBRANCH  13  17
ENDBRANCH  11  14
ENDBRANCH   4  11
BRANCH   1  22
ATOM     22  C   UNL     1      37.512 -22.734 -16.360  0.00  0.00    +0.122 C 
BRANCH  22  24
ATOM     23 CL   UNL     1      33.181 -21.392 -20.292  0.00  0.00    -0.082 Cl
ATOM     24  C   UNL     1      36.426 -22.398 -17.347  0.00  0.00    -0.002 C 
ATOM     25  C   UNL     1      36.724 -21.609 -18.449  0.00  0.00    -0.002 C 
ATOM     26  C   UNL     1      35.141 -22.881 -17.140  0.00  0.00    -0.002 C 
ATOM     27  C   UNL     1      35.718 -21.297 -19.363  0.00  0.00    +0.011 C 
ATOM     28  C   UNL     1      34.135 -22.569 -18.053  0.00  0.00    +0.011 C 
ATOM     29  C   UNL     1      34.423 -21.777 -19.165  0.00  0.00    +0.058 C 
ENDBRANCH  22  24
ENDBRANCH   1  22
TORSDOF 5
ENDMDL
MODEL 7
REMARK VINA RESULT:      -9.8      6.192      9.954
REMARK  Name = 2929
REMARK  5 active torsions:
REMARK  status: ('A' for Active; 'I' for Inactive)
REMARK    1  A    between atoms: N_1  and  C_22
REMARK    2  A    between atoms: C_4  and  C_11
REMARK    3  A    between atoms: C_11  and  C_14
REMARK    4  A    between atoms: N_13  and  C_17
REMARK    5  A    between atoms: C_22  and  C_24
REMARK                            x       y       z     vdW  Elec       q    Type
REMARK                         _______ _______ _______ _____ _____    ______ ____
ROOT
ATOM      1  N   UNL     1      35.409 -17.235 -22.799  0.00  0.00    -0.281 N 
ATOM      2  C   UNL     1      34.697 -16.447 -21.924  0.00  0.00    +0.052 C 
ATOM      3  C   UNL     1      33.941 -15.559 -22.692  0.00  0.00    +0.018 C 
ATOM      4  C   UNL     1      34.225 -15.842 -24.057  0.00  0.00    +0.060 C 
ATOM      5  C   UNL     1      35.131 -16.877 -24.091  0.00  0.00    +0.069 C 
ATOM      6  C   UNL     1      34.664 -16.453 -20.525  0.00  0.00    +0.015 C 
ATOM      7  C   UNL     1      33.112 -14.629 -22.034  0.00  0.00    +0.001 C 
ATOM      8  C   UNL     1      33.834 -15.522 -19.894  0.00  0.00    +0.001 C 
ATOM      9  C   UNL     1      33.068 -14.624 -20.635  0.00  0.00    +0.000 C 
ENDROOT
BRANCH   4  11
ATOM     10  O   UNL     1      33.311 -15.790 -26.249  0.00  0.00    -0.282 OA
ATOM     11  C   UNL     1      33.693 -15.198 -25.225  0.00  0.00    +0.250 C 
BRANCH  11  14
ATOM     12  O   UNL     1      33.105 -13.256 -26.377  0.00  0.00    -0.266 OA
ATOM     13  N   UNL     1      33.979 -13.062 -24.183  0.00  0.00    -0.278 N 
ATOM     14  C   UNL     1      33.554 -13.695 -25.332  0.00  0.00    +0.289 C 
ATOM     15  H   UNL     1      34.309 -13.641 -23.458  0.00  0.00    +0.155 HD
BRANCH  13  17
ATOM     16  N   UNL     1      34.007  -8.937 -23.447  0.00  0.00    -0.242 NA
ATOM     17  C   UNL     1      33.989 -11.670 -23.934  0.00  0.00    +0.054 C 
ATOM     18  C   UNL     1      34.993 -10.891 -24.474  0.00  0.00    +0.035 C 
ATOM     19  C   UNL     1      32.994 -11.113 -23.155  0.00  0.00    +0.035 C 
ATOM     20  C   UNL     1      34.957  -9.533 -24.201  0.00  0.00    +0.100 C 
ATOM     21  C   UNL     1      33.048  -9.745 -22.941  0.00  0.00    +0.100 C 
ENDBRANCH  13  17
ENDBRANCH  11  14
ENDBRANCH   4  11
BRANCH   1  22
ATOM     22  C   UNL     1      36.325 -18.293 -22.425  0.00  0.00    +0.122 C 
BRANCH  22  24
ATOM     23 CL   UNL     1      33.677 -22.318 -18.846  0.00  0.00    -0.082 Cl
ATOM     24  C   UNL     1      35.661 -19.302 -21.527  0.00  0.00    -0.002 C 
ATOM     25  C   UNL     1      36.426 -20.010 -20.611  0.00  0.00    -0.002 C 
ATOM     26  C   UNL     1      34.292 -19.510 -21.628  0.00  0.00    -0.002 C 
ATOM     27  C   UNL     1      35.810 -20.945 -19.779  0.00  0.00    +0.011 C 
ATOM     28  C   UNL     1      33.677 -20.446 -20.797  0.00  0.00    +0.011 C 
ATOM     29  C   UNL     1      34.436 -21.163 -19.872  0.00  0.00    +0.058 C 
ENDBRANCH  22  24
ENDBRANCH   1  22
TORSDOF 5
ENDMDL
MODEL 8
REMARK VINA RESULT:      -9.8      5.737      9.697
REMARK  Name = 2929
REMARK  5 active torsions:
REMARK  status: ('A' for Active; 'I' for Inactive)
REMARK    1  A    between atoms: N_1  and  C_22
REMARK    2  A    between atoms: C_4  and  C_11
REMARK    3  A    between atoms: C_11  and  C_14
REMARK    4  A    between atoms: N_13  and  C_17
REMARK    5  A    between atoms: C_22  and  C_24
REMARK                            x       y       z     vdW  Elec       q    Type
REMARK                         _______ _______ _______ _____ _____    ______ ____
ROOT
ATOM      1  N   UNL     1      35.177 -17.775 -21.739  0.00  0.00    -0.281 N 
ATOM      2  C   UNL     1      34.850 -17.142 -22.917  0.00  0.00    +0.052 C 
ATOM      3  C   UNL     1      34.063 -16.038 -22.587  0.00  0.00    +0.018 C 
ATOM      4  C   UNL     1      33.928 -16.030 -21.171  0.00  0.00    +0.060 C 
ATOM      5  C   UNL     1      34.624 -17.109 -20.677  0.00  0.00    +0.069 C 
ATOM      6  C   UNL     1      35.189 -17.462 -24.237  0.00  0.00    +0.015 C 
ATOM      7  C   UNL     1      33.588 -15.211 -23.624  0.00  0.00    +0.001 C 
ATOM      8  C   UNL     1      34.707 -16.626 -25.248  0.00  0.00    +0.001 C 
ATOM      9  C   UNL     1      33.919 -15.517 -24.948  0.00  0.00    +0.000 C 
ENDROOT
BRANCH   4  11
ATOM     10  O   UNL     1      32.376 -15.399 -19.487  0.00  0.00    -0.282 OA
ATOM     11  C   UNL     1      33.212 -15.092 -20.354  0.00  0.00    +0.250 C 
BRANCH  11  14
ATOM     12  O   UNL     1      34.525 -13.199 -20.727  0.00  0.00    -0.266 OA
ATOM     13  N   UNL     1      32.215 -12.916 -20.284  0.00  0.00    -0.278 N 
ATOM     14  C   UNL     1      33.399 -13.595 -20.481  0.00  0.00    +0.289 C 
ATOM     15  H   UNL     1      31.420 -13.464 -20.092  0.00  0.00    +0.155 HD
BRANCH  13  17
ATOM     16  N   UNL     1      31.642  -8.767 -20.419  0.00  0.00    -0.242 NA
ATOM     17  C   UNL     1      32.021 -11.516 -20.329  0.00  0.00    +0.054 C 
ATOM     18  C   UNL     1      31.974 -10.798 -19.151  0.00  0.00    +0.035 C 
ATOM     19  C   UNL     1      31.883 -10.890 -21.552  0.00  0.00    +0.035 C 
ATOM     20  C   UNL     1      31.783  -9.429 -19.249  0.00  0.00    +0.100 C 
ATOM     21  C   UNL     1      31.695  -9.517 -21.543  0.00  0.00    +0.100 C 
ENDBRANCH  13  17
ENDBRANCH  11  14
ENDBRANCH   4  11
BRANCH   1  22
ATOM     22  C   UNL     1      35.986 -18.970 -21.620  0.00  0.00    +0.122 C 
BRANCH  22  24
ATOM     23 CL   UNL     1      33.328 -23.070 -18.135  0.00  0.00    -0.082 Cl
ATOM     24  C   UNL     1      35.319 -19.999 -20.747  0.00  0.00    -0.002 C 
ATOM     25  C   UNL     1      33.934 -20.087 -20.731  0.00  0.00    -0.002 C 
ATOM     26  C   UNL     1      36.099 -20.843 -19.969  0.00  0.00    -0.002 C 
ATOM     27  C   UNL     1      33.316 -21.041 -19.921  0.00  0.00    +0.011 C 
ATOM     28  C   UNL     1      35.481 -21.796 -19.158  0.00  0.00    +0.011 C 
ATOM     29  C   UNL     1      34.090 -21.895 -19.135  0.00  0.00    +0.058 C 
ENDBRANCH  22  24
ENDBRANCH   1  22
TORSDOF 5
ENDMDL
MODEL 9
REMARK VINA RESULT:      -9.6      2.789      5.299
REMARK  Name = 2929
REMARK  5 active torsions:
REMARK  status: ('A' for Active; 'I' for Inactive)
REMARK    1  A    between atoms: N_1  and  C_22
REMARK    2  A    between atoms: C_4  and  C_11
REMARK    3  A    between atoms: C_11  and  C_14
REMARK    4  A    between atoms: N_13  and  C_17
REMARK    5  A    between atoms: C_22  and  C_24
REMARK                            x       y       z     vdW  Elec       q    Type
REMARK                         _______ _______ _______ _____ _____    ______ ____
ROOT
ATOM      1  N   UNL     1      35.000 -24.142 -13.582  0.00  0.00    -0.281 N 
ATOM      2  C   UNL     1      36.148 -24.890 -13.448  0.00  0.00    +0.052 C 
ATOM      3  C   UNL     1      37.010 -24.510 -14.478  0.00  0.00    +0.018 C 
ATOM      4  C   UNL     1      36.341 -23.508 -15.234  0.00  0.00    +0.060 C 
ATOM      5  C   UNL     1      35.107 -23.303 -14.659  0.00  0.00    +0.069 C 
ATOM      6  C   UNL     1      36.483 -25.865 -12.501  0.00  0.00    +0.015 C 
ATOM      7  C   UNL     1      38.270 -25.133 -14.571  0.00  0.00    +0.001 C 
ATOM      8  C   UNL     1      37.739 -26.469 -12.613  0.00  0.00    +0.001 C 
ATOM      9  C   UNL     1      38.620 -26.110 -13.631  0.00  0.00    +0.000 C 
ENDROOT
BRANCH   4  11
ATOM     10  O   UNL     1      38.001 -22.482 -16.588  0.00  0.00    -0.282 OA
ATOM     11  C   UNL     1      36.817 -22.806 -16.392  0.00  0.00    +0.250 C 
BRANCH  11  14
ATOM     12  O   UNL     1      34.769 -22.829 -17.511  0.00  0.00    -0.266 OA
ATOM     13  N   UNL     1      36.525 -21.491 -18.371  0.00  0.00    -0.278 N 
ATOM     14  C   UNL     1      35.897 -22.368 -17.511  0.00  0.00    +0.289 C 
ATOM     15  H   UNL     1      37.460 -21.263 -18.162  0.00  0.00    +0.155 HD
BRANCH  13  17
ATOM     16  N   UNL     1      34.877 -19.686 -21.774  0.00  0.00    -0.242 NA
ATOM     17  C   UNL     1      35.969 -20.883 -19.520  0.00  0.00    +0.054 C 
ATOM     18  C   UNL     1      34.639 -21.093 -19.823  0.00  0.00    +0.035 C 
ATOM     19  C   UNL     1      36.766 -20.087 -20.319  0.00  0.00    +0.035 C 
ATOM     20  C   UNL     1      34.141 -20.474 -20.958  0.00  0.00    +0.100 C 
ATOM     21  C   UNL     1      36.174 -19.513 -21.433  0.00  0.00    +0.100 C 
ENDBRANCH  13  17
ENDBRANCH  11  14
ENDBRANCH   4  11
BRANCH   1  22
ATOM     22  C   UNL     1      33.839 -24.217 -12.720  0.00  0.00    +0.122 C 
BRANCH  22  24
ATOM     23 CL   UNL     1      28.776 -24.720 -15.902  0.00  0.00    -0.082 Cl
ATOM     24  C   UNL     1      32.570 -24.343 -13.519  0.00  0.00    -0.002 C 
ATOM     25  C   UNL     1      32.165 -23.292 -14.330  0.00  0.00    -0.002 C 
ATOM     26  C   UNL     1      31.821 -25.509 -13.432  0.00  0.00    -0.002 C 
ATOM     27  C   UNL     1      30.988 -23.409 -15.070  0.00  0.00    +0.011 C 
ATOM     28  C   UNL     1      30.644 -25.625 -14.171  0.00  0.00    +0.011 C 
ATOM     29  C   UNL     1      30.228 -24.576 -14.991  0.00  0.00    +0.058 C 
ENDBRANCH  22  24
ENDBRANCH   1  22
TORSDOF 5
ENDMDL
