MODEL 1
REMARK VINA RESULT:     -12.0      0.000      0.000
REMARK  Name = 66555680
REMARK  4 active torsions:
REMARK  status: ('A' for Active; 'I' for Inactive)
REMARK    1  A    between atoms: N_1  and  C_8
REMARK    2  A    between atoms: C_3  and  C_22
REMARK    3  A    between atoms: C_4  and  N_18
REMARK    4  A    between atoms: C_22  and  C_24
REMARK                            x       y       z     vdW  Elec       q    Type
REMARK                         _______ _______ _______ _____ _____    ______ ____
ROOT
ATOM      1  N   UNL     1      35.305 -19.962 -20.643  0.00  0.00    -0.177 N 
ATOM      2  N   UNL     1      36.541 -20.274 -20.219  0.00  0.00    -0.171 NA
ATOM      3  C   UNL     1      34.972 -21.681 -19.338  0.00  0.00    +0.090 C 
ATOM      4  C   UNL     1      34.329 -20.774 -20.145  0.00  0.00    +0.122 C 
ATOM      5  C   UNL     1      36.331 -21.326 -19.422  0.00  0.00    +0.124 C 
ENDROOT
BRANCH   1   8
ATOM      6  N   UNL     1      34.533 -15.225 -21.752  0.00  0.00    -0.318 N 
ATOM      7  N   UNL     1      34.591 -15.566 -23.948  0.00  0.00    -0.318 N 
ATOM      8  C   UNL     1      35.131 -18.885 -21.515  0.00  0.00    +0.077 C 
ATOM      9  C   UNL     1      34.753 -16.570 -21.909  0.00  0.00    +0.060 C 
ATOM     10  C   UNL     1      34.922 -17.606 -20.990  0.00  0.00    +0.032 C 
ATOM     11  C   UNL     1      34.784 -16.757 -23.287  0.00  0.00    +0.059 C 
ATOM     12  C   UNL     1      35.167 -19.105 -22.894  0.00  0.00    +0.018 C 
ATOM     13  C   UNL     1      34.995 -18.050 -23.798  0.00  0.00    +0.017 C 
ATOM     14  C   UNL     1      34.444 -14.669 -22.999  0.00  0.00    +0.144 C 
ATOM     15  C   UNL     1      34.209 -13.225 -23.178  0.00  0.00    +0.044 C 
ATOM     16  H   UNL     1      34.455 -14.745 -20.896  0.00  0.00    +0.148 HD
ATOM     17  H   UNL     1      34.567 -15.418 -24.921  0.00  0.00    +0.148 HD
ENDBRANCH   1   8
BRANCH   4  18
ATOM     18  N   UNL     1      33.027 -20.610 -20.463  0.00  0.00    -0.344 N 
ATOM     19  H   UNL     1      32.393 -20.273 -19.789  0.00  0.00    +0.144 HD
ATOM     20  H   UNL     1      32.710 -20.828 -21.369  0.00  0.00    +0.144 HD
ENDBRANCH   4  18
BRANCH   3  22
ATOM     21  O   UNL     1      33.458 -23.456 -19.169  0.00  0.00    -0.285 OA
ATOM     22  C   UNL     1      34.328 -22.797 -18.554  0.00  0.00    +0.213 C 
BRANCH  22  24
ATOM     23  N   UNL     1      35.917 -22.912 -16.669  0.00  0.00    -0.310 N 
ATOM     24  C   UNL     1      34.669 -23.100 -17.200  0.00  0.00    +0.088 C 
ATOM     25  C   UNL     1      35.934 -23.296 -15.347  0.00  0.00    +0.048 C 
ATOM     26  C   UNL     1      34.649 -23.744 -15.032  0.00  0.00    +0.015 C 
ATOM     27  C   UNL     1      33.862 -23.615 -16.211  0.00  0.00    +0.019 C 
ATOM     28  C   UNL     1      36.978 -23.283 -14.415  0.00  0.00    +0.015 C 
ATOM     29  C   UNL     1      34.391 -24.199 -13.725  0.00  0.00    +0.001 C 
ATOM     30  C   UNL     1      36.698 -23.739 -13.125  0.00  0.00    +0.001 C 
ATOM     31  C   UNL     1      35.425 -24.191 -12.783  0.00  0.00    +0.000 C 
ATOM     32  H   UNL     1      36.691 -22.554 -17.162  0.00  0.00    +0.152 HD
ENDBRANCH  22  24
ENDBRANCH   3  22
TORSDOF 4
ENDMDL
MODEL 2
REMARK VINA RESULT:     -11.9      2.765      5.458
REMARK  Name = 66555680
REMARK  4 active torsions:
REMARK  status: ('A' for Active; 'I' for Inactive)
REMARK    1  A    between atoms: N_1  and  C_8
REMARK    2  A    between atoms: C_3  and  C_22
REMARK    3  A    between atoms: C_4  and  N_18
REMARK    4  A    between atoms: C_22  and  C_24
REMARK                            x       y       z     vdW  Elec       q    Type
REMARK                         _______ _______ _______ _____ _____    ______ ____
ROOT
ATOM      1  N   UNL     1      34.190 -15.581 -22.653  0.00  0.00    -0.177 N 
ATOM      2  N   UNL     1      34.291 -15.964 -23.937  0.00  0.00    -0.171 NA
ATOM      3  C   UNL     1      35.298 -17.459 -22.535  0.00  0.00    +0.090 C 
ATOM      4  C   UNL     1      34.777 -16.442 -21.773  0.00  0.00    +0.122 C 
ATOM      5  C   UNL     1      34.969 -17.112 -23.859  0.00  0.00    +0.124 C 
ENDROOT
BRANCH   1   8
ATOM      6  N   UNL     1      33.149 -10.798 -23.207  0.00  0.00    -0.318 N 
ATOM      7  N   UNL     1      31.657 -10.770 -21.559  0.00  0.00    -0.318 N 
ATOM      8  C   UNL     1      33.526 -14.393 -22.341  0.00  0.00    +0.077 C 
ATOM      9  C   UNL     1      33.120 -12.079 -22.717  0.00  0.00    +0.060 C 
ATOM     10  C   UNL     1      33.813 -13.236 -23.073  0.00  0.00    +0.032 C 
ATOM     11  C   UNL     1      32.182 -12.035 -21.690  0.00  0.00    +0.059 C 
ATOM     12  C   UNL     1      32.590 -14.380 -21.305  0.00  0.00    +0.018 C 
ATOM     13  C   UNL     1      31.906 -13.207 -20.964  0.00  0.00    +0.017 C 
ATOM     14  C   UNL     1      32.258 -10.055 -22.483  0.00  0.00    +0.144 C 
ATOM     15  C   UNL     1      32.050  -8.622 -22.764  0.00  0.00    +0.044 C 
ATOM     16  H   UNL     1      33.710 -10.473 -23.947  0.00  0.00    +0.148 HD
ATOM     17  H   UNL     1      30.978 -10.466 -20.913  0.00  0.00    +0.148 HD
ENDBRANCH   1   8
BRANCH   4  18
ATOM     18  N   UNL     1      34.774 -16.220 -20.441  0.00  0.00    -0.344 N 
ATOM     19  H   UNL     1      35.625 -16.136 -19.953  0.00  0.00    +0.144 HD
ATOM     20  H   UNL     1      33.921 -16.142 -19.957  0.00  0.00    +0.144 HD
ENDBRANCH   4  18
BRANCH   3  22
ATOM     21  O   UNL     1      37.221 -18.790 -22.458  0.00  0.00    -0.285 OA
ATOM     22  C   UNL     1      36.050 -18.664 -22.028  0.00  0.00    +0.213 C 
BRANCH  22  24
ATOM     23  N   UNL     1      36.231 -20.386 -20.270  0.00  0.00    -0.310 N 
ATOM     24  C   UNL     1      35.487 -19.614 -21.121  0.00  0.00    +0.088 C 
ATOM     25  C   UNL     1      35.408 -21.200 -19.525  0.00  0.00    +0.048 C 
ATOM     26  C   UNL     1      34.096 -20.932 -19.922  0.00  0.00    +0.015 C 
ATOM     27  C   UNL     1      34.162 -19.929 -20.930  0.00  0.00    +0.019 C 
ATOM     28  C   UNL     1      35.720 -22.144 -18.541  0.00  0.00    +0.015 C 
ATOM     29  C   UNL     1      33.044 -21.638 -19.308  0.00  0.00    +0.001 C 
ATOM     30  C   UNL     1      34.660 -22.833 -17.945  0.00  0.00    +0.001 C 
ATOM     31  C   UNL     1      33.341 -22.585 -18.321  0.00  0.00    +0.000 C 
ATOM     32  H   UNL     1      37.213 -20.362 -20.200  0.00  0.00    +0.152 HD
ENDBRANCH  22  24
ENDBRANCH   3  22
TORSDOF 4
ENDMDL
MODEL 3
REMARK VINA RESULT:     -11.7      2.909      9.242
REMARK  Name = 66555680
REMARK  4 active torsions:
REMARK  status: ('A' for Active; 'I' for Inactive)
REMARK    1  A    between atoms: N_1  and  C_8
REMARK    2  A    between atoms: C_3  and  C_22
REMARK    3  A    between atoms: C_4  and  N_18
REMARK    4  A    between atoms: C_22  and  C_24
REMARK                            x       y       z     vdW  Elec       q    Type
REMARK                         _______ _______ _______ _____ _____    ______ ____
ROOT
ATOM      1  N   UNL     1      34.835 -19.347 -21.850  0.00  0.00    -0.177 N 
ATOM      2  N   UNL     1      34.609 -19.763 -23.108  0.00  0.00    -0.171 NA
ATOM      3  C   UNL     1      34.889 -17.498 -23.011  0.00  0.00    +0.090 C 
ATOM      4  C   UNL     1      35.009 -17.998 -21.737  0.00  0.00    +0.122 C 
ATOM      5  C   UNL     1      34.644 -18.628 -23.813  0.00  0.00    +0.124 C 
ENDROOT
BRANCH   1   8
ATOM      6  N   UNL     1      32.820 -22.293 -18.455  0.00  0.00    -0.318 N 
ATOM      7  N   UNL     1      34.777 -23.057 -17.728  0.00  0.00    -0.318 N 
ATOM      8  C   UNL     1      34.871 -20.283 -20.814  0.00  0.00    +0.077 C 
ATOM      9  C   UNL     1      33.767 -21.659 -19.218  0.00  0.00    +0.060 C 
ATOM     10  C   UNL     1      33.670 -20.725 -20.249  0.00  0.00    +0.032 C 
ATOM     11  C   UNL     1      34.979 -22.152 -18.745  0.00  0.00    +0.059 C 
ATOM     12  C   UNL     1      36.103 -20.759 -20.360  0.00  0.00    +0.018 C 
ATOM     13  C   UNL     1      36.176 -21.697 -19.323  0.00  0.00    +0.017 C 
ATOM     14  C   UNL     1      33.472 -23.117 -17.580  0.00  0.00    +0.144 C 
ATOM     15  C   UNL     1      32.731 -23.948 -16.613  0.00  0.00    +0.044 C 
ATOM     16  H   UNL     1      31.845 -22.177 -18.526  0.00  0.00    +0.148 HD
ATOM     17  H   UNL     1      35.460 -23.551 -17.220  0.00  0.00    +0.148 HD
ENDBRANCH   1   8
BRANCH   4  18
ATOM     18  N   UNL     1      35.247 -17.402 -20.549  0.00  0.00    -0.344 N 
ATOM     19  H   UNL     1      36.172 -17.222 -20.264  0.00  0.00    +0.144 HD
ATOM     20  H   UNL     1      34.494 -17.147 -19.967  0.00  0.00    +0.144 HD
ENDBRANCH   4  18
BRANCH   3  22
ATOM     21  O   UNL     1      35.857 -15.804 -24.301  0.00  0.00    -0.285 OA
ATOM     22  C   UNL     1      35.002 -16.050 -23.419  0.00  0.00    +0.213 C 
BRANCH  22  24
ATOM     23  N   UNL     1      33.542 -15.127 -21.657  0.00  0.00    -0.310 N 
ATOM     24  C   UNL     1      34.202 -15.012 -22.850  0.00  0.00    +0.088 C 
ATOM     25  C   UNL     1      32.857 -13.965 -21.378  0.00  0.00    +0.048 C 
ATOM     26  C   UNL     1      33.095 -13.084 -22.435  0.00  0.00    +0.015 C 
ATOM     27  C   UNL     1      33.945 -13.759 -23.357  0.00  0.00    +0.019 C 
ATOM     28  C   UNL     1      32.055 -13.630 -20.282  0.00  0.00    +0.015 C 
ATOM     29  C   UNL     1      32.505 -11.806 -22.399  0.00  0.00    +0.001 C 
ATOM     30  C   UNL     1      31.479 -12.357 -20.268  0.00  0.00    +0.001 C 
ATOM     31  C   UNL     1      31.699 -11.457 -21.309  0.00  0.00    +0.000 C 
ATOM     32  H   UNL     1      33.554 -15.926 -21.081  0.00  0.00    +0.152 HD
ENDBRANCH  22  24
ENDBRANCH   3  22
TORSDOF 4
ENDMDL
MODEL 4
REMARK VINA RESULT:     -11.4      2.670      5.276
REMARK  Name = 66555680
REMARK  4 active torsions:
REMARK  status: ('A' for Active; 'I' for Inactive)
REMARK    1  A    between atoms: N_1  and  C_8
REMARK    2  A    between atoms: C_3  and  C_22
REMARK    3  A    between atoms: C_4  and  N_18
REMARK    4  A    between atoms: C_22  and  C_24
REMARK                            x       y       z     vdW  Elec       q    Type
REMARK                         _______ _______ _______ _____ _____    ______ ____
ROOT
ATOM      1  N   UNL     1      34.269 -15.799 -22.567  0.00  0.00    -0.177 N 
ATOM      2  N   UNL     1      34.369 -16.164 -23.857  0.00  0.00    -0.171 NA
ATOM      3  C   UNL     1      35.340 -17.701 -22.473  0.00  0.00    +0.090 C 
ATOM      4  C   UNL     1      34.835 -16.686 -21.697  0.00  0.00    +0.122 C 
ATOM      5  C   UNL     1      35.024 -17.327 -23.793  0.00  0.00    +0.124 C 
ENDROOT
BRANCH   1   8
ATOM      6  N   UNL     1      31.629 -12.828 -19.658  0.00  0.00    -0.318 N 
ATOM      7  N   UNL     1      31.662 -11.131 -21.094  0.00  0.00    -0.318 N 
ATOM      8  C   UNL     1      33.627 -14.603 -22.240  0.00  0.00    +0.077 C 
ATOM      9  C   UNL     1      32.346 -13.276 -20.737  0.00  0.00    +0.060 C 
ATOM     10  C   UNL     1      32.970 -14.493 -21.009  0.00  0.00    +0.032 C 
ATOM     11  C   UNL     1      32.353 -12.199 -21.619  0.00  0.00    +0.059 C 
ATOM     12  C   UNL     1      33.650 -13.541 -23.146  0.00  0.00    +0.018 C 
ATOM     13  C   UNL     1      33.017 -12.328 -22.851  0.00  0.00    +0.017 C 
ATOM     14  C   UNL     1      31.242 -11.542 -19.919  0.00  0.00    +0.144 C 
ATOM     15  C   UNL     1      30.449 -10.769 -18.946  0.00  0.00    +0.044 C 
ATOM     16  H   UNL     1      31.429 -13.339 -18.841  0.00  0.00    +0.148 HD
ATOM     17  H   UNL     1      31.515 -10.250 -21.509  0.00  0.00    +0.148 HD
ENDBRANCH   1   8
BRANCH   4  18
ATOM     18  N   UNL     1      34.829 -16.484 -20.362  0.00  0.00    -0.344 N 
ATOM     19  H   UNL     1      34.090 -16.835 -19.814  0.00  0.00    +0.144 HD
ATOM     20  H   UNL     1      35.563 -15.986 -19.936  0.00  0.00    +0.144 HD
ENDBRANCH   4  18
BRANCH   3  22
ATOM     21  O   UNL     1      37.211 -19.105 -22.458  0.00  0.00    -0.285 OA
ATOM     22  C   UNL     1      36.065 -18.928 -21.981  0.00  0.00    +0.213 C 
BRANCH  22  24
ATOM     23  N   UNL     1      36.251 -20.573 -20.152  0.00  0.00    -0.310 N 
ATOM     24  C   UNL     1      35.505 -19.843 -21.038  0.00  0.00    +0.088 C 
ATOM     25  C   UNL     1      35.430 -21.363 -19.377  0.00  0.00    +0.048 C 
ATOM     26  C   UNL     1      34.118 -21.121 -19.790  0.00  0.00    +0.015 C 
ATOM     27  C   UNL     1      34.181 -20.160 -20.839  0.00  0.00    +0.019 C 
ATOM     28  C   UNL     1      35.745 -22.262 -18.354  0.00  0.00    +0.015 C 
ATOM     29  C   UNL     1      33.068 -21.808 -19.152  0.00  0.00    +0.001 C 
ATOM     30  C   UNL     1      34.687 -22.933 -17.734  0.00  0.00    +0.001 C 
ATOM     31  C   UNL     1      33.368 -22.712 -18.126  0.00  0.00    +0.000 C 
ATOM     32  H   UNL     1      37.232 -20.540 -20.079  0.00  0.00    +0.152 HD
ENDBRANCH  22  24
ENDBRANCH   3  22
TORSDOF 4
ENDMDL
MODEL 5
REMARK VINA RESULT:     -11.2      1.584      2.291
REMARK  Name = 66555680
REMARK  4 active torsions:
REMARK  status: ('A' for Active; 'I' for Inactive)
REMARK    1  A    between atoms: N_1  and  C_8
REMARK    2  A    between atoms: C_3  and  C_22
REMARK    3  A    between atoms: C_4  and  N_18
REMARK    4  A    between atoms: C_22  and  C_24
REMARK                            x       y       z     vdW  Elec       q    Type
REMARK                         _______ _______ _______ _____ _____    ______ ____
ROOT
ATOM      1  N   UNL     1      35.122 -20.209 -20.463  0.00  0.00    -0.177 N 
ATOM      2  N   UNL     1      36.287 -20.539 -19.878  0.00  0.00    -0.171 NA
ATOM      3  C   UNL     1      34.654 -22.067 -19.414  0.00  0.00    +0.090 C 
ATOM      4  C   UNL     1      34.112 -21.092 -20.216  0.00  0.00    +0.122 C 
ATOM      5  C   UNL     1      35.994 -21.675 -19.240  0.00  0.00    +0.124 C 
ENDROOT
BRANCH   1   8
ATOM      6  N   UNL     1      34.376 -15.393 -21.181  0.00  0.00    -0.318 N 
ATOM      7  N   UNL     1      34.772 -15.497 -23.366  0.00  0.00    -0.318 N 
ATOM      8  C   UNL     1      35.046 -19.048 -21.235  0.00  0.00    +0.077 C 
ATOM      9  C   UNL     1      34.659 -16.710 -21.440  0.00  0.00    +0.060 C 
ATOM     10  C   UNL     1      34.721 -17.836 -20.619  0.00  0.00    +0.032 C 
ATOM     11  C   UNL     1      34.902 -16.749 -22.810  0.00  0.00    +0.059 C 
ATOM     12  C   UNL     1      35.295 -19.119 -22.608  0.00  0.00    +0.018 C 
ATOM     13  C   UNL     1      35.228 -17.975 -23.413  0.00  0.00    +0.017 C 
ATOM     14  C   UNL     1      34.456 -14.709 -22.362  0.00  0.00    +0.144 C 
ATOM     15  C   UNL     1      34.205 -13.258 -22.425  0.00  0.00    +0.044 C 
ATOM     16  H   UNL     1      34.156 -15.009 -20.302  0.00  0.00    +0.148 HD
ATOM     17  H   UNL     1      34.889 -15.245 -24.311  0.00  0.00    +0.148 HD
ENDBRANCH   1   8
BRANCH   4  18
ATOM     18  N   UNL     1      32.871 -20.923 -20.722  0.00  0.00    -0.344 N 
ATOM     19  H   UNL     1      32.732 -20.917 -21.696  0.00  0.00    +0.144 HD
ATOM     20  H   UNL     1      32.105 -20.804 -20.115  0.00  0.00    +0.144 HD
ENDBRANCH   4  18
BRANCH   3  22
ATOM     21  O   UNL     1      33.890 -24.267 -19.628  0.00  0.00    -0.285 OA
ATOM     22  C   UNL     1      33.938 -23.275 -18.864  0.00  0.00    +0.213 C 
BRANCH  22  24
ATOM     23  N   UNL     1      32.008 -23.131 -17.334  0.00  0.00    -0.310 N 
ATOM     24  C   UNL     1      33.345 -23.310 -17.564  0.00  0.00    +0.088 C 
ATOM     25  C   UNL     1      31.742 -23.218 -15.986  0.00  0.00    +0.048 C 
ATOM     26  C   UNL     1      32.958 -23.461 -15.342  0.00  0.00    +0.015 C 
ATOM     27  C   UNL     1      33.961 -23.516 -16.351  0.00  0.00    +0.019 C 
ATOM     28  C   UNL     1      30.532 -23.102 -15.293  0.00  0.00    +0.015 C 
ATOM     29  C   UNL     1      32.968 -23.595 -13.941  0.00  0.00    +0.001 C 
ATOM     30  C   UNL     1      30.567 -23.239 -13.903  0.00  0.00    +0.001 C 
ATOM     31  C   UNL     1      31.765 -23.482 -13.235  0.00  0.00    +0.000 C 
ATOM     32  H   UNL     1      31.333 -22.964 -18.031  0.00  0.00    +0.152 HD
ENDBRANCH  22  24
ENDBRANCH   3  22
TORSDOF 4
ENDMDL
MODEL 6
REMARK VINA RESULT:     -11.2      4.861     11.922
REMARK  Name = 66555680
REMARK  4 active torsions:
REMARK  status: ('A' for Active; 'I' for Inactive)
REMARK    1  A    between atoms: N_1  and  C_8
REMARK    2  A    between atoms: C_3  and  C_22
REMARK    3  A    between atoms: C_4  and  N_18
REMARK    4  A    between atoms: C_22  and  C_24
REMARK                            x       y       z     vdW  Elec       q    Type
REMARK                         _______ _______ _______ _____ _____    ______ ____
ROOT
ATOM      1  N   UNL     1      33.711 -14.039 -22.623  0.00  0.00    -0.177 N 
ATOM      2  N   UNL     1      34.139 -13.127 -23.512  0.00  0.00    -0.171 NA
ATOM      3  C   UNL     1      32.553 -12.258 -22.118  0.00  0.00    +0.090 C 
ATOM      4  C   UNL     1      32.761 -13.569 -21.764  0.00  0.00    +0.122 C 
ATOM      5  C   UNL     1      33.428 -12.041 -23.198  0.00  0.00    +0.124 C 
ENDROOT
BRANCH   1   8
ATOM      6  N   UNL     1      35.613 -18.101 -20.586  0.00  0.00    -0.318 N 
ATOM      7  N   UNL     1      35.861 -19.151 -22.530  0.00  0.00    -0.318 N 
ATOM      8  C   UNL     1      34.248 -15.328 -22.649  0.00  0.00    +0.077 C 
ATOM      9  C   UNL     1      35.153 -17.226 -21.536  0.00  0.00    +0.060 C 
ATOM     10  C   UNL     1      34.622 -15.939 -21.448  0.00  0.00    +0.032 C 
ATOM     11  C   UNL     1      35.318 -17.904 -22.740  0.00  0.00    +0.059 C 
ATOM     12  C   UNL     1      34.402 -15.983 -23.873  0.00  0.00    +0.018 C 
ATOM     13  C   UNL     1      34.937 -17.275 -23.938  0.00  0.00    +0.017 C 
ATOM     14  C   UNL     1      36.025 -19.236 -21.229  0.00  0.00    +0.144 C 
ATOM     15  C   UNL     1      36.578 -20.381 -20.483  0.00  0.00    +0.044 C 
ATOM     16  H   UNL     1      35.642 -17.942 -19.615  0.00  0.00    +0.148 HD
ATOM     17  H   UNL     1      36.079 -19.831 -23.207  0.00  0.00    +0.148 HD
ENDBRANCH   1   8
BRANCH   4  18
ATOM     18  N   UNL     1      32.215 -14.345 -20.803  0.00  0.00    -0.344 N 
ATOM     19  H   UNL     1      31.933 -13.946 -19.948  0.00  0.00    +0.144 HD
ATOM     20  H   UNL     1      32.099 -15.310 -20.957  0.00  0.00    +0.144 HD
ENDBRANCH   4  18
BRANCH   3  22
ATOM     21  O   UNL     1      30.707 -11.821 -20.748  0.00  0.00    -0.285 OA
ATOM     22  C   UNL     1      31.591 -11.296 -21.466  0.00  0.00    +0.213 C 
BRANCH  22  24
ATOM     23  N   UNL     1      31.422  -9.248 -22.831  0.00  0.00    -0.310 N 
ATOM     24  C   UNL     1      31.661  -9.880 -21.640  0.00  0.00    +0.088 C 
ATOM     25  C   UNL     1      31.566  -7.887 -22.684  0.00  0.00    +0.048 C 
ATOM     26  C   UNL     1      31.909  -7.652 -21.350  0.00  0.00    +0.015 C 
ATOM     27  C   UNL     1      31.965  -8.919 -20.704  0.00  0.00    +0.019 C 
ATOM     28  C   UNL     1      31.421  -6.856 -23.618  0.00  0.00    +0.015 C 
ATOM     29  C   UNL     1      32.118  -6.325 -20.927  0.00  0.00    +0.001 C 
ATOM     30  C   UNL     1      31.633  -5.548 -23.176  0.00  0.00    +0.001 C 
ATOM     31  C   UNL     1      31.976  -5.283 -21.851  0.00  0.00    +0.000 C 
ATOM     32  H   UNL     1      31.181  -9.701 -23.671  0.00  0.00    +0.152 HD
ENDBRANCH  22  24
ENDBRANCH   3  22
TORSDOF 4
ENDMDL
MODEL 7
REMARK VINA RESULT:     -11.1      1.854      9.584
REMARK  Name = 66555680
REMARK  4 active torsions:
REMARK  status: ('A' for Active; 'I' for Inactive)
REMARK    1  A    between atoms: N_1  and  C_8
REMARK    2  A    between atoms: C_3  and  C_22
REMARK    3  A    between atoms: C_4  and  N_18
REMARK    4  A    between atoms: C_22  and  C_24
REMARK                            x       y       z     vdW  Elec       q    Type
REMARK                         _______ _______ _______ _____ _____    ______ ____
ROOT
ATOM      1  N   UNL     1      34.576 -21.106 -19.696  0.00  0.00    -0.177 N 
ATOM      2  N   UNL     1      33.405 -20.842 -20.302  0.00  0.00    -0.171 NA
ATOM      3  C   UNL     1      35.126 -19.686 -21.262  0.00  0.00    +0.090 C 
ATOM      4  C   UNL     1      35.638 -20.439 -20.233  0.00  0.00    +0.122 C 
ATOM      5  C   UNL     1      33.748 -19.974 -21.258  0.00  0.00    +0.124 C 
ENDROOT
BRANCH   1   8
ATOM      6  N   UNL     1      36.725 -23.466 -15.945  0.00  0.00    -0.318 N 
ATOM      7  N   UNL     1      34.890 -24.596 -15.397  0.00  0.00    -0.318 N 
ATOM      8  C   UNL     1      34.607 -21.996 -18.620  0.00  0.00    +0.077 C 
ATOM      9  C   UNL     1      35.768 -23.065 -16.840  0.00  0.00    +0.060 C 
ATOM     10  C   UNL     1      35.796 -22.163 -17.903  0.00  0.00    +0.032 C 
ATOM     11  C   UNL     1      34.632 -23.784 -16.478  0.00  0.00    +0.059 C 
ATOM     12  C   UNL     1      33.451 -22.703 -18.281  0.00  0.00    +0.018 C 
ATOM     13  C   UNL     1      33.446 -23.604 -17.209  0.00  0.00    +0.017 C 
ATOM     14  C   UNL     1      36.153 -24.381 -15.104  0.00  0.00    +0.144 C 
ATOM     15  C   UNL     1      36.926 -25.009 -14.017  0.00  0.00    +0.044 C 
ATOM     16  H   UNL     1      37.658 -23.152 -15.912  0.00  0.00    +0.148 HD
ATOM     17  H   UNL     1      34.266 -25.206 -14.943  0.00  0.00    +0.148 HD
ENDBRANCH   1   8
BRANCH   4  18
ATOM     18  N   UNL     1      36.892 -20.581 -19.753  0.00  0.00    -0.344 N 
ATOM     19  H   UNL     1      37.280 -19.886 -19.174  0.00  0.00    +0.144 HD
ATOM     20  H   UNL     1      37.419 -21.380 -19.983  0.00  0.00    +0.144 HD
ENDBRANCH   4  18
BRANCH   3  22
ATOM     21  O   UNL     1      37.125 -19.019 -22.276  0.00  0.00    -0.285 OA
ATOM     22  C   UNL     1      35.902 -18.768 -22.173  0.00  0.00    +0.213 C 
BRANCH  22  24
ATOM     23  N   UNL     1      35.162 -16.421 -22.356  0.00  0.00    -0.310 N 
ATOM     24  C   UNL     1      35.305 -17.678 -22.879  0.00  0.00    +0.088 C 
ATOM     25  C   UNL     1      34.553 -15.592 -23.272  0.00  0.00    +0.048 C 
ATOM     26  C   UNL     1      34.303 -16.356 -24.414  0.00  0.00    +0.015 C 
ATOM     27  C   UNL     1      34.783 -17.670 -24.151  0.00  0.00    +0.019 C 
ATOM     28  C   UNL     1      34.208 -14.240 -23.178  0.00  0.00    +0.015 C 
ATOM     29  C   UNL     1      33.679 -15.741 -25.517  0.00  0.00    +0.001 C 
ATOM     30  C   UNL     1      33.590 -13.652 -24.284  0.00  0.00    +0.001 C 
ATOM     31  C   UNL     1      33.329 -14.389 -25.438  0.00  0.00    +0.000 C 
ATOM     32  H   UNL     1      35.453 -16.148 -21.456  0.00  0.00    +0.152 HD
ENDBRANCH  22  24
ENDBRANCH   3  22
TORSDOF 4
ENDMDL
MODEL 8
REMARK VINA RESULT:     -10.6      6.394     13.315
REMARK  Name = 66555680
REMARK  4 active torsions:
REMARK  status: ('A' for Active; 'I' for Inactive)
REMARK    1  A    between atoms: N_1  and  C_8
REMARK    2  A    between atoms: C_3  and  C_22
REMARK    3  A    between atoms: C_4  and  N_18
REMARK    4  A    between atoms: C_22  and  C_24
REMARK                            x       y       z     vdW  Elec       q    Type
REMARK                         _______ _______ _______ _____ _____    ______ ____
ROOT
ATOM      1  N   UNL     1      33.633 -12.362 -23.495  0.00  0.00    -0.177 N 
ATOM      2  N   UNL     1      34.381 -11.440 -24.125  0.00  0.00    -0.171 NA
ATOM      3  C   UNL     1      32.871 -10.470 -22.713  0.00  0.00    +0.090 C 
ATOM      4  C   UNL     1      32.713 -11.833 -22.638  0.00  0.00    +0.122 C 
ATOM      5  C   UNL     1      33.911 -10.286 -23.643  0.00  0.00    +0.124 C 
ENDROOT
BRANCH   1   8
ATOM      6  N   UNL     1      35.247 -16.891 -22.423  0.00  0.00    -0.318 N 
ATOM      7  N   UNL     1      34.576 -17.758 -24.357  0.00  0.00    -0.318 N 
ATOM      8  C   UNL     1      33.848 -13.716 -23.757  0.00  0.00    +0.077 C 
ATOM      9  C   UNL     1      34.674 -15.852 -23.112  0.00  0.00    +0.060 C 
ATOM     10  C   UNL     1      34.485 -14.507 -22.795  0.00  0.00    +0.032 C 
ATOM     11  C   UNL     1      34.263 -16.419 -24.315  0.00  0.00    +0.059 C 
ATOM     12  C   UNL     1      33.425 -14.257 -24.974  0.00  0.00    +0.018 C 
ATOM     13  C   UNL     1      33.625 -15.610 -25.270  0.00  0.00    +0.017 C 
ATOM     14  C   UNL     1      35.164 -18.008 -23.208  0.00  0.00    +0.144 C 
ATOM     15  C   UNL     1      35.694 -19.305 -22.752  0.00  0.00    +0.044 C 
ATOM     16  H   UNL     1      35.645 -16.841 -21.524  0.00  0.00    +0.148 HD
ATOM     17  H   UNL     1      34.398 -18.393 -25.089  0.00  0.00    +0.148 HD
ENDBRANCH   1   8
BRANCH   4  18
ATOM     18  N   UNL     1      31.874 -12.608 -21.918  0.00  0.00    -0.344 N 
ATOM     19  H   UNL     1      32.176 -13.008 -21.071  0.00  0.00    +0.144 HD
ATOM     20  H   UNL     1      30.959 -12.775 -22.241  0.00  0.00    +0.144 HD
ENDBRANCH   4  18
BRANCH   3  22
ATOM     21  O   UNL     1      31.555  -9.833 -20.886  0.00  0.00    -0.285 OA
ATOM     22  C   UNL     1      32.084  -9.434 -21.950  0.00  0.00    +0.213 C 
BRANCH  22  24
ATOM     23  N   UNL     1      32.621  -7.548 -23.448  0.00  0.00    -0.310 N 
ATOM     24  C   UNL     1      31.935  -8.083 -22.391  0.00  0.00    +0.088 C 
ATOM     25  C   UNL     1      32.266  -6.230 -23.626  0.00  0.00    +0.048 C 
ATOM     26  C   UNL     1      31.321  -5.922 -22.645  0.00  0.00    +0.015 C 
ATOM     27  C   UNL     1      31.122  -7.101 -21.873  0.00  0.00    +0.019 C 
ATOM     28  C   UNL     1      32.704  -5.296 -24.571  0.00  0.00    +0.015 C 
ATOM     29  C   UNL     1      30.785  -4.620 -22.604  0.00  0.00    +0.001 C 
ATOM     30  C   UNL     1      32.159  -4.011 -24.511  0.00  0.00    +0.001 C 
ATOM     31  C   UNL     1      31.214  -3.675 -23.543  0.00  0.00    +0.000 C 
ATOM     32  H   UNL     1      33.274  -8.035 -24.000  0.00  0.00    +0.152 HD
ENDBRANCH  22  24
ENDBRANCH   3  22
TORSDOF 4
ENDMDL
MODEL 9
REMARK VINA RESULT:     -10.6      1.598      2.480
REMARK  Name = 66555680
REMARK  4 active torsions:
REMARK  status: ('A' for Active; 'I' for Inactive)
REMARK    1  A    between atoms: N_1  and  C_8
REMARK    2  A    between atoms: C_3  and  C_22
REMARK    3  A    between atoms: C_4  and  N_18
REMARK    4  A    between atoms: C_22  and  C_24
REMARK                            x       y       z     vdW  Elec       q    Type
REMARK                         _______ _______ _______ _____ _____    ______ ____
ROOT
ATOM      1  N   UNL     1      35.610 -18.800 -21.002  0.00  0.00    -0.177 N 
ATOM      2  N   UNL     1      36.874 -18.795 -20.546  0.00  0.00    -0.171 NA
ATOM      3  C   UNL     1      35.849 -20.797 -20.151  0.00  0.00    +0.090 C 
ATOM      4  C   UNL     1      34.952 -19.976 -20.791  0.00  0.00    +0.122 C 
ATOM      5  C   UNL     1      37.014 -20.018 -20.027  0.00  0.00    +0.124 C 
ENDROOT
BRANCH   1   8
ATOM      6  N   UNL     1      34.286 -16.075 -24.886  0.00  0.00    -0.318 N 
ATOM      7  N   UNL     1      33.617 -14.353 -23.649  0.00  0.00    -0.318 N 
ATOM      8  C   UNL     1      35.101 -17.658 -21.624  0.00  0.00    +0.077 C 
ATOM      9  C   UNL     1      34.503 -16.451 -23.586  0.00  0.00    +0.060 C 
ATOM     10  C   UNL     1      35.020 -17.617 -23.020  0.00  0.00    +0.032 C 
ATOM     11  C   UNL     1      34.079 -15.360 -22.834  0.00  0.00    +0.059 C 
ATOM     12  C   UNL     1      34.683 -16.579 -20.843  0.00  0.00    +0.018 C 
ATOM     13  C   UNL     1      34.167 -15.418 -21.432  0.00  0.00    +0.017 C 
ATOM     14  C   UNL     1      33.755 -14.814 -24.872  0.00  0.00    +0.144 C 
ATOM     15  C   UNL     1      33.405 -14.118 -26.123  0.00  0.00    +0.044 C 
ATOM     16  H   UNL     1      34.476 -16.616 -25.687  0.00  0.00    +0.148 HD
ATOM     17  H   UNL     1      33.261 -13.476 -23.377  0.00  0.00    +0.148 HD
ENDBRANCH   1   8
BRANCH   4  18
ATOM     18  N   UNL     1      33.674 -20.164 -21.183  0.00  0.00    -0.344 N 
ATOM     19  H   UNL     1      33.148 -19.407 -21.531  0.00  0.00    +0.144 HD
ATOM     20  H   UNL     1      33.266 -21.058 -21.122  0.00  0.00    +0.144 HD
ENDBRANCH   4  18
BRANCH   3  22
ATOM     21  O   UNL     1      36.170 -23.103 -20.374  0.00  0.00    -0.285 OA
ATOM     22  C   UNL     1      35.601 -22.214 -19.698  0.00  0.00    +0.213 C 
BRANCH  22  24
ATOM     23  N   UNL     1      35.265 -22.934 -17.362  0.00  0.00    -0.310 N 
ATOM     24  C   UNL     1      34.775 -22.546 -18.581  0.00  0.00    +0.088 C 
ATOM     25  C   UNL     1      34.228 -23.186 -16.492  0.00  0.00    +0.048 C 
ATOM     26  C   UNL     1      33.040 -22.949 -17.188  0.00  0.00    +0.015 C 
ATOM     27  C   UNL     1      33.401 -22.546 -18.505  0.00  0.00    +0.019 C 
ATOM     28  C   UNL     1      34.250 -23.602 -15.156  0.00  0.00    +0.015 C 
ATOM     29  C   UNL     1      31.815 -23.135 -16.520  0.00  0.00    +0.001 C 
ATOM     30  C   UNL     1      33.022 -23.779 -14.514  0.00  0.00    +0.001 C 
ATOM     31  C   UNL     1      31.821 -23.550 -15.184  0.00  0.00    +0.000 C 
ATOM     32  H   UNL     1      36.220 -23.019 -17.140  0.00  0.00    +0.152 HD
ENDBRANCH  22  24
ENDBRANCH   3  22
TORSDOF 4
ENDMDL
