MODEL 1
REMARK VINA RESULT:     -12.4      0.000      0.000
REMARK  Name = 11538992
REMARK  4 active torsions:
REMARK  status: ('A' for Active; 'I' for Inactive)
REMARK    1  A    between atoms: C_1  and  N_7
REMARK    2  A    between atoms: C_3  and  C_24
REMARK    3  A    between atoms: C_4  and  N_30
REMARK    4  A    between atoms: C_15  and  C_20
REMARK                            x       y       z     vdW  Elec       q    Type
REMARK                         _______ _______ _______ _____ _____    ______ ____
ROOT
ATOM      1  C   UNL     1      35.254 -21.996 -19.414  0.00  0.00    -0.059 C 
ATOM      2  C   UNL     1      36.429 -21.012 -19.414  0.00  0.00    -0.042 C 
ATOM      3  C   UNL     1      35.059 -19.375 -20.802  0.00  0.00    +0.005 C 
ATOM      4  C   UNL     1      36.414 -20.118 -20.665  0.00  0.00    -0.064 C 
ATOM      5  C   UNL     1      33.918 -21.256 -19.530  0.00  0.00    -0.021 C 
ATOM      6  C   UNL     1      33.882 -20.370 -20.773  0.00  0.00    +0.000 C 
ENDROOT
BRANCH   1   7
ATOM      7  N   UNL     1      35.273 -22.792 -18.187  0.00  0.00    +0.394 N 
ATOM      8  N   UNL     1      35.083 -23.619 -15.535  0.00  0.00    -0.299 N 
ATOM      9  N   UNL     1      32.948 -24.062 -15.582  0.00  0.00    -0.136 NA
ATOM     10  N   UNL     1      33.473 -24.516 -14.382  0.00  0.00    -0.125 NA
ATOM     11  C   UNL     1      36.240 -22.241 -17.220  0.00  0.00    -0.052 C 
ATOM     12  C   UNL     1      33.919 -22.863 -17.598  0.00  0.00    -0.009 C 
ATOM     13  C   UNL     1      36.374 -23.170 -16.004  0.00  0.00    +0.086 C 
ATOM     14  C   UNL     1      33.935 -23.527 -16.268  0.00  0.00    +0.122 A 
ATOM     15  C   UNL     1      34.760 -24.240 -14.377  0.00  0.00    +0.238 A 
ATOM     16  H   UNL     1      35.570 -23.739 -18.422  0.00  0.00    -0.079 HD
BRANCH  15  20
ATOM     17  F   UNL     1      36.769 -25.354 -13.710  0.00  0.00    -0.163 F 
ATOM     18  F   UNL     1      36.347 -23.442 -12.775  0.00  0.00    -0.163 F 
ATOM     19  F   UNL     1      35.175 -25.195 -12.240  0.00  0.00    -0.163 F 
ATOM     20  C   UNL     1      35.731 -24.547 -13.314  0.00  0.00    +0.452 C 
ENDBRANCH  15  20
ENDBRANCH   1   7
BRANCH   3  24
ATOM     21  F   UNL     1      34.851 -20.418 -23.433  0.00  0.00    -0.204 F 
ATOM     22  F   UNL     1      34.955 -14.974 -22.923  0.00  0.00    -0.202 F 
ATOM     23  F   UNL     1      34.757 -16.115 -25.398  0.00  0.00    -0.202 F 
ATOM     24  C   UNL     1      34.978 -18.498 -22.044  0.00  0.00    +0.005 C 
ATOM     25  C   UNL     1      34.878 -19.085 -23.301  0.00  0.00    +0.138 C 
ATOM     26  C   UNL     1      35.005 -17.114 -21.910  0.00  0.00    +0.030 C 
ATOM     27  C   UNL     1      34.931 -16.307 -23.045  0.00  0.00    +0.167 C 
ATOM     28  C   UNL     1      34.803 -18.278 -24.436  0.00  0.00    +0.061 C 
ATOM     29  C   UNL     1      34.830 -16.890 -24.308  0.00  0.00    +0.170 C 
ENDBRANCH   3  24
BRANCH   4  30
ATOM     30  N   UNL     1      37.525 -19.164 -20.596  0.00  0.00    +0.382 N 
ATOM     31  H   UNL     1      37.157 -18.225 -20.444  0.00  0.00    -0.089 HD
ATOM     32  H   UNL     1      38.048 -19.187 -21.470  0.00  0.00    -0.089 HD
ATOM     33  H   UNL     1      38.142 -19.416 -19.823  0.00  0.00    -0.089 HD
ENDBRANCH   4  30
TORSDOF 4
ENDMDL
MODEL 2
REMARK VINA RESULT:     -12.2      1.007      1.849
REMARK  Name = 11538992
REMARK  4 active torsions:
REMARK  status: ('A' for Active; 'I' for Inactive)
REMARK    1  A    between atoms: C_1  and  N_7
REMARK    2  A    between atoms: C_3  and  C_24
REMARK    3  A    between atoms: C_4  and  N_30
REMARK    4  A    between atoms: C_15  and  C_20
REMARK                            x       y       z     vdW  Elec       q    Type
REMARK                         _______ _______ _______ _____ _____    ______ ____
ROOT
ATOM      1  C   UNL     1      35.061 -22.468 -18.879  0.00  0.00    -0.059 C 
ATOM      2  C   UNL     1      36.259 -21.513 -18.911  0.00  0.00    -0.042 C 
ATOM      3  C   UNL     1      34.944 -19.914 -20.392  0.00  0.00    +0.005 C 
ATOM      4  C   UNL     1      36.279 -20.680 -20.204  0.00  0.00    -0.064 C 
ATOM      5  C   UNL     1      33.745 -21.704 -19.046  0.00  0.00    -0.021 C 
ATOM      6  C   UNL     1      33.744 -20.878 -20.331  0.00  0.00    +0.000 C 
ENDROOT
BRANCH   1   7
ATOM      7  N   UNL     1      35.048 -23.205 -17.615  0.00  0.00    +0.394 N 
ATOM      8  N   UNL     1      34.821 -23.897 -14.928  0.00  0.00    -0.299 N 
ATOM      9  N   UNL     1      32.671 -24.263 -14.963  0.00  0.00    -0.136 NA
ATOM     10  N   UNL     1      33.176 -24.678 -13.741  0.00  0.00    -0.125 NA
ATOM     11  C   UNL     1      36.032 -22.644 -16.671  0.00  0.00    -0.052 C 
ATOM     12  C   UNL     1      33.691 -23.199 -17.030  0.00  0.00    -0.009 C 
ATOM     13  C   UNL     1      36.128 -23.518 -15.412  0.00  0.00    +0.086 C 
ATOM     14  C   UNL     1      33.679 -23.798 -15.670  0.00  0.00    +0.122 A 
ATOM     15  C   UNL     1      34.472 -24.449 -13.743  0.00  0.00    +0.238 A 
ATOM     16  H   UNL     1      35.311 -24.173 -17.803  0.00  0.00    -0.079 HD
BRANCH  15  20
ATOM     17  F   UNL     1      34.870 -25.335 -11.556  0.00  0.00    -0.163 F 
ATOM     18  F   UNL     1      36.450 -25.585 -13.022  0.00  0.00    -0.163 F 
ATOM     19  F   UNL     1      36.056 -23.620 -12.175  0.00  0.00    -0.163 F 
ATOM     20  C   UNL     1      35.428 -24.740 -12.662  0.00  0.00    +0.452 C 
ENDBRANCH  15  20
ENDBRANCH   1   7
BRANCH   3  24
ATOM     21  F   UNL     1      35.347 -17.105 -20.462  0.00  0.00    -0.204 F 
ATOM     22  F   UNL     1      34.367 -19.590 -25.234  0.00  0.00    -0.202 F 
ATOM     23  F   UNL     1      34.773 -16.889 -25.154  0.00  0.00    -0.202 F 
ATOM     24  C   UNL     1      34.898 -19.095 -21.675  0.00  0.00    +0.005 C 
ATOM     25  C   UNL     1      35.105 -17.720 -21.628  0.00  0.00    +0.138 C 
ATOM     26  C   UNL     1      34.649 -19.730 -22.887  0.00  0.00    +0.030 C 
ATOM     27  C   UNL     1      34.606 -18.984 -24.065  0.00  0.00    +0.167 C 
ATOM     28  C   UNL     1      35.062 -16.974 -22.805  0.00  0.00    +0.061 C 
ATOM     29  C   UNL     1      34.812 -17.605 -24.023  0.00  0.00    +0.170 C 
ENDBRANCH   3  24
BRANCH   4  30
ATOM     30  N   UNL     1      37.412 -19.750 -20.166  0.00  0.00    +0.382 N 
ATOM     31  H   UNL     1      38.276 -20.259 -20.350  0.00  0.00    -0.089 HD
ATOM     32  H   UNL     1      37.463 -19.314 -19.246  0.00  0.00    -0.089 HD
ATOM     33  H   UNL     1      37.284 -19.029 -20.877  0.00  0.00    -0.089 HD
ENDBRANCH   4  30
TORSDOF 4
ENDMDL
MODEL 3
REMARK VINA RESULT:     -10.9      7.146     11.053
REMARK  Name = 11538992
REMARK  4 active torsions:
REMARK  status: ('A' for Active; 'I' for Inactive)
REMARK    1  A    between atoms: C_1  and  N_7
REMARK    2  A    between atoms: C_3  and  C_24
REMARK    3  A    between atoms: C_4  and  N_30
REMARK    4  A    between atoms: C_15  and  C_20
REMARK                            x       y       z     vdW  Elec       q    Type
REMARK                         _______ _______ _______ _____ _____    ______ ____
ROOT
ATOM      1  C   UNL     1      34.074 -12.418 -22.519  0.00  0.00    -0.059 C 
ATOM      2  C   UNL     1      32.611 -12.421 -22.066  0.00  0.00    -0.042 C 
ATOM      3  C   UNL     1      32.356 -10.020 -22.873  0.00  0.00    +0.005 C 
ATOM      4  C   UNL     1      32.134 -11.006 -21.697  0.00  0.00    -0.064 C 
ATOM      5  C   UNL     1      34.284 -11.458 -23.692  0.00  0.00    -0.021 C 
ATOM      6  C   UNL     1      33.825 -10.044 -23.340  0.00  0.00    +0.000 C 
ENDROOT
BRANCH   1   7
ATOM      7  N   UNL     1      34.476 -13.770 -22.909  0.00  0.00    +0.394 N 
ATOM      8  N   UNL     1      34.474 -16.487 -23.516  0.00  0.00    -0.299 N 
ATOM      9  N   UNL     1      33.856 -16.259 -25.596  0.00  0.00    -0.136 NA
ATOM     10  N   UNL     1      34.211 -17.581 -25.376  0.00  0.00    -0.125 NA
ATOM     11  C   UNL     1      34.238 -14.724 -21.810  0.00  0.00    -0.052 C 
ATOM     12  C   UNL     1      33.762 -14.186 -24.134  0.00  0.00    -0.009 C 
ATOM     13  C   UNL     1      34.809 -16.105 -22.164  0.00  0.00    +0.086 C 
ATOM     14  C   UNL     1      34.025 -15.611 -24.463  0.00  0.00    +0.122 A 
ATOM     15  C   UNL     1      34.581 -17.694 -24.119  0.00  0.00    +0.238 A 
ATOM     16  H   UNL     1      35.477 -13.764 -23.107  0.00  0.00    -0.079 HD
BRANCH  15  20
ATOM     17  F   UNL     1      36.375 -18.876 -23.065  0.00  0.00    -0.163 F 
ATOM     18  F   UNL     1      34.382 -19.202 -22.273  0.00  0.00    -0.163 F 
ATOM     19  F   UNL     1      34.934 -20.044 -24.201  0.00  0.00    -0.163 F 
ATOM     20  C   UNL     1      35.052 -18.910 -23.436  0.00  0.00    +0.452 C 
ENDBRANCH  15  20
ENDBRANCH   1   7
BRANCH   3  24
ATOM     21  F   UNL     1      30.634  -8.497 -24.538  0.00  0.00    -0.204 F 
ATOM     22  F   UNL     1      32.441  -6.088 -19.973  0.00  0.00    -0.202 F 
ATOM     23  F   UNL     1      30.776  -4.737 -21.668  0.00  0.00    -0.202 F 
ATOM     24  C   UNL     1      31.929  -8.594 -22.551  0.00  0.00    +0.005 C 
ATOM     25  C   UNL     1      31.081  -7.912 -23.418  0.00  0.00    +0.138 C 
ATOM     26  C   UNL     1      32.390  -7.985 -21.389  0.00  0.00    +0.030 C 
ATOM     27  C   UNL     1      32.000  -6.680 -21.090  0.00  0.00    +0.167 C 
ATOM     28  C   UNL     1      30.692  -6.607 -23.119  0.00  0.00    +0.061 C 
ATOM     29  C   UNL     1      31.151  -5.991 -21.956  0.00  0.00    +0.170 C 
ENDBRANCH   3  24
BRANCH   4  30
ATOM     30  N   UNL     1      30.718 -11.052 -21.319  0.00  0.00    +0.382 N 
ATOM     31  H   UNL     1      30.619 -10.787 -20.339  0.00  0.00    -0.089 HD
ATOM     32  H   UNL     1      30.361 -11.998 -21.453  0.00  0.00    -0.089 HD
ATOM     33  H   UNL     1      30.188 -10.403 -21.901  0.00  0.00    -0.089 HD
ENDBRANCH   4  30
TORSDOF 4
ENDMDL
MODEL 4
REMARK VINA RESULT:     -10.8      1.513      2.038
REMARK  Name = 11538992
REMARK  4 active torsions:
REMARK  status: ('A' for Active; 'I' for Inactive)
REMARK    1  A    between atoms: C_1  and  N_7
REMARK    2  A    between atoms: C_3  and  C_24
REMARK    3  A    between atoms: C_4  and  N_30
REMARK    4  A    between atoms: C_15  and  C_20
REMARK                            x       y       z     vdW  Elec       q    Type
REMARK                         _______ _______ _______ _____ _____    ______ ____
ROOT
ATOM      1  C   UNL     1      35.782 -21.617 -18.160  0.00  0.00    -0.059 C 
ATOM      2  C   UNL     1      34.443 -21.794 -18.884  0.00  0.00    -0.042 C 
ATOM      3  C   UNL     1      35.345 -20.482 -20.871  0.00  0.00    +0.005 C 
ATOM      4  C   UNL     1      34.176 -20.638 -19.863  0.00  0.00    -0.064 C 
ATOM      5  C   UNL     1      36.934 -21.482 -19.159  0.00  0.00    -0.021 C 
ATOM      6  C   UNL     1      36.689 -20.331 -20.133  0.00  0.00    +0.000 C 
ENDROOT
BRANCH   1   7
ATOM      7  N   UNL     1      36.024 -22.758 -17.278  0.00  0.00    +0.394 N 
ATOM      8  N   UNL     1      36.349 -24.386 -15.043  0.00  0.00    -0.299 N 
ATOM      9  N   UNL     1      34.235 -24.867 -14.796  0.00  0.00    -0.136 NA
ATOM     10  N   UNL     1      34.978 -25.657 -13.933  0.00  0.00    -0.125 NA
ATOM     11  C   UNL     1      37.183 -22.507 -16.402  0.00  0.00    -0.052 C 
ATOM     12  C   UNL     1      34.815 -23.059 -16.482  0.00  0.00    -0.009 C 
ATOM     13  C   UNL     1      37.531 -23.767 -15.595  0.00  0.00    +0.086 C 
ATOM     14  C   UNL     1      35.079 -24.108 -15.462  0.00  0.00    +0.122 A 
ATOM     15  C   UNL     1      36.247 -25.352 -14.100  0.00  0.00    +0.238 A 
ATOM     16  H   UNL     1      36.238 -23.572 -17.855  0.00  0.00    -0.079 HD
BRANCH  15  20
ATOM     17  F   UNL     1      38.189 -25.036 -12.739  0.00  0.00    -0.163 F 
ATOM     18  F   UNL     1      37.073 -26.874 -12.450  0.00  0.00    -0.163 F 
ATOM     19  F   UNL     1      38.266 -26.599 -14.248  0.00  0.00    -0.163 F 
ATOM     20  C   UNL     1      37.403 -25.944 -13.406  0.00  0.00    +0.452 C 
ENDBRANCH  15  20
ENDBRANCH   1   7
BRANCH   3  24
ATOM     21  F   UNL     1      34.969 -20.850 -23.660  0.00  0.00    -0.204 F 
ATOM     22  F   UNL     1      34.958 -15.702 -21.813  0.00  0.00    -0.202 F 
ATOM     23  F   UNL     1      34.607 -16.203 -24.477  0.00  0.00    -0.202 F 
ATOM     24  C   UNL     1      35.146 -19.329 -21.846  0.00  0.00    +0.005 C 
ATOM     25  C   UNL     1      34.968 -19.591 -23.201  0.00  0.00    +0.138 C 
ATOM     26  C   UNL     1      35.143 -18.021 -21.373  0.00  0.00    +0.030 C 
ATOM     27  C   UNL     1      34.962 -16.963 -22.262  0.00  0.00    +0.167 C 
ATOM     28  C   UNL     1      34.786 -18.532 -24.091  0.00  0.00    +0.061 C 
ATOM     29  C   UNL     1      34.783 -17.219 -23.622  0.00  0.00    +0.170 C 
ENDBRANCH   3  24
BRANCH   4  30
ATOM     30  N   UNL     1      32.912 -20.878 -20.566  0.00  0.00    +0.382 N 
ATOM     31  H   UNL     1      32.918 -20.377 -21.455  0.00  0.00    -0.089 HD
ATOM     32  H   UNL     1      32.136 -20.545 -19.994  0.00  0.00    -0.089 HD
ATOM     33  H   UNL     1      32.803 -21.877 -20.740  0.00  0.00    -0.089 HD
ENDBRANCH   4  30
TORSDOF 4
ENDMDL
MODEL 5
REMARK VINA RESULT:     -10.8      6.977     11.082
REMARK  Name = 11538992
REMARK  4 active torsions:
REMARK  status: ('A' for Active; 'I' for Inactive)
REMARK    1  A    between atoms: C_1  and  N_7
REMARK    2  A    between atoms: C_3  and  C_24
REMARK    3  A    between atoms: C_4  and  N_30
REMARK    4  A    between atoms: C_15  and  C_20
REMARK                            x       y       z     vdW  Elec       q    Type
REMARK                         _______ _______ _______ _____ _____    ______ ____
ROOT
ATOM      1  C   UNL     1      33.184 -12.453 -23.301  0.00  0.00    -0.059 C 
ATOM      2  C   UNL     1      34.193 -11.323 -23.533  0.00  0.00    -0.042 C 
ATOM      3  C   UNL     1      32.839  -9.800 -22.007  0.00  0.00    +0.005 C 
ATOM      4  C   UNL     1      33.533  -9.941 -23.387  0.00  0.00    -0.064 C 
ATOM      5  C   UNL     1      32.516 -12.319 -21.930  0.00  0.00    -0.021 C 
ATOM      6  C   UNL     1      31.846 -10.955 -21.771  0.00  0.00    +0.000 C 
ENDROOT
BRANCH   1   7
ATOM      7  N   UNL     1      33.858 -13.747 -23.398  0.00  0.00    +0.394 N 
ATOM      8  N   UNL     1      34.401 -16.476 -23.490  0.00  0.00    -0.299 N 
ATOM      9  N   UNL     1      34.000 -16.722 -25.620  0.00  0.00    -0.136 NA
ATOM     10  N   UNL     1      34.552 -17.895 -25.130  0.00  0.00    -0.125 NA
ATOM     11  C   UNL     1      33.664 -14.533 -22.166  0.00  0.00    -0.052 C 
ATOM     12  C   UNL     1      33.375 -14.491 -24.581  0.00  0.00    -0.009 C 
ATOM     13  C   UNL     1      34.505 -15.818 -22.209  0.00  0.00    +0.086 C 
ATOM     14  C   UNL     1      33.920 -15.874 -24.617  0.00  0.00    +0.122 A 
ATOM     15  C   UNL     1      34.787 -17.723 -23.847  0.00  0.00    +0.238 A 
ATOM     16  H   UNL     1      34.859 -13.582 -23.510  0.00  0.00    -0.079 HD
BRANCH  15  20
ATOM     17  F   UNL     1      36.682 -18.428 -22.569  0.00  0.00    -0.163 F 
ATOM     18  F   UNL     1      34.725 -18.796 -21.710  0.00  0.00    -0.163 F 
ATOM     19  F   UNL     1      35.406 -19.976 -23.406  0.00  0.00    -0.163 F 
ATOM     20  C   UNL     1      35.380 -18.696 -22.914  0.00  0.00    +0.452 C 
ENDBRANCH  15  20
ENDBRANCH   1   7
BRANCH   3  24
ATOM     21  F   UNL     1      32.925  -8.325 -19.584  0.00  0.00    -0.204 F 
ATOM     22  F   UNL     1      30.085  -6.143 -23.717  0.00  0.00    -0.202 F 
ATOM     23  F   UNL     1      30.252  -4.830 -21.326  0.00  0.00    -0.202 F 
ATOM     24  C   UNL     1      32.141  -8.459 -21.820  0.00  0.00    +0.005 C 
ATOM     25  C   UNL     1      32.230  -7.796 -20.601  0.00  0.00    +0.138 C 
ATOM     26  C   UNL     1      31.420  -7.907 -22.874  0.00  0.00    +0.030 C 
ATOM     27  C   UNL     1      30.780  -6.679 -22.707  0.00  0.00    +0.167 C 
ATOM     28  C   UNL     1      31.590  -6.568 -20.433  0.00  0.00    +0.061 C 
ATOM     29  C   UNL     1      30.865  -6.010 -21.486  0.00  0.00    +0.170 C 
ENDBRANCH   3  24
BRANCH   4  30
ATOM     30  N   UNL     1      34.545  -8.896 -23.569  0.00  0.00    +0.382 N 
ATOM     31  H   UNL     1      34.937  -8.642 -22.662  0.00  0.00    -0.089 HD
ATOM     32  H   UNL     1      34.115  -8.076 -23.995  0.00  0.00    -0.089 HD
ATOM     33  H   UNL     1      35.288  -9.244 -24.175  0.00  0.00    -0.089 HD
ENDBRANCH   4  30
TORSDOF 4
ENDMDL
MODEL 6
REMARK VINA RESULT:     -10.3      6.536     10.526
REMARK  Name = 11538992
REMARK  4 active torsions:
REMARK  status: ('A' for Active; 'I' for Inactive)
REMARK    1  A    between atoms: C_1  and  N_7
REMARK    2  A    between atoms: C_3  and  C_24
REMARK    3  A    between atoms: C_4  and  N_30
REMARK    4  A    between atoms: C_15  and  C_20
REMARK                            x       y       z     vdW  Elec       q    Type
REMARK                         _______ _______ _______ _____ _____    ______ ____
ROOT
ATOM      1  C   UNL     1      32.592 -12.979 -22.689  0.00  0.00    -0.059 C 
ATOM      2  C   UNL     1      33.742 -12.060 -23.113  0.00  0.00    -0.042 C 
ATOM      3  C   UNL     1      32.672 -10.132 -21.841  0.00  0.00    +0.005 C 
ATOM      4  C   UNL     1      33.290 -10.592 -23.187  0.00  0.00    -0.064 C 
ATOM      5  C   UNL     1      31.997 -12.533 -21.351  0.00  0.00    -0.021 C 
ATOM      6  C   UNL     1      31.534 -11.078 -21.409  0.00  0.00    +0.000 C 
ENDROOT
BRANCH   1   7
ATOM      7  N   UNL     1      33.072 -14.357 -22.581  0.00  0.00    +0.394 N 
ATOM      8  N   UNL     1      34.685 -16.614 -22.344  0.00  0.00    -0.299 N 
ATOM      9  N   UNL     1      34.801 -16.588 -20.166  0.00  0.00    -0.136 NA
ATOM     10  N   UNL     1      35.365 -17.766 -20.631  0.00  0.00    -0.125 NA
ATOM     11  C   UNL     1      33.964 -14.690 -23.707  0.00  0.00    -0.052 C 
ATOM     12  C   UNL     1      33.752 -14.566 -21.286  0.00  0.00    -0.009 C 
ATOM     13  C   UNL     1      34.334 -16.181 -23.676  0.00  0.00    +0.086 C 
ATOM     14  C   UNL     1      34.392 -15.905 -21.214  0.00  0.00    +0.122 A 
ATOM     15  C   UNL     1      35.282 -17.760 -21.944  0.00  0.00    +0.238 A 
ATOM     16  H   UNL     1      32.267 -14.983 -22.625  0.00  0.00    -0.079 HD
BRANCH  15  20
ATOM     17  F   UNL     1      35.198 -20.051 -22.631  0.00  0.00    -0.163 F 
ATOM     18  F   UNL     1      35.454 -18.565 -24.190  0.00  0.00    -0.163 F 
ATOM     19  F   UNL     1      37.096 -19.011 -22.835  0.00  0.00    -0.163 F 
ATOM     20  C   UNL     1      35.739 -18.811 -22.869  0.00  0.00    +0.452 C 
ENDBRANCH  15  20
ENDBRANCH   1   7
BRANCH   3  24
ATOM     21  F   UNL     1      33.164  -8.280 -19.748  0.00  0.00    -0.204 F 
ATOM     22  F   UNL     1      30.292  -6.472 -24.037  0.00  0.00    -0.202 F 
ATOM     23  F   UNL     1      30.840  -4.795 -21.950  0.00  0.00    -0.202 F 
ATOM     24  C   UNL     1      32.178  -8.692 -21.868  0.00  0.00    +0.005 C 
ATOM     25  C   UNL     1      32.460  -7.843 -20.802  0.00  0.00    +0.138 C 
ATOM     26  C   UNL     1      31.448  -8.236 -22.960  0.00  0.00    +0.030 C 
ATOM     27  C   UNL     1      30.995  -6.917 -22.989  0.00  0.00    +0.167 C 
ATOM     28  C   UNL     1      32.006  -6.525 -20.830  0.00  0.00    +0.061 C 
ATOM     29  C   UNL     1      31.274  -6.062 -21.922  0.00  0.00    +0.170 C 
ENDBRANCH   3  24
BRANCH   4  30
ATOM     30  N   UNL     1      34.434  -9.748 -23.548  0.00  0.00    +0.382 N 
ATOM     31  H   UNL     1      35.161  -9.839 -22.838  0.00  0.00    -0.089 HD
ATOM     32  H   UNL     1      34.134  -8.774 -23.603  0.00  0.00    -0.089 HD
ATOM     33  H   UNL     1      34.803 -10.043 -24.452  0.00  0.00    -0.089 HD
ENDBRANCH   4  30
TORSDOF 4
ENDMDL
MODEL 7
REMARK VINA RESULT:     -10.2      9.606     15.412
REMARK  Name = 11538992
REMARK  4 active torsions:
REMARK  status: ('A' for Active; 'I' for Inactive)
REMARK    1  A    between atoms: C_1  and  N_7
REMARK    2  A    between atoms: C_3  and  C_24
REMARK    3  A    between atoms: C_4  and  N_30
REMARK    4  A    between atoms: C_15  and  C_20
REMARK                            x       y       z     vdW  Elec       q    Type
REMARK                         _______ _______ _______ _____ _____    ______ ____
ROOT
ATOM      1  C   UNL     1      33.250  -8.876 -22.387  0.00  0.00    -0.059 C 
ATOM      2  C   UNL     1      34.099  -9.163 -23.630  0.00  0.00    -0.042 C 
ATOM      3  C   UNL     1      33.307 -11.582 -23.615  0.00  0.00    +0.005 C 
ATOM      4  C   UNL     1      34.534 -10.637 -23.686  0.00  0.00    -0.064 C 
ATOM      5  C   UNL     1      32.029  -9.799 -22.332  0.00  0.00    -0.021 C 
ATOM      6  C   UNL     1      32.444 -11.268 -22.376  0.00  0.00    +0.000 C 
ENDROOT
BRANCH   1   7
ATOM      7  N   UNL     1      32.814  -7.480 -22.395  0.00  0.00    +0.394 N 
ATOM      8  N   UNL     1      31.421  -5.119 -22.879  0.00  0.00    -0.299 N 
ATOM      9  N   UNL     1      29.951  -5.386 -21.289  0.00  0.00    -0.136 NA
ATOM     10  N   UNL     1      29.812  -4.112 -21.817  0.00  0.00    -0.125 NA
ATOM     11  C   UNL     1      32.836  -6.932 -23.764  0.00  0.00    -0.052 C 
ATOM     12  C   UNL     1      31.468  -7.358 -21.798  0.00  0.00    -0.009 C 
ATOM     13  C   UNL     1      32.534  -5.426 -23.745  0.00  0.00    +0.086 C 
ATOM     14  C   UNL     1      30.930  -5.979 -21.939  0.00  0.00    +0.122 A 
ATOM     15  C   UNL     1      30.708  -3.973 -22.771  0.00  0.00    +0.238 A 
ATOM     16  H   UNL     1      33.466  -6.936 -21.830  0.00  0.00    -0.079 HD
BRANCH  15  20
ATOM     17  F   UNL     1      32.144  -2.158 -23.378  0.00  0.00    -0.163 F 
ATOM     18  F   UNL     1      30.939  -3.029 -24.957  0.00  0.00    -0.163 F 
ATOM     19  F   UNL     1      30.000  -1.800 -23.428  0.00  0.00    -0.163 F 
ATOM     20  C   UNL     1      30.942  -2.782 -23.605  0.00  0.00    +0.452 C 
ENDBRANCH  15  20
ENDBRANCH   1   7
BRANCH   3  24
ATOM     21  F   UNL     1      33.107 -13.207 -25.933  0.00  0.00    -0.204 F 
ATOM     22  F   UNL     1      34.948 -15.604 -21.375  0.00  0.00    -0.202 F 
ATOM     23  F   UNL     1      34.706 -17.049 -23.681  0.00  0.00    -0.202 F 
ATOM     24  C   UNL     1      33.683 -13.057 -23.635  0.00  0.00    +0.005 C 
ATOM     25  C   UNL     1      33.557 -13.788 -24.812  0.00  0.00    +0.138 C 
ATOM     26  C   UNL     1      34.151 -13.663 -22.474  0.00  0.00    +0.030 C 
ATOM     27  C   UNL     1      34.497 -15.014 -22.489  0.00  0.00    +0.167 C 
ATOM     28  C   UNL     1      33.903 -15.139 -24.827  0.00  0.00    +0.061 C 
ATOM     29  C   UNL     1      34.372 -15.752 -23.666  0.00  0.00    +0.170 C 
ENDBRANCH   3  24
BRANCH   4  30
ATOM     30  N   UNL     1      35.300 -10.872 -24.914  0.00  0.00    +0.382 N 
ATOM     31  H   UNL     1      35.617 -11.841 -24.936  0.00  0.00    -0.089 HD
ATOM     32  H   UNL     1      36.108 -10.250 -24.935  0.00  0.00    -0.089 HD
ATOM     33  H   UNL     1      34.708 -10.690 -25.724  0.00  0.00    -0.089 HD
ENDBRANCH   4  30
TORSDOF 4
ENDMDL
MODEL 8
REMARK VINA RESULT:     -10.2      6.611      8.211
REMARK  Name = 11538992
REMARK  4 active torsions:
REMARK  status: ('A' for Active; 'I' for Inactive)
REMARK    1  A    between atoms: C_1  and  N_7
REMARK    2  A    between atoms: C_3  and  C_24
REMARK    3  A    between atoms: C_4  and  N_30
REMARK    4  A    between atoms: C_15  and  C_20
REMARK                            x       y       z     vdW  Elec       q    Type
REMARK                         _______ _______ _______ _____ _____    ______ ____
ROOT
ATOM      1  C   UNL     1      33.985 -23.904 -14.927  0.00  0.00    -0.059 C 
ATOM      2  C   UNL     1      33.052 -24.950 -14.308  0.00  0.00    -0.042 C 
ATOM      3  C   UNL     1      31.124 -24.060 -15.711  0.00  0.00    +0.005 C 
ATOM      4  C   UNL     1      31.594 -24.461 -14.289  0.00  0.00    -0.064 C 
ATOM      5  C   UNL     1      33.527 -23.526 -16.338  0.00  0.00    -0.021 C 
ATOM      6  C   UNL     1      32.083 -23.029 -16.336  0.00  0.00    +0.000 C 
ENDROOT
BRANCH   1   7
ATOM      7  N   UNL     1      35.352 -24.424 -14.973  0.00  0.00    +0.394 N 
ATOM      8  N   UNL     1      37.790 -25.592 -14.310  0.00  0.00    -0.299 N 
ATOM      9  N   UNL     1      37.181 -27.647 -14.715  0.00  0.00    -0.136 NA
ATOM     10  N   UNL     1      38.547 -27.623 -14.482  0.00  0.00    -0.125 NA
ATOM     11  C   UNL     1      36.212 -23.724 -14.001  0.00  0.00    -0.052 C 
ATOM     12  C   UNL     1      35.357 -25.882 -14.732  0.00  0.00    -0.009 C 
ATOM     13  C   UNL     1      37.675 -24.160 -14.167  0.00  0.00    +0.086 C 
ATOM     14  C   UNL     1      36.740 -26.411 -14.611  0.00  0.00    +0.122 A 
ATOM     15  C   UNL     1      38.892 -26.375 -14.242  0.00  0.00    +0.238 A 
ATOM     16  H   UNL     1      35.730 -24.252 -15.906  0.00  0.00    -0.079 HD
BRANCH  15  20
ATOM     17  F   UNL     1      40.789 -25.107 -14.960  0.00  0.00    -0.163 F 
ATOM     18  F   UNL     1      40.317 -25.059 -12.843  0.00  0.00    -0.163 F 
ATOM     19  F   UNL     1      41.162 -26.859 -13.726  0.00  0.00    -0.163 F 
ATOM     20  C   UNL     1      40.242 -25.866 -13.953  0.00  0.00    +0.452 C 
ENDBRANCH  15  20
ENDBRANCH   1   7
BRANCH   3  24
ATOM     21  F   UNL     1      29.910 -22.700 -13.536  0.00  0.00    -0.204 F 
ATOM     22  F   UNL     1      26.864 -23.422 -18.021  0.00  0.00    -0.202 F 
ATOM     23  F   UNL     1      25.822 -22.128 -15.851  0.00  0.00    -0.202 F 
ATOM     24  C   UNL     1      29.693 -23.538 -15.746  0.00  0.00    +0.005 C 
ATOM     25  C   UNL     1      29.169 -22.880 -14.638  0.00  0.00    +0.138 C 
ATOM     26  C   UNL     1      28.922 -23.723 -16.888  0.00  0.00    +0.030 C 
ATOM     27  C   UNL     1      27.612 -23.247 -16.924  0.00  0.00    +0.167 C 
ATOM     28  C   UNL     1      27.859 -22.404 -14.673  0.00  0.00    +0.061 C 
ATOM     29  C   UNL     1      27.080 -22.587 -15.815  0.00  0.00    +0.170 C 
ENDBRANCH   3  24
BRANCH   4  30
ATOM     30  N   UNL     1      30.735 -25.512 -13.735  0.00  0.00    +0.382 N 
ATOM     31  H   UNL     1      31.196 -26.416 -13.836  0.00  0.00    -0.089 HD
ATOM     32  H   UNL     1      29.847 -25.526 -14.236  0.00  0.00    -0.089 HD
ATOM     33  H   UNL     1      30.564 -25.326 -12.746  0.00  0.00    -0.089 HD
ENDBRANCH   4  30
TORSDOF 4
ENDMDL
MODEL 9
REMARK VINA RESULT:      -9.9      6.654     10.598
REMARK  Name = 11538992
REMARK  4 active torsions:
REMARK  status: ('A' for Active; 'I' for Inactive)
REMARK    1  A    between atoms: C_1  and  N_7
REMARK    2  A    between atoms: C_3  and  C_24
REMARK    3  A    between atoms: C_4  and  N_30
REMARK    4  A    between atoms: C_15  and  C_20
REMARK                            x       y       z     vdW  Elec       q    Type
REMARK                         _______ _______ _______ _____ _____    ______ ____
ROOT
ATOM      1  C   UNL     1      32.582 -12.807 -22.760  0.00  0.00    -0.059 C 
ATOM      2  C   UNL     1      33.755 -11.901 -23.151  0.00  0.00    -0.042 C 
ATOM      3  C   UNL     1      32.669  -9.960 -21.912  0.00  0.00    +0.005 C 
ATOM      4  C   UNL     1      33.322 -10.428 -23.238  0.00  0.00    -0.064 C 
ATOM      5  C   UNL     1      31.953 -12.352 -21.440  0.00  0.00    -0.021 C 
ATOM      6  C   UNL     1      31.509 -10.893 -21.513  0.00  0.00    +0.000 C 
ENDROOT
BRANCH   1   7
ATOM      7  N   UNL     1      33.043 -14.190 -22.638  0.00  0.00    +0.394 N 
ATOM      8  N   UNL     1      34.623 -16.465 -22.357  0.00  0.00    -0.299 N 
ATOM      9  N   UNL     1      34.689 -16.434 -20.176  0.00  0.00    -0.136 NA
ATOM     10  N   UNL     1      35.248 -17.620 -20.625  0.00  0.00    -0.125 NA
ATOM     11  C   UNL     1      33.957 -14.537 -23.741  0.00  0.00    -0.052 C 
ATOM     12  C   UNL     1      33.690 -14.403 -21.326  0.00  0.00    -0.009 C 
ATOM     13  C   UNL     1      34.308 -16.032 -23.698  0.00  0.00    +0.086 C 
ATOM     14  C   UNL     1      34.312 -15.750 -21.236  0.00  0.00    +0.122 A 
ATOM     15  C   UNL     1      35.196 -17.617 -21.940  0.00  0.00    +0.238 A 
ATOM     16  H   UNL     1      32.232 -14.806 -22.698  0.00  0.00    -0.079 HD
BRANCH  15  20
ATOM     17  F   UNL     1      35.448 -18.414 -24.182  0.00  0.00    -0.163 F 
ATOM     18  F   UNL     1      37.009 -18.938 -22.770  0.00  0.00    -0.163 F 
ATOM     19  F   UNL     1      35.057 -19.888 -22.632  0.00  0.00    -0.163 F 
ATOM     20  C   UNL     1      35.663 -18.676 -22.851  0.00  0.00    +0.452 C 
ENDBRANCH  15  20
ENDBRANCH   1   7
BRANCH   3  24
ATOM     21  F   UNL     1      30.966  -8.941 -23.941  0.00  0.00    -0.204 F 
ATOM     22  F   UNL     1      32.548  -5.447 -20.042  0.00  0.00    -0.202 F 
ATOM     23  F   UNL     1      30.908  -4.600 -22.057  0.00  0.00    -0.202 F 
ATOM     24  C   UNL     1      32.193  -8.514 -21.954  0.00  0.00    +0.005 C 
ATOM     25  C   UNL     1      31.358  -8.089 -22.982  0.00  0.00    +0.138 C 
ATOM     26  C   UNL     1      32.597  -7.629 -20.960  0.00  0.00    +0.030 C 
ATOM     27  C   UNL     1      32.163  -6.304 -20.995  0.00  0.00    +0.167 C 
ATOM     28  C   UNL     1      30.924  -6.765 -23.017  0.00  0.00    +0.061 C 
ATOM     29  C   UNL     1      31.326  -5.872 -22.024  0.00  0.00    +0.170 C 
ENDBRANCH   3  24
BRANCH   4  30
ATOM     30  N   UNL     1      34.485  -9.597 -23.566  0.00  0.00    +0.382 N 
ATOM     31  H   UNL     1      34.218  -8.613 -23.539  0.00  0.00    -0.089 HD
ATOM     32  H   UNL     1      34.820  -9.833 -24.500  0.00  0.00    -0.089 HD
ATOM     33  H   UNL     1      35.226  -9.767 -22.886  0.00  0.00    -0.089 HD
ENDBRANCH   4  30
TORSDOF 4
ENDMDL
